#------------------------------------------------------------------------------
#$Date: 2016-08-05 06:31:54 +0300 (Fri, 05 Aug 2016) $
#$Revision: 184940 $
#$URL: file:///home/coder/svn-repositories/cod/cif/4/08/65/4086544.cif $
#------------------------------------------------------------------------------
#
# This file is available in the Crystallography Open Database (COD),
# http://www.crystallography.net/
#
# All data on this site have been placed in the public domain by the
# contributors.
#
data_4086544
loop_
_publ_author_name
'Raju, Suresh'
'van Slagmaat, Christian A. M. R.'
'Li, Jing'
'Lutz, Martin'
'Jastrzebski, Johann T. B. H.'
'Moret, Marc-Etienne'
'Klein Gebbink, Robertus J. M.'
_publ_section_title
;
 Synthesis of Cyclopentadienyl-Based Trioxo-rhenium Complexes and Their
 Use as Deoxydehydration Catalysts
;
_journal_issue                   13
_journal_name_full               Organometallics
_journal_page_first              2178
_journal_paper_doi               10.1021/acs.organomet.6b00120
_journal_volume                  35
_journal_year                    2016
_chemical_formula_moiety         'C13 H21 O3 Re'
_chemical_formula_sum            'C13 H21 O3 Re'
_chemical_formula_weight         411.50
_chemical_name_systematic
;
 ?
;
_space_group_crystal_system      monoclinic
_space_group_IT_number           11
_space_group_name_Hall           '-P 2yb'
_space_group_name_H-M_alt        'P 1 21/m 1'
_symmetry_space_group_name_Hall  '-P 2yb'
_symmetry_space_group_name_H-M   'P 1 21/m 1'
_atom_sites_solution_hydrogens   geom
_atom_sites_solution_primary     heavy
_atom_sites_solution_secondary   difmap
_audit_creation_method           SHELXL-2013
_cell_angle_alpha                90
_cell_angle_beta                 118.867(3)
_cell_angle_gamma                90
_cell_formula_units_Z            2
_cell_length_a                   6.3051(3)
_cell_length_b                   19.3260(14)
_cell_length_c                   6.3244(5)
_cell_measurement_reflns_used    5008
_cell_measurement_temperature    150(2)
_cell_measurement_theta_max      27.57
_cell_measurement_theta_min      3.69
_cell_volume                     674.89(8)
_computing_cell_refinement       Peakref
_computing_data_collection       Apex2
_computing_data_reduction        'Eval15, Platon-ABST, mergehklf5'
_computing_structure_refinement  'SHELXL-2013 (Sheldrick, 2013)'
_computing_structure_solution    DIRDIF-08
_diffrn_ambient_temperature      150(2)
_diffrn_measured_fraction_theta_full 1.000
_diffrn_measured_fraction_theta_max 0.973
_diffrn_measurement_device_type  'Bruker Kappa ApexII'
_diffrn_measurement_method       '\f and \w scans'
_diffrn_radiation_type           MoK\a
_diffrn_radiation_wavelength     0.71073
_diffrn_reflns_av_R_equivalents  0.0539
_diffrn_reflns_av_unetI/netI     0.0247
_diffrn_reflns_Laue_measured_fraction_full 1.000
_diffrn_reflns_Laue_measured_fraction_max 0.973
_diffrn_reflns_limit_h_max       8
_diffrn_reflns_limit_h_min       -8
_diffrn_reflns_limit_k_max       25
_diffrn_reflns_limit_k_min       -25
_diffrn_reflns_limit_l_max       8
_diffrn_reflns_limit_l_min       -8
_diffrn_reflns_number            10858
_diffrn_reflns_point_group_measured_fraction_full 1.000
_diffrn_reflns_point_group_measured_fraction_max 0.973
_diffrn_reflns_theta_full        25.242
_diffrn_reflns_theta_max         27.780
_diffrn_reflns_theta_min         2.108
_diffrn_source                   'sealed tube'
_exptl_absorpt_coefficient_mu    8.997
_exptl_absorpt_correction_T_max  0.687
_exptl_absorpt_correction_T_min  0.076
_exptl_absorpt_correction_type   analytical
_exptl_absorpt_process_details   Platon-ABST
_exptl_crystal_colour            yellow
_exptl_crystal_density_diffrn    2.025
_exptl_crystal_description       plate
_exptl_crystal_F_000             396
_exptl_crystal_size_max          0.45
_exptl_crystal_size_mid          0.28
_exptl_crystal_size_min          0.07
_refine_diff_density_max         2.733
_refine_diff_density_min         -1.487
_refine_diff_density_rms         0.183
_refine_ls_extinction_method     none
_refine_ls_goodness_of_fit_ref   1.179
_refine_ls_hydrogen_treatment    constr
_refine_ls_matrix_type           full
_refine_ls_number_parameters     86
_refine_ls_number_reflns         1992
_refine_ls_number_restraints     0
_refine_ls_restrained_S_all      1.179
_refine_ls_R_factor_all          0.0261
_refine_ls_R_factor_gt           0.0260
_refine_ls_shift/su_max          0.002
_refine_ls_shift/su_mean         0.000
_refine_ls_structure_factor_coef Fsqd
_refine_ls_weighting_details
'w=1/[\s^2^(Fo^2^)+(0.0143P)^2^+4.5575P] where P=(Fo^2^+2Fc^2^)/3'
_refine_ls_weighting_scheme      calc
_refine_ls_wR_factor_gt          0.0648
_refine_ls_wR_factor_ref         0.0649
_reflns_Friedel_coverage         0.000
_reflns_number_gt                1983
_reflns_number_total             1992
_reflns_threshold_expression     'I > 2\s(I)'
_cod_data_source_file            om6b00120_si_002.cif
_cod_data_source_block           l0676a
_cod_depositor_comments
'Adding full bibliography for 4086544--4086547.cif.'
_cod_original_cell_volume        674.88(8)
_cod_database_code               4086544
_shelx_space_group_comment
;
The symmetry employed for this shelxl refinement is uniquely defined
by the following loop, which should always be used as a source of
symmetry information in preference to the above space-group names.
They are only intended as comments.
;
_shelxl_version_number           2013-4
_shelx_res_file
;
TITL l0676a
CELL 0.71073 6.30505 19.32599 6.32439 90.0 118.867 90.0
ZERR       2 0.00034  0.00141 0.00050  0.0   0.003  0.0
LATT 1
SYMM -x, y+0.5, -z
SFAC C H O Re
UNIT 26 42 6 2
TEMP -123
MERG 0
L.S. 5
FMAP 2
PLAN -20
ACTA
BOND $H
CONF
WGHT    0.014300    4.557500
BASF   0.29954
FVAR       0.52917
RE1   4    0.013728    0.250000   -0.047222    10.50000    0.01301    0.02412 =
         0.01241    0.00000    0.00671    0.00000
O1    3   -0.135844    0.321254   -0.223051    11.00000    0.03185    0.04547 =
         0.01915    0.01473    0.01311    0.01779
O2    3    0.288640    0.250000   -0.044593    10.50000    0.01937    0.02762 =
         0.01676    0.00000    0.01235    0.00000
C1    1    0.104658    0.189902    0.318042    11.00000    0.02276    0.01457 =
         0.02230   -0.00299    0.01648   -0.00163
C2    1    0.252432    0.250000    0.384695    10.50000    0.01824    0.01938 =
         0.01008    0.00000    0.00667    0.00000
AFIX  43
H2    2    0.424380    0.250000    0.462252    10.50000   -1.20000
AFIX   0
C3    1   -0.140449    0.213776    0.214370    11.00000    0.01779    0.02299 =
         0.01093    0.00301    0.00804   -0.00094
AFIX  43
H3    2   -0.280021    0.185156    0.155337    11.00000   -1.20000
AFIX   0
C4    1    0.189047    0.114911    0.369605    11.00000    0.01816    0.01697 =
         0.01925   -0.00135    0.01145   -0.00064
C5    1    0.388869    0.100745    0.302540    11.00000    0.02389    0.02294 =
         0.02585    0.00041    0.01805    0.00407
AFIX 137
H5A   2    0.448229    0.053282    0.348129    11.00000   -1.50000
H5B   2    0.522681    0.133296    0.388592    11.00000   -1.50000
H5C   2    0.323218    0.106616    0.128099    11.00000   -1.50000
AFIX   0
C6    1   -0.023544    0.065142    0.228734    11.00000    0.02772    0.01895 =
         0.03376   -0.00715    0.01532   -0.00544
AFIX 137
H6A   2   -0.149140    0.073066    0.275060    11.00000   -1.50000
H6B   2    0.033949    0.017273    0.266170    11.00000   -1.50000
H6C   2   -0.090988    0.073353    0.055154    11.00000   -1.50000
AFIX   0
C7    1    0.290456    0.103429    0.641639    11.00000    0.03474    0.01931 =
         0.02400    0.00306    0.01925    0.00354
AFIX 137
H7A   2    0.164899    0.113957    0.685899    11.00000   -1.50000
H7B   2    0.429974    0.133897    0.731269    11.00000   -1.50000
H7C   2    0.341242    0.055101    0.681440    11.00000   -1.50000
AFIX   0
HKLF 5

REM  l0676a
REM R1 =  0.0260 for    1983 Fo > 4sig(Fo)  and  0.0261 for all    1992 data
REM     86 parameters refined using      0 restraints

END

WGHT      0.0091      4.6616

REM Highest difference peak  2.733,  deepest hole -1.487,  1-sigma level  0.183
Q1    1  -0.1162  0.2500 -0.0713  10.50000  0.05    2.73
Q2    1   0.1777  0.2500 -0.0242  10.50000  0.05    2.24
Q3    1   0.0070  0.3065 -0.0595  11.00000  0.05    1.59
Q4    1   0.0775  0.2500 -0.2233  10.50000  0.05    1.10
Q5    1  -0.1878  0.2500  0.2128  10.50000  0.05    0.92
Q6    1  -0.0312  0.2500 -0.4188  10.50000  0.05    0.79
Q7    1   0.0218  0.3499 -0.0440  11.00000  0.05    0.79
Q8    1  -0.1115  0.2800 -0.2528  11.00000  0.05    0.72
Q9    1   0.3444  0.2723  0.0627  11.00000  0.05    0.67
Q10   1  -0.1327  0.2500  0.1090  10.50000  0.05    0.63
Q11   1   0.1703  0.2702  0.3975  11.00000  0.05    0.62
Q12   1  -0.0026  0.1979  0.3425  11.00000  0.05    0.56
Q13   1   0.3757  0.2719 -0.1903  11.00000  0.05    0.56
Q14   1  -0.2891  0.2762 -0.1979  11.00000  0.05    0.55
Q15   1   0.4435  0.2500  0.6022  10.50000  0.05    0.51
Q16   1   0.2486  0.2500  0.1876  10.50000  0.05    0.50
Q17   1  -0.2504  0.2912  0.1179  11.00000  0.05    0.48
Q18   1   0.1449  0.1630  0.3441  11.00000  0.05    0.47
Q19   1  -0.2576  0.2867 -0.4181  11.00000  0.05    0.47
Q20   1   0.0549  0.2500  0.2219  10.50000  0.05    0.46
;
_shelx_res_checksum              43634
_shelx_hkl_file
;
  -5  -9   2  788.12    8.56   1
  -5 -13   1  187.02    5.50   1
  -6 -11   6  422.74    4.32   1
  -6 -15   5  339.60    4.56   1
  -5 -17   0   63.36    3.93   1
  -1 -10   3 1427.94   38.93  -2
  -1 -10  -2 1427.94   38.93   1
  -1 -14   2  974.68   29.05  -2
  -1 -14  -1  974.68   29.05   1
  -1 -14   0 2013.74   35.69  -2
  -1 -14   1 2013.74   35.69   1
  -1 -18   1  928.57   11.69  -2
  -1 -18   0  928.57   11.69   1
  -1 -10  -1 1983.72   76.68  -2
  -1 -10   2 1983.72   76.68   1
  -1  -6  -2 1589.66   35.34  -2
  -1  -6   3 1589.66   35.34   1
  -2 -20  -2  163.84   22.62  -2
  -2 -20   4  163.84   22.62   1
  -5  -5   3 1337.74   10.14   1
  -5 -13  -1   21.03    1.80   1
  -1  -6   4  513.17    8.60  -2
  -1  -6  -3  513.17    8.60   1
  -5  -9  -2   10.72    1.04   1
  -5  -5  -3   81.78    1.52   1
  -1  -2   5  337.45    8.52  -2
  -1  -2  -4  337.45    8.52   1
  -1  -2  -3  627.34   10.93  -2
  -1  -2   4  627.34   10.93   1
  -2 -16  -3  146.86    9.85  -2
  -2 -16   5  146.86    9.85   1
  -2 -12  -4  131.41    7.11  -2
  -2 -12   6  131.41    7.11   1
  -2  -8  -5  189.28    5.93  -2
  -2  -8   7  189.28    5.93   1
  -6  -7   7  184.07    2.77   1
  -5  -1   4 1488.10   12.49   1
  -5  -9   3  937.51   11.27   1
  -5 -13   2  553.29   10.38   1
  -5 -17   1  255.54   13.34   1
  -1 -14   3 1065.33   62.86  -2
  -1 -14  -2 1065.33   62.86   1
   0  -4   0 3655.79  112.37  -2
   0  -4   0 3655.79  112.37   1
  -1 -18   2  702.39   20.61  -2
  -1 -18  -1  702.39   20.61   1
  -1 -18   0  882.31    6.37  -2
  -1 -18   1  882.31    6.37   1
  -1 -22   1  546.16    4.37  -2
  -1 -22   0  546.16    4.37   1
  -1 -14  -1  987.42   19.19  -2
  -1 -14   2  987.42   19.19   1
  -1 -10  -2 1040.18   13.26  -2
  -1 -10   3 1040.18   13.26   1
  -1 -10   4  476.23   11.57  -2
  -1 -10  -3  476.23   11.57   1
  -4  -3   0  390.29    4.73   1
   0   0  -1 3245.96   50.49  -2
   0   0  -1 3245.96   50.49   1
  -1  -6   5  252.75   12.16  -2
  -1  -6  -4  252.75   12.16   1
  -1  -2   6  110.61    5.89  -2
  -1  -2  -5  110.61    5.89   1
  -1  -6  -3  329.41    8.01  -2
  -1  -6   4  329.41    8.01   1
  -1  -2  -4  161.54    5.34  -2
  -1  -2   5  161.54    5.34   1
  -2 -16  -4   86.04    2.18  -2
  -2 -16   6   86.04    2.18   1
  -2 -12  -5  167.72    4.22  -2
  -2 -12   7  167.72    4.22   1
  -5  -5   4  816.50    6.53   1
  -5  -1   5 1279.67   10.83   1
  -4  -7   0  102.52    2.30   1
  -5  -9   4  665.76    5.49   1
  -5 -13   3  652.12   11.91   1
  -5 -17   2  204.07    9.88   1
   0  -4  -1 6792.11  119.36  -2
   0  -4  -1 6792.11  119.36   1
  -1 -18   3  627.26   28.69  -2
  -1 -18  -2  627.26   28.69   1
   0  -8   0 3224.14   56.96  -2
   0  -8   0 3224.14   56.96   1
  -1 -22   2  413.05    7.51  -2
  -1 -22  -1  413.05    7.51   1
  -1 -14  -2  627.55   35.96  -2
  -1 -14   3  627.55   35.96   1
  -1 -22   0  458.77    4.21  -2
  -1 -22   1  458.77    4.21   1
  -1 -18  -1  535.99    6.46  -2
  -1 -18   2  535.99    6.46   1
  -1 -14   4  561.09   31.16  -2
  -1 -14  -3  561.09   31.16   1
  -4  -3   1  731.19    7.15   1
  -4  -3  -1   13.38    1.22   1
   0   0  -2  301.94    5.48  -2
   0   0  -2  301.94    5.48   1
  -1  -6   6  131.66    2.39  -2
  -1  -6  -5  131.66    2.39   1
  -1 -10   5  303.62   10.28  -2
  -1 -10  -4  303.62   10.28   1
  -1 -10  -3  246.86    6.14  -2
  -1 -10   4  246.86    6.14   1
  -1  -6  -4  114.59    5.17  -2
  -1  -6   5  114.59    5.17   1
  -5  -5   5  771.22    6.23   1
  -5  -1   6  334.04    4.23   1
  -1  -2   7  129.76    2.90  -2
  -1  -2  -6  129.76    2.90   1
  -1  -2  -5  120.49    4.86  -2
  -1  -2   6  120.49    4.86   1
  -4  -7   1  942.86    9.30   1
  -4  -7  -1    2.76    0.60   1
  -5  -9   5  617.47    6.45   1
  -4 -11   0   91.23    2.69   1
  -5 -13   4  489.11    4.30   1
  -5 -17   3  488.88   20.30   1
   0  -4  -2 3904.49   60.68  -2
   0  -4  -2 3904.49   60.68   1
   0  -8  -1 2820.18   76.56  -2
   0  -8  -1 2820.18   76.56   1
  -1 -22   3  346.94    6.06  -2
  -1 -22  -2  346.94    6.06   1
   0 -12   0 2534.58   38.92  -2
   0 -12   0 2534.58   38.92   1
  -1 -22  -1  257.00    4.89  -2
  -1 -22   2  257.00    4.89   1
  -1 -18  -2  428.27   26.27  -2
  -1 -18   3  428.27   26.27   1
  -1 -18   4  364.68   24.23  -2
  -1 -18  -3  364.68   24.23   1
  -4  -3   2 1404.01   15.51   1
  -4  -3  -2  177.64    3.02   1
   0   0  -3 2785.61   54.47  -2
   0   0  -3 2785.61   54.47   1
  -1 -10   6   45.25    2.01  -2
  -1 -10  -5   45.25    2.01   1
  -1  -6   7  109.22   17.93  -2
  -1  -6  -6  109.22   17.93   1
  -1 -14   5  141.56    8.16  -2
  -1 -14  -4  141.56    8.16   1
  -1 -10  -4  139.87    8.14  -2
  -1 -10   5  139.87    8.14   1
  -1 -14  -3  264.15   12.63  -2
  -1 -14   4  264.15   12.63   1
  -1  -6  -5  193.68    7.76  -2
  -1  -6   6  193.68    7.76   1
  -5  -5   6  567.06    7.22   1
  -5  -1   7  169.96    2.70   1
  -1  -2  -6  305.74   28.81  -2
  -1  -2   7  305.74   28.81   1
  -4  -7   2 1419.18   10.71   1
  -4 -11   1  138.46    3.38   1
  -4 -11  -1   46.77    2.09   1
  -4 -15   0   63.24    3.42   1
  -5 -13   5  554.27    4.83   1
  -5 -17   4  496.04    9.33   1
   0  -4  -3  757.40   17.42  -2
   0  -4  -3  757.40   17.42   1
   0  -8  -2 4076.38  119.10  -2
   0  -8  -2 4076.38  119.10   1
   0 -12  -1 2713.89   55.17  -2
   0 -12  -1 2713.89   55.17   1
   0 -16   0 1989.50   47.40  -2
   0 -16   0 1989.50   47.40   1
  -1 -22  -2  238.45   15.14  -2
  -1 -22   3  238.45   15.14   1
  -4  -3   3 1495.61   14.62   1
  -4  -7  -2   44.55    1.79   1
  -4  -3  -3  143.92    2.09   1
   0   0  -4  471.00   13.08  -2
   0   0  -4  471.00   13.08   1
  -1 -14   6   24.47    1.38  -2
  -1 -14  -5   24.47    1.38   1
  -1 -10   7   93.04    5.74  -2
  -1 -10  -6   93.04    5.74   1
  -1 -18   5   70.34    6.23  -2
  -1 -18  -4   70.34    6.23   1
  -1 -14  -4   64.11    2.70  -2
  -1 -14   5   64.11    2.70   1
  -1 -10  -5   44.24    2.40  -2
  -1 -10   6   44.24    2.40   1
  -1 -18  -3  195.89   28.46  -2
  -1 -18   4  195.89   28.46   1
  -1  -6  -6  233.43   14.37  -2
  -1  -6   7  233.43   14.37   1
  -5  -9   6  426.47    4.19   1
  -5  -5   7  169.31    2.22   1
  -8  -2   3   18.42    1.24   1
  -5  -1   8   67.63    1.69   1
  -4  -7   3  911.78    7.02   1
  -4 -11   2 1031.14   13.14   1
  -4 -15   1  199.78   10.15   1
  -4 -15  -1   21.72    1.14   1
  -4 -19   0   97.09    5.01   1
  -5 -17   5  182.81    6.99   1
   0  -8  -3 1632.46   59.49  -2
   0  -8  -3 1632.46   59.49   1
   0 -12  -2 1703.39   50.29  -2
   0 -12  -2 1703.39   50.29   1
   0 -16  -1 1215.49   14.78  -2
   0 -16  -1 1215.49   14.78   1
   0 -20   0 1000.38   10.77  -2
   0 -20   0 1000.38   10.77   1
  -4 -11  -2   29.45    1.05   1
  -3  -1   0   39.43    2.38   1
  -4  -7  -3  134.91    2.79   1
  -7   0   0  520.52    8.85   1
  -4  -3  -4  229.15    5.09   1
   0  -4  -4  567.56    6.44  -2
   0  -4  -4  567.56    6.44   1
  -1 -14  -5   27.80    1.33  -2
  -1 -14   6   27.80    1.33   1
  -1 -18  -4   41.92    3.95  -2
  -1 -18   5   41.92    3.95   1
  -1 -10  -6  172.37    7.11  -2
  -1 -10   7  172.37    7.11   1
  -5 -13   6  220.16    2.87   1
  -5  -9   7  145.63    3.32   1
  -4  -3   4 1537.86   12.85   1
  -8  -2   4  124.69    2.43   1
   0   0  -5  136.97    3.65  -2
   0   0  -5  136.97    3.65   1
  -3  -5   3  555.55   17.49  -2
  -3  -5   0  555.55   17.49   1
  -4  -7   4 1230.70    9.65   1
  -4 -11   3 1374.07   14.57   1
  -4 -15   2  423.47    8.71   1
  -4 -19   1  201.91   14.94   1
  -4 -19  -1    6.69    0.99   1
   0 -16  -2  811.68   21.12  -2
   0 -16  -2  811.68   21.12   1
   0 -20  -1  540.74    5.34  -2
   0 -20  -1  540.74    5.34   1
   0 -24   0  247.45    4.98  -2
   0 -24   0  247.45    4.98   1
   0 -12  -3  641.99   13.86  -2
   0 -12  -3  641.99   13.86   1
  -3  -5   0   37.34    1.60   1
  -4 -15  -2   18.53    1.04   1
  -3  -1   1  646.94    8.56   1
  -4 -11  -3  140.08    2.36   1
  -3  -1   4  782.24   28.08  -2
  -3  -1  -1  782.24   28.08   1
  -7  -4   0  384.05    6.23   1
  -7   0   1  169.05   12.45   1
  -4  -7  -4  218.59    4.61   1
   0  -8  -4   50.39    1.71  -2
   0  -8  -4   50.39    1.71   1
   0  -4  -5   47.88    1.83  -2
   0  -4  -5   47.88    1.83   1
  -4  -3   5 1628.90   21.45   1
  -8  -2   5  156.10    2.03   1
  -3  -1  -1   57.73    2.32   1
   0   0  -6   78.77    2.80  -2
   0   0  -6   78.77    2.80   1
  -4  -7   0 1226.60   25.34  -2
  -4  -7   4 1226.60   25.34   1
  -3  -5   4  613.96   14.99  -2
  -3  -5  -1  613.96   14.99   1
  -3  -9   3  335.09    5.30  -2
  -3  -9   0  335.09    5.30   1
  -4 -11   4  901.34   18.87   1
  -4 -15   3  747.60   29.11   1
  -4 -19   2  275.61   18.93   1
   0 -20  -2  485.99    9.22  -2
   0 -20  -2  485.99    9.22   1
   0 -24  -1  429.96    3.73  -2
   0 -24  -1  429.96    3.73   1
   0 -16  -3  559.52   14.99  -2
   0 -16  -3  559.52   14.99   1
  -4 -19   2  309.35    9.41  -2
  -4 -19   2  309.35    9.41   1
  -3  -9   0   31.09    1.33   1
  -3  -5   1  498.56    4.67   1
  -3  -1   2  893.20   10.34   1
  -3  -5  -1   14.84    1.70   1
  -7  -4   1  249.10    8.96   1
  -3  -1   5  359.24    8.70  -2
  -3  -1  -2  359.24    8.70   1
   0  -8  -5   24.15    1.74  -2
   0  -8  -5   24.15    1.74   1
   0 -12  -4  204.05    3.25  -2
   0 -12  -4  204.05    3.25   1
   0  -4  -6  112.69    5.07  -2
   0  -4  -6  112.69    5.07   1
  -4  -7  -1 1256.73   18.40  -2
  -4  -7   5 1256.73   18.40   1
  -4  -3   6  825.86   10.15   1
  -7   0   2   89.77    1.93   1
  -3  -5   2 1121.02   22.87  -2
  -3  -5   1 1121.02   22.87   1
   0   0  -7  475.66   64.49  -2
   0   0  -7  475.66   64.49   1
  -4  -7   5 1281.75   12.03   1
  -3  -1  -2  160.46    6.93   1
  -4 -15   1  794.02   17.22  -2
  -4 -15   3  794.02   17.22   1
  -4 -11   0  898.30   19.04  -2
  -4 -11   4  898.30   19.04   1
  -7  -8   1  257.49    4.78   1
  -3  -9   2  981.41   24.51  -2
  -3  -9   1  981.41   24.51   1
  -3  -9   4  531.04   12.18  -2
  -3  -9  -1  531.04   12.18   1
  -3 -13   3  432.83    6.26  -2
  -3 -13   0  432.83    6.26   1
  -4 -15   4  960.28   19.93   1
  -4 -19   3  373.49   20.23   1
   0 -24  -2  360.96    3.80  -2
   0 -24  -2  360.96    3.80   1
   0 -20  -3  452.93   20.81  -2
   0 -20  -3  452.93   20.81   1
  -4 -19   1  404.42   22.35  -2
  -4 -19   3  404.42   22.35   1
  -3  -9   1  607.57    7.98   1
  -3 -13   0   41.70    2.70   1
  -3  -5   2 1408.96   10.99   1
  -3  -1   3 2854.30   51.42   1
  -3  -9  -1   12.52    1.13   1
  -3  -5   5  666.49   70.77  -2
  -3  -5  -2  666.49   70.77   1
  -3  -1   6  888.56   30.82  -2
  -3  -1  -3  888.56   30.82   1
   0 -12  -5   15.32    0.97  -2
   0 -12  -5   15.32    0.97   1
   0  -8  -6   33.08    1.25  -2
   0  -8  -6   33.08    1.25   1
   0 -16  -4  120.83    3.74  -2
   0 -16  -4  120.83    3.74   1
  -4 -15   0  991.44   47.04  -2
  -4 -15   4  991.44   47.04   1
  -4 -11  -1  756.00   18.92  -2
  -4 -11   5  756.00   18.92   1
  -4  -7  -2  645.35    9.90  -2
  -4  -7   6  645.35    9.90   1
  -7  -4   2  126.85    2.04   1
  -7   0   3   33.21    1.19   1
  -3  -5   1 1626.48   22.42  -2
  -3  -5   2 1626.48   22.42   1
   0  -4  -7  162.01   11.12  -2
   0  -4  -7  162.01   11.12   1
  -4  -3   7  312.22    4.03   1
  -4  -7   6  662.26   10.01   1
  -4 -11   5  747.15    8.25   1
  -3  -5  -2  216.06   10.11   1
  -3  -1  -3  418.29   10.69   1
  -7  -8   2  105.21    2.65   1
  -3  -9   1 1167.81   11.95  -2
  -3  -9   2 1167.81   11.95   1
  -3 -13   2  366.83    8.13  -2
  -3 -13   1  366.83    8.13   1
  -3 -13   4  433.01   12.18  -2
  -3 -13  -1  433.01   12.18   1
  -3 -17   3  291.00   11.83  -2
  -3 -17   0  291.00   11.83   1
  -4 -19   4  386.05    9.69   1
  -3  -9   2  910.91   11.22   1
  -3  -5   3 1322.80   18.81   1
  -3 -13  -1    0.72    0.82   1
  -3  -9  -2  151.42    7.28   1
  -3  -5   6  662.15   28.11  -2
  -3  -5  -3  662.15   28.11   1
  -3  -1   7  752.73   20.75  -2
  -3  -1  -4  752.73   20.75   1
  -3  -9   5  672.94    8.33  -2
  -3  -9  -2  672.94    8.33   1
   0 -12  -6   43.23    1.28  -2
   0 -12  -6   43.23    1.28   1
   0 -16  -5   11.63    0.97  -2
   0 -16  -5   11.63    0.97   1
   0 -20  -4   36.42    2.54  -2
   0 -20  -4   36.42    2.54   1
  -4 -15  -1  360.25   20.64  -2
  -4 -15   5  360.25   20.64   1
  -4 -19   0  451.86   69.57  -2
  -4 -19   4  451.86   69.57   1
  -4 -11  -2  365.12    6.28  -2
  -4 -11   6  365.12    6.28   1
  -3 -13   1  203.98    6.05   1
  -3  -5   0 1317.13   11.99  -2
  -3  -5   3 1317.13   11.99   1
  -4  -7   7  250.12    4.06   1
  -3  -1  -1 2123.68   42.80  -2
  -3  -1   4 2123.68   42.80   1
  -3  -1   4 2226.49   53.59   1
  -7  -4   3   15.22    2.09   1
  -7   0   4   76.41    1.72   1
  -3 -17   0   40.61    2.89   1
  -4  -3   8   52.26    1.78   1
  -4 -11   6  353.89    4.41   1
  -4 -15   5  342.30    4.35   1
  -3  -5  -3  373.48   10.57   1
  -4  -7  -3  299.68   20.21  -2
  -4  -7   7  299.68   20.21   1
  -7 -12   2  101.76    2.47   1
  -3  -9   0  761.72    7.73  -2
  -3  -9   3  761.72    7.73   1
  -3 -13   1  484.14   11.94  -2
  -3 -13   2  484.14   11.94   1
  -3 -17   4  181.41   36.88  -2
  -3 -17  -1  181.41   36.88   1
  -3 -17   2  228.01    4.45  -2
  -3 -17   1  228.01    4.45   1
  -3 -21   3  122.54   10.77  -2
  -3 -21   0  122.54   10.77   1
  -2  -3   0  125.24    1.71   1
  -3 -13   5  272.21   15.31  -2
  -3 -13  -2  272.21   15.31   1
  -3  -9   6  531.31   38.27  -2
  -3  -9  -3  531.31   38.27   1
  -6  -2   0  512.62    7.12   1
  -2  -3   2  380.99   19.08  -2
  -2  -3   0  380.99   19.08   1
  -3  -5   7  536.72   37.86  -2
  -3  -5  -4  536.72   37.86   1
  -3  -1   8  583.59   10.98  -2
  -3  -1  -5  583.59   10.98   1
  -4 -19  -1  397.27   49.32  -2
  -4 -19   5  397.27   49.32   1
  -4 -15  -2  215.03    7.66  -2
  -4 -15   6  215.03    7.66   1
  -3  -5  -1 1592.66   18.74  -2
  -3  -5   4 1592.66   18.74   1
  -4 -11   7  216.60    8.68   1
  -3  -1  -2  753.27   25.66  -2
  -3  -1   5  753.27   25.66   1
  -7  -8   3    6.74    0.95   1
  -7  -4   4   30.32    1.39   1
  -7   0   5  129.31    2.36   1
  -3  -9  -3  379.54    8.70   1
  -3 -13  -2  105.62    3.95   1
  -3  -5   4 1616.40   25.88   1
  -3 -17  -1    1.64    0.92   1
  -3 -21   0    9.00    2.75   1
  -3 -17   1   83.55    7.38   1
  -3 -13   2  408.57   17.62   1
  -3  -9   3  770.61   37.83   1
  -3  -1   5  739.17   22.74   1
  -4 -15   6  203.51    4.25   1
  -4 -19   5  360.17    4.93   1
  -4 -11  -3  264.29    7.23  -2
  -4 -11   7  264.29    7.23   1
  -2  -3   3 1033.82   47.43  -2
  -2  -3  -1 1033.82   47.43   1
  -7  -8   4   46.05    1.07   1
  -7 -12   3    7.61    0.86   1
  -2  -7   2  307.65    3.00  -2
  -2  -7   0  307.65    3.00   1
  -3  -9   4 1383.86   12.93   1
  -3 -13   0 1006.26   30.89  -2
  -3 -13   3 1006.26   30.89   1
  -3 -17   1  388.05   20.17  -2
  -3 -17   2  388.05   20.17   1
  -3 -21   4  134.60   21.69  -2
  -3 -21  -1  134.60   21.69   1
  -3 -21   2  204.09   11.74  -2
  -3 -21   1  204.09   11.74   1
  -2  -3   1  890.14    8.93   1
  -3 -17   5  203.19   19.73  -2
  -3 -17  -2  203.19   19.73   1
  -3 -13   6  402.30   23.41  -2
  -3 -13  -3  402.30   23.41   1
  -6  -6   0  482.98    5.12   1
  -6  -2   1  473.28    6.39   1
  -2  -3   1 1245.57   18.99  -2
  -2  -3   1 1245.57   18.99   1
  -6  -2  -1  614.00    7.10   1
  -3  -9   7  365.10   19.71  -2
  -3  -9  -4  365.10   19.71   1
  -3  -5  -5  456.47   24.00   1
  -3  -5   8  491.34   19.99  -2
  -3  -5  -5  491.34   19.99   1
  -3  -9  -1 1371.15   14.14  -2
  -3  -9   4 1371.15   14.14   1
  -3  -5  -2 1552.08   16.21  -2
  -3  -5   5 1552.08   16.21   1
  -7  -4   5  116.81    2.08   1
  -7   0   6  352.07    4.96   1
  -2  -7   0   29.18    1.86   1
  -3  -9  -4  299.34    7.45   1
  -3 -13  -3  276.68    6.99   1
  -3  -5   5 1452.01   37.70   1
  -3 -17  -2   68.52    1.92   1
  -3 -21  -1    1.83    1.31   1
  -3 -21   1  117.13    3.17   1
  -3 -17   2  304.42   28.82   1
  -3 -13   3 1010.26   36.55   1
  -3  -1  -3 1616.12   27.65  -2
  -3  -1   6 1616.12   27.65   1
  -2  -3  -1  266.50    6.26   1
  -6  -6   1  556.98    6.21   1
  -7  -8   5  217.02    3.46   1
  -2  -3   4  782.00   37.00  -2
  -2  -3  -2  782.00   37.00   1
  -7 -12   4   32.55    1.17   1
  -2  -7   1  933.08   10.55  -2
  -2  -7   1  933.08   10.55   1
  -2  -7   3  306.93    9.32  -2
  -2  -7  -1  306.93    9.32   1
  -2 -11   2  181.66    3.47  -2
  -2 -11   0  181.66    3.47   1
  -3 -13   4 1170.42   53.55   1
  -3 -17   0  668.01   49.01  -2
  -3 -17   3  668.01   49.01   1
  -3 -21   1  211.43   12.11  -2
  -3 -21   2  211.43   12.11   1
  -2  -3   0  725.39    6.04  -2
  -2  -3   2  725.39    6.04   1
  -3 -17   6  206.89   10.88  -2
  -3 -17  -3  206.89   10.88   1
  -6 -10   0  364.43    7.86   1
  -6  -2   2  283.13    2.91   1
  -6  -6  -1  370.97    4.21   1
  -3 -13   7  326.13   13.55  -2
  -3 -13  -4  326.13   13.55   1
  -3 -13  -1 1186.29   71.07  -2
  -3 -13   4 1186.29   71.07   1
  -3  -9  -2 1445.69   18.31  -2
  -3  -9   5 1445.69   18.31   1
  -3  -5  -3 1020.84   14.17  -2
  -3  -5   6 1020.84   14.17   1
  -7  -4   6  480.65    4.92   1
  -7   0   7  766.93   11.70   1
  -3 -13  -4  258.43    6.93   1
  -3 -17  -3  136.11    4.70   1
  -3  -9   5 1327.36   37.12   1
  -2 -11   0   18.23    1.26   1
  -2  -7   1  652.31    7.82   1
  -2  -3   2  695.08   11.93   1
  -3 -17   3  558.41   17.39   1
  -3 -21   2  146.88    6.73   1
  -3  -1  -4  984.28   12.00  -2
  -3  -1   7  984.28   12.00   1
  -3  -5   6  867.73   13.07   1
  -2  -7  -1   54.63    2.18   1
  -2  -3  -2  303.60    7.98   1
  -7  -8   6  206.43    4.75   1
  -6 -10   1  190.87    3.60   1
  -2  -7   0  702.04    5.49  -2
  -2  -7   2  702.04    5.49   1
  -2  -7   4  728.50   44.11  -2
  -2  -7  -2  728.50   44.11   1
  -2 -11   3  360.76   12.02  -2
  -2 -11  -1  360.76   12.02   1
  -2 -11   1  379.86    8.18  -2
  -2 -11   1  379.86    8.18   1
  -2 -15   2  172.71    6.67  -2
  -2 -15   0  172.71    6.67   1
  -3 -21   3  267.83   12.77   1
  -3 -17   4  603.76    5.71   1
  -2  -3  -1 2233.45   36.50  -2
  -2  -3   3 2233.45   36.50   1
  -6  -6   2  105.42    2.10   1
  -6 -10  -1  493.29    6.02   1
  -2  -3   5  641.82   36.89  -2
  -2  -3  -3  641.82   36.89   1
  -3 -13  -2  532.68   14.39  -2
  -3 -13   5  532.68   14.39   1
  -3 -17  -1  623.31   43.89  -2
  -3 -17   4  623.31   43.89   1
  -3  -9  -3  714.77    7.95  -2
  -3  -9   6  714.77    7.95   1
  -3  -5  -4  590.05    7.23  -2
  -3  -5   7  590.05    7.23   1
  -6  -2   3   22.06    2.03   1
  -2  -3   3 2247.86   73.79   1
  -3 -13   5  477.82    6.23   1
  -2 -15   0   45.29    2.72   1
  -2 -11   1  256.55    4.14   1
  -2  -7   2  721.88   25.87   1
  -3  -1  -5  310.55   14.95  -2
  -3  -1   8  310.55   14.95   1
  -3  -1   8   64.34    3.73   1
  -3 -21   0  343.12   20.98  -2
  -3 -21   3  343.12   20.98   1
  -3  -5   7  416.17    9.72   1
  -3  -9   6  556.44   12.38   1
  -6 -10   2  161.62    3.40   1
  -6 -14   1  219.38    5.72   1
  -2 -11   4  597.73   14.51  -2
  -2 -11  -2  597.73   14.51   1
  -2 -11   0  444.41   20.63  -2
  -2 -11   2  444.41   20.63   1
  -2 -15   3  384.17   11.96  -2
  -2 -15  -1  384.17   11.96   1
  -2 -15   1  210.32    9.45  -2
  -2 -15   1  210.32    9.45   1
  -2 -19   2  115.56    7.57  -2
  -2 -19   0  115.56    7.57   1
  -3 -21   4  364.21   11.43   1
  -2  -7  -1  753.94   10.05  -2
  -2  -7   3  753.94   10.05   1
  -1  -1   1  410.59    3.73  -2
  -1  -1   0  410.59    3.73   1
  -2  -7   5 1241.61   55.21  -2
  -2  -7  -3 1241.61   55.21   1
  -5   0   0  808.75    8.57   1
  -2  -3   6 1037.59   16.19  -2
  -2  -3  -4 1037.59   16.19   1
  -3 -17  -2  459.51   18.22  -2
  -3 -17   5  459.51   18.22   1
  -3 -13  -3  551.48   11.12  -2
  -3 -13   6  551.48   11.12   1
  -3 -21  -1  384.71   14.48  -2
  -3 -21   4  384.71   14.48   1
  -2  -3  -2 1614.21   36.47  -2
  -2  -3   4 1614.21   36.47   1
  -3  -9  -4  341.14    5.14  -2
  -3  -9   7  341.14    5.14   1
  -6  -6   3   22.90    1.61   1
  -6  -2   4   45.64    2.27   1
  -2  -7   3  738.78   21.66   1
  -1  -1   0  405.66    5.55   1
  -3 -17   5  401.27   10.25   1
  -2 -15   1  104.48   12.22   1
  -2 -11   2  401.56    5.38   1
  -3  -9   7  223.47    6.01   1
  -3 -13   6  441.48   10.47   1
  -6 -10   3   47.38    1.04   1
  -6 -14   2   81.28    2.70   1
  -1  -5   1  183.39    2.35  -2
  -1  -5   0  183.39    2.35   1
  -2 -15   4  305.62    6.84  -2
  -2 -15  -2  305.62    6.84   1
  -2 -19   3  117.20   13.12  -2
  -2 -19  -1  117.20   13.12   1
  -2 -11  -1  964.17   29.63  -2
  -2 -11   3  964.17   29.63   1
  -2 -15   0  334.79   12.65  -2
  -2 -15   2  334.79   12.65   1
  -2 -19   1  192.22    5.97  -2
  -2 -19   1  192.22    5.97   1
  -2 -23   2   35.26    1.45  -2
  -2 -23   0   35.26    1.45   1
  -1  -1   0  203.13    3.89  -2
  -1  -1   1  203.13    3.89   1
  -2 -11   5  715.10   33.32  -2
  -2 -11  -3  715.10   33.32   1
  -5  -4   0  667.16    6.12   1
  -1  -1   2 1229.23   43.91  -2
  -1  -1  -1 1229.23   43.91   1
  -5   0   1  472.46    6.78   1
  -5   0  -1  899.58   11.08   1
  -2  -7   6  630.64   22.12  -2
  -2  -7  -4  630.64   22.12   1
  -2  -3   7  917.85   20.80  -2
  -2  -3  -5  917.85   20.80   1
  -2  -7  -2 1529.21   15.92  -2
  -2  -7   4 1529.21   15.92   1
  -3 -17  -3  291.15    7.04  -2
  -3 -17   6  291.15    7.04   1
  -2  -3  -3 1025.57   18.27  -2
  -2  -3   5 1025.57   18.27   1
  -3 -13  -4  351.36    4.68  -2
  -3 -13   7  351.36    4.68   1
  -6  -6   4    1.05    0.59   1
  -6  -2   5   93.07    2.93   1
  -2  -7   4 1421.23   28.84   1
  -3 -17   6  217.01    6.42   1
  -1  -5   0   96.08    3.23   1
  -1  -1   1   28.17    0.52   1
  -2 -15   2  284.10   11.29   1
  -2 -11   3  900.96   18.85   1
  -2 -19   1  127.33    4.20   1
  -1  -1   3 1968.63   86.35  -2
  -1  -1  -2 1968.63   86.35   1
  -5  -8   0  780.46   10.53   1
  -6 -10   4    1.74    0.58   1
  -6 -14   3   30.80    1.00   1
  -1  -5   2  331.82   15.61  -2
  -1  -5  -1  331.82   15.61   1
  -1  -5   0  265.28    5.61  -2
  -1  -5   1  265.28    5.61   1
  -1  -9   1  408.92    8.89  -2
  -1  -9   0  408.92    8.89   1
  -2 -23   3  139.75    5.87  -2
  -2 -23  -1  139.75    5.87   1
  -2 -19   0  225.75    3.85  -2
  -2 -19   2  225.75    3.85   1
  -2 -15  -1  881.34    9.96  -2
  -2 -15   3  881.34    9.96   1
  -2 -23   1  108.30    1.97  -2
  -2 -23   1  108.30    1.97   1
  -2 -19   4  303.95    7.77  -2
  -2 -19  -2  303.95    7.77   1
  -2 -15   5  430.80   12.66  -2
  -2 -15  -3  430.80   12.66   1
  -5  -4   1  893.63    6.60   1
  -5   0   2  341.96    6.66   1
  -5  -4  -1  603.48    7.30   1
  -2 -11   6  570.56   33.42  -2
  -2 -11  -4  570.56   33.42   1
  -5   0  -2  632.77    8.22   1
  -2  -7   7  402.38    9.17  -2
  -2  -7  -5  402.38    9.17   1
  -2 -11  -2 1307.58   43.52  -2
  -2 -11   4 1307.58   43.52   1
  -2  -7  -3 1907.86   27.83  -2
  -2  -7   5 1907.86   27.83   1
  -1  -1  -1 2753.34   74.99  -2
  -1  -1   2 2753.34   74.99   1
  -6  -6   5  157.60    1.65   1
  -6  -2   6  288.29    3.70   1
  -2  -3  -4 1431.22   26.35  -2
  -2  -3   6 1431.22   26.35   1
  -1  -9   0  155.89    3.82   1
  -1  -5   1  209.74    3.15   1
  -2 -11   4 1162.56   24.10   1
  -2 -15   3  804.19   17.63   1
  -2 -19   2  180.76    5.46   1
  -6  -6   6  208.43    2.52   1
  -5  -8   1  506.67    7.32   1
  -6 -10   5  144.80    2.44   1
  -5 -12   0  416.70    8.11   1
  -6 -14   4    1.58    0.87   1
  -1  -5   3 1015.80   68.15  -2
  -1  -5  -2 1015.80   68.15   1
  -1  -1  -2 4354.95  157.84  -2
  -1  -1   3 4354.95  157.84   1
  -1  -9   2  342.99   12.56  -2
  -1  -9  -1  342.99   12.56   1
  -1  -9   0  736.08   22.34  -2
  -1  -9   1  736.08   22.34   1
  -1 -13   1  349.16   17.45  -2
  -1 -13   0  349.16   17.45   1
  -2 -23   0   65.30    1.31  -2
  -2 -23   2   65.30    1.31   1
  -2 -19  -1  230.02    5.00  -2
  -2 -19   3  230.02    5.00   1
  -1  -5  -1  934.60   14.42  -2
  -1  -5   2  934.60   14.42   1
  -2 -19   5  315.67    8.84  -2
  -2 -19  -3  315.67    8.84   1
  -5  -4   2  256.73    3.41   1
  -2 -15   6  483.55   20.82  -2
  -2 -15  -4  483.55   20.82   1
  -5  -8  -1  447.28    4.48   1
  -5  -4  -2  673.50    6.35   1
  -5   0  -3  341.24   10.33   1
  -1  -1   4  670.12    8.36  -2
  -1  -1  -3  670.12    8.36   1
  -2 -11   7  475.27   37.96  -2
  -2 -11  -5  475.27   37.96   1
  -2 -11  -3  860.13   28.06  -2
  -2 -11   5  860.13   28.06   1
  -2 -15  -2  551.96    8.69  -2
  -2 -15   4  551.96    8.69   1
  -2  -7  -4  752.12    8.09  -2
  -2  -7   6  752.12    8.09   1
  -6  -2   7  478.95    6.38   1
  -5   0   3  121.75    1.91   1
  -2  -3  -5  812.81   17.16  -2
  -2  -3   7  812.81   17.16   1
  -2 -11   5  664.44   14.29   1
  -2 -15   4  504.62   11.47   1
  -5  -8   2  208.11    3.02   1
  -5 -12   1  293.74    4.74   1
  -6 -10   6  228.21    2.88   1
  -6 -14   5  103.81    1.82   1
  -5 -16   0  321.48   11.78   1
  -1  -9   3  706.07   19.88  -2
  -1  -9  -2  706.07   19.88   1
  -1 -13   2  543.14   11.82  -2
  -1 -13  -1  543.14   11.82   1
  -1 -13   0  477.66   12.88  -2
  -1 -13   1  477.66   12.88   1
  -1 -17   1   39.66    1.82  -2
  -1 -17   0   39.66    1.82   1
  -1  -9  -1  759.29   13.08  -2
  -1  -9   2  759.29   13.08   1
  -1  -5  -2 2235.99   48.69  -2
  -1  -5   3 2235.99   48.69   1
  -2 -23  -1  262.80    3.05  -2
  -2 -23   3  262.80    3.05   1
  -2 -19  -2  441.51   12.18  -2
  -2 -19   4  441.51   12.18   1
  -5 -12  -1  560.16    5.34   1
  -5  -8  -2  439.14    6.69   1
  -1  -5   4 1824.25   36.90  -2
  -1  -5  -3 1824.25   36.90   1
  -5  -4  -3  319.00    4.84   1
  -1  -1   5 1891.80   19.19  -2
  -1  -1  -4 1891.80   19.19   1
  -1  -1  -3 1129.38   44.69  -2
  -1  -1   4 1129.38   44.69   1
  -2 -15  -3  559.41   10.33  -2
  -2 -15   5  559.41   10.33   1
  -2 -11  -4  613.14   10.71  -2
  -2 -11   6  613.14   10.71   1
  -2  -7  -5  319.86    5.58  -2
  -2  -7   7  319.86    5.58   1
  -6  -6   7  322.72    4.09   1
  -5  -4   3   27.02    0.81   1
  -5   0   4   65.62    2.07   1
  -5  -8   3   53.94    1.74   1
  -5 -12   2  105.34    1.28   1
  -5 -16   1  172.67    4.48   1
  -1 -13   3  632.66   13.20  -2
  -1 -13  -2  632.66   13.20   1
   0  -3   0   16.47    0.84  -2
   0  -3   0   16.47    0.84   1
  -1 -17   2  185.38   18.92  -2
  -1 -17  -1  185.38   18.92   1
  -1 -17   0   94.52    1.89  -2
  -1 -17   1   94.52    1.89   1
  -1 -21   1   62.34    1.01  -2
  -1 -21   0   62.34    1.01   1
  -1 -13  -1  722.06    6.26  -2
  -1 -13   2  722.06    6.26   1
  -1  -9  -2 1139.75   35.46  -2
  -1  -9   3 1139.75   35.46   1
  -1  -9   4 1272.04   41.44  -2
  -1  -9  -3 1272.04   41.44   1
  -4  -2   0 1050.18    7.09   1
  -5 -12  -2  432.98    5.42   1
  -1  -1   6 1494.95   15.39  -2
  -1  -1  -5 1494.95   15.39   1
  -1  -5   5 1482.03   17.57  -2
  -1  -5  -4 1482.03   17.57   1
  -1  -5  -3 2510.43   63.38  -2
  -1  -5   4 2510.43   63.38   1
  -2 -15  -4  600.95   10.45  -2
  -2 -15   6  600.95   10.45   1
  -2 -19  -3  449.24    7.96  -2
  -2 -19   5  449.24    7.96   1
  -2 -11  -5  431.48    5.36  -2
  -2 -11   7  431.48    5.36   1
  -5  -4   4   21.25    0.50   1
  -5   0   5  204.63    6.56   1
  -1  -1  -4 1909.41   62.22  -2
  -1  -1   5 1909.41   62.22   1
  -4  -6   0 1659.43   10.76   1
  -5  -8   4   35.99    1.47   1
  -5 -12   3   75.13    2.30   1
  -5 -16   2   73.93    1.99   1
   0  -3  -1  893.62   16.96  -2
   0  -3  -1  893.62   16.96   1
  -1 -17   3  380.26   13.00  -2
  -1 -17  -2  380.26   13.00   1
   0  -7   0    2.63    0.56  -2
   0  -7   0    2.63    0.56   1
  -1 -21   2   70.11    3.30  -2
  -1 -21  -1   70.11    3.30   1
  -1 -13  -2  860.76   12.63  -2
  -1 -13   3  860.76   12.63   1
  -1 -21   0   38.75    0.99  -2
  -1 -21   1   38.75    0.99   1
  -1 -17  -1  402.71    9.88  -2
  -1 -17   2  402.71    9.88   1
  -1 -13   4  391.83   20.74  -2
  -1 -13  -3  391.83   20.74   1
  -4  -2   1 1331.76    9.80   1
  -4  -2  -1 1103.57    9.53   1
  -1  -5   6  809.58   10.05  -2
  -1  -5  -5  809.58   10.05   1
  -1  -9   5 1109.76   11.64  -2
  -1  -9  -4 1109.76   11.64   1
  -1  -1   7  632.62   26.46  -2
  -1  -1  -6  632.62   26.46   1
  -1  -9  -3 1708.71   40.64  -2
  -1  -9   4 1708.71   40.64   1
  -1  -5  -4 1588.86   37.26  -2
  -1  -5   5 1588.86   37.26   1
  -5  -4   5  130.46    4.64   1
  -5   0   6  437.70   10.79   1
  -1  -1  -5 1558.67   59.97  -2
  -1  -1   6 1558.67   59.97   1
  -4  -6   1  712.06    7.13   1
  -4  -6  -1 1289.47    9.35   1
  -5  -8   5  100.66    2.87   1
  -4 -10   0 1394.80   17.02   1
  -5 -12   4    1.15    0.48   1
  -5 -16   3   34.49    1.43   1
   0  -3  -2 1806.47   32.68  -2
   0  -3  -2 1806.47   32.68   1
   0  -7  -1  116.26    2.87  -2
   0  -7  -1  116.26    2.87   1
  -1 -21   3  281.95   18.54  -2
  -1 -21  -2  281.95   18.54   1
   0 -11   0    1.70    0.27  -2
   0 -11   0    1.70    0.27   1
  -1 -21  -1  138.82    1.69  -2
  -1 -21   2  138.82    1.69   1
  -1 -17  -2  539.94    8.15  -2
  -1 -17   3  539.94    8.15   1
  -1 -17   4  566.59   22.39  -2
  -1 -17  -3  566.59   22.39   1
  -4  -2   2 1060.41   10.63   1
  -4  -2  -2 1353.50   21.30   1
  -1  -9   6  614.80   13.40  -2
  -1  -9  -5  614.80   13.40   1
  -1 -13   5  879.35   26.86  -2
  -1 -13  -4  879.35   26.86   1
  -1  -5   7  666.34   17.93  -2
  -1  -5  -6  666.34   17.93   1
  -1  -9  -4 1451.56   39.13  -2
  -1  -9   5 1451.56   39.13   1
  -1 -13  -3  628.61   15.43  -2
  -1 -13   4  628.61   15.43   1
  -1  -5  -5  845.82   18.06  -2
  -1  -5   6  845.82   18.06   1
  -5  -4   6  216.76    3.76   1
  -1  -1  -6  625.40   23.85  -2
  -1  -1   7  625.40   23.85   1
  -5   0   7  402.82    6.82   1
  -4 -10   1  790.04    8.89   1
  -4 -10  -1  753.18   10.84   1
  -4 -14   0  555.16   12.57   1
  -5 -12   5  151.78    2.03   1
  -5 -16   4    0.50    0.58   1
   0  -3  -3 1767.78   37.60  -2
   0  -3  -3 1767.78   37.60   1
   0  -7  -2 1131.77   29.21  -2
   0  -7  -2 1131.77   29.21   1
   0 -11  -1  437.76   10.55  -2
   0 -11  -1  437.76   10.55   1
   0 -15   0    6.04    1.03  -2
   0 -15   0    6.04    1.03   1
  -1 -21  -2  420.67   12.53  -2
  -1 -21   3  420.67   12.53   1
  -1 -21   4  249.24   13.87  -2
  -1 -21  -3  249.24   13.87   1
  -4  -6   2  601.02    6.47   1
  -4  -2   3  284.46    5.50   1
  -4  -6  -2  603.17   11.76   1
  -4  -2  -3  650.91    9.12   1
  -1 -13   6  720.82    9.44  -2
  -1 -13  -5  720.82    9.44   1
  -1  -9   7  646.57   19.43  -2
  -1  -9  -6  646.57   19.43   1
  -1 -17   5  459.51   26.19  -2
  -1 -17  -4  459.51   26.19   1
  -1 -13  -4 1031.89   18.28  -2
  -1 -13   5 1031.89   18.28   1
  -1  -9  -5  690.90   32.76  -2
  -1  -9   6  690.90   32.76   1
  -1 -17  -3  597.09   18.26  -2
  -1 -17   4  597.09   18.26   1
  -5  -8   6  146.86    4.13   1
  -5  -4   7  505.01    4.70   1
  -8  -1   3  630.36    5.88   1
  -1  -5  -6  642.01   29.56  -2
  -1  -5   7  642.01   29.56   1
  -5   0   8  386.15    6.90   1
  -4 -10   2  131.96    1.86   1
  -4 -14   1  363.57   11.57   1
  -4 -14  -1  691.43   13.48   1
  -4 -18   0  418.68   16.73   1
  -5 -16   5   30.91    1.73   1
   0  -7  -3 1936.38   61.42  -2
   0  -7  -3 1936.38   61.42   1
   0 -11  -2  777.91   28.00  -2
   0 -11  -2  777.91   28.00   1
   0 -15  -1  161.40    2.68  -2
   0 -15  -1  161.40    2.68   1
   0 -19   0    2.54    0.64  -2
   0 -19   0    2.54    0.64   1
  -1 -21  -3  322.74   20.92  -2
  -1 -21   4  322.74   20.92   1
  -4  -6   3  116.08    2.35   1
  -4 -10  -2  576.19    7.04   1
  -3   0   0 1688.87   16.70   1
  -4  -6  -3  497.81    5.22   1
  -4  -2  -4  175.13    2.44   1
   0  -3  -4 2337.95   49.98  -2
   0  -3  -4 2337.95   49.98   1
  -1 -13  -5  739.41   12.47  -2
  -1 -13   6  739.41   12.47   1
  -1 -17  -4  560.36   14.13  -2
  -1 -17   5  560.36   14.13   1
  -1  -9  -6  530.75   21.59  -2
  -1  -9   7  530.75   21.59   1
  -5 -12   6  207.38    2.65   1
  -5  -8   7  387.86    7.31   1
  -4  -2   4   43.08    5.51   1
  -8  -1   4  382.85    4.25   1
  -5  -4   8  448.67    6.51   1
  -4 -10   3  212.34    3.47   1
  -4 -14   2  519.80   10.21   1
  -4 -18   1  421.23   14.21   1
  -4 -18  -1  318.05    8.62   1
   0 -11  -3 1081.38   25.03  -2
   0 -11  -3 1081.38   25.03   1
   0 -15  -2  922.00   27.89  -2
   0 -15  -2  922.00   27.89   1
   0 -19  -1   91.81    1.71  -2
   0 -19  -1   91.81    1.71   1
   0 -23   0    3.18    0.91  -2
   0 -23   0    3.18    0.91   1
  -3  -4   0 1993.74   17.04   1
  -4 -14  -2  465.54   11.34   1
  -3   0   1 3003.35   40.07   1
  -4 -10  -3  393.15    8.50   1
  -3   0   4 1624.78   23.31  -2
  -3   0  -1 1624.78   23.31   1
  -7  -3   0  166.02    2.77   1
  -3  -4   3 2220.37   98.60  -2
  -3  -4   0 2220.37   98.60   1
  -4  -6  -4  233.56    5.76   1
   0  -7  -4 2155.75   37.17  -2
   0  -7  -4 2155.75   37.17   1
   0  -3  -5 2025.91   83.34  -2
   0  -3  -5 2025.91   83.34   1
  -4  -6   4    4.00    0.70   1
  -4  -2   5  215.73    8.18   1
  -8  -5   4  453.95    4.73   1
  -8  -1   5  306.82    3.25   1
  -3   0  -1 1603.72   16.33   1
  -4  -6   0  760.43   15.92  -2
  -4  -6   4  760.43   15.92   1
  -3  -4   4 2025.31   20.52  -2
  -3  -4  -1 2025.31   20.52   1
  -3  -8   3 1842.65   21.64  -2
  -3  -8   0 1842.65   21.64   1
  -4 -10   4   12.90    1.84   1
  -4 -14   3   50.07    1.88   1
  -4 -18   2   88.90    5.33   1
   0 -19  -2  280.33    4.87  -2
   0 -19  -2  280.33    4.87   1
   0 -23  -1   23.24    0.78  -2
   0 -23  -1   23.24    0.78   1
   0 -15  -3  504.60   25.30  -2
   0 -15  -3  504.60   25.30   1
  -3  -8   0 1687.50   14.84   1
  -3  -4   1 1241.78    9.18   1
  -3   0   2 1386.50   27.88   1
  -3  -4  -1 2034.49   36.85   1
  -7  -3   1  387.98    7.32   1
  -3   0   5 1707.31   38.61  -2
  -3   0  -2 1707.31   38.61   1
   0  -7  -5 1252.62   18.07  -2
   0  -7  -5 1252.62   18.07   1
   0 -11  -4 1343.35   14.19  -2
   0 -11  -4 1343.35   14.19   1
   0  -3  -6 1031.08   53.21  -2
   0  -3  -6 1031.08   53.21   1
  -4  -6   5    9.20    1.20   1
  -4  -2   6  276.05    7.76   1
  -3  -4   2 1983.43   40.09  -2
  -3  -4   1 1983.43   40.09   1
  -3   0  -2 1800.81  182.26   1
  -4 -14   1  203.06    5.33  -2
  -4 -14   3  203.06    5.33   1
  -4 -10   0  643.21   13.93  -2
  -4 -10   4  643.21   13.93   1
  -4  -6  -1  585.81   12.53  -2
  -4  -6   5  585.81   12.53   1
  -7  -7   1  318.79    4.26   1
  -3  -8   2 1604.42   29.45  -2
  -3  -8   1 1604.42   29.45   1
  -3  -8   4 1731.40   53.93  -2
  -3  -8  -1 1731.40   53.93   1
  -3 -12   3 1453.97   34.49  -2
  -3 -12   0 1453.97   34.49   1
  -4 -14   4   11.50    0.84   1
  -4 -18   3   45.60    3.13   1
   0 -23  -2  150.67    4.88  -2
   0 -23  -2  150.67    4.88   1
   0 -19  -3  450.76   18.10  -2
   0 -19  -3  450.76   18.10   1
  -3  -8   1 1205.63    9.84   1
  -3 -12   0 1329.66   24.42   1
  -3  -4   2 1648.47   16.82   1
  -3  -8  -1 1690.28   19.77   1
  -3   0   3  474.45   23.81   1
  -3  -4   5 1180.63   34.41  -2
  -3  -4  -2 1180.63   34.41   1
  -3   0   6  937.00   13.83  -2
  -3   0  -3  937.00   13.83   1
   0 -11  -5  994.88   40.94  -2
   0 -11  -5  994.88   40.94   1
   0 -15  -4  605.79   23.45  -2
   0 -15  -4  605.79   23.45   1
   0  -7  -6  807.20   33.32  -2
   0  -7  -6  807.20   33.32   1
  -4 -14   0  263.30   10.46  -2
  -4 -14   4  263.30   10.46   1
  -4 -10  -1  465.33    6.06  -2
  -4 -10   5  465.33    6.06   1
  -4  -6   6  337.09    7.91   1
  -7  -3   2  618.50    6.25   1
  -3  -4   1 2209.00   44.50  -2
  -3  -4   2 2209.00   44.50   1
   0  -3  -7  600.66   65.34  -2
   0  -3  -7  600.66   65.34   1
  -4  -2   7  331.81    5.31   1
  -4 -10   5  129.50    1.99   1
  -3  -4  -2 1113.51   31.57   1
  -3   0  -3  774.96   17.89   1
  -4 -18   1  213.16    6.38  -2
  -4 -18   3  213.16    6.38   1
  -4  -6  -2  601.31   13.13  -2
  -4  -6   6  601.31   13.13   1
  -7  -7   2  449.89    5.28   1
  -3  -8   1 1500.00   15.23  -2
  -3  -8   2 1500.00   15.23   1
  -3 -12   2 1274.76   15.17  -2
  -3 -12   1 1274.76   15.17   1
  -3 -12   4  816.70   20.80  -2
  -3 -12  -1  816.70   20.80   1
  -3 -16   3  670.32   22.47  -2
  -3 -16   0  670.32   22.47   1
  -4 -18   4    7.27    1.27   1
  -3  -8   2  978.57   12.05   1
  -3 -12   1 1015.56   15.09   1
  -3  -4   3  629.48    9.25   1
  -3 -12  -1  811.60   28.09   1
  -3  -8   5  699.85   12.14  -2
  -3  -8  -2  699.85   12.14   1
  -3  -4   6  696.11   21.20  -2
  -3  -4  -3  696.11   21.20   1
  -3   0   7  195.86    8.25  -2
  -3   0  -4  195.86    8.25   1
   0 -15  -5  964.87   22.18  -2
   0 -15  -5  964.87   22.18   1
   0 -11  -6  690.77   16.07  -2
   0 -11  -6  690.77   16.07   1
   0 -19  -4  437.67    8.61  -2
   0 -19  -4  437.67    8.61   1
  -4 -14  -1  302.58    5.46  -2
  -4 -14   5  302.58    5.46   1
  -4 -18   0  183.14    5.34  -2
  -4 -18   4  183.14    5.34   1
  -4 -10  -2  421.67    5.66  -2
  -4 -10   6  421.67    5.66   1
  -4  -6   7  611.75    7.03   1
  -3   0  -1  950.61   19.30  -2
  -3   0   4  950.61   19.30   1
  -7  -3   3  653.48    5.94   1
  -3  -4   0 1517.46   26.86  -2
  -3  -4   3 1517.46   26.86   1
  -3  -8  -2  676.18   29.25   1
  -3 -16   0  665.49   60.39   1
  -4  -2   8  512.13    8.31   1
  -4 -10   6  160.19    2.78   1
  -3   0   4  257.66    4.18   1
  -4 -14   5    6.55    1.18   1
  -3  -4  -3  563.94   14.46   1
  -7  -7   3  836.27    7.12   1
  -7 -11   2  482.13   10.46   1
  -3  -8   0 1036.54   17.64  -2
  -3  -8   3 1036.54   17.64   1
  -3 -12   1 1019.48   20.24  -2
  -3 -12   2 1019.48   20.24   1
  -3 -16   4  776.79   28.28  -2
  -3 -16  -1  776.79   28.28   1
  -3 -16   2  859.29   34.26  -2
  -3 -16   1  859.29   34.26   1
  -3 -20   3  662.71   74.13  -2
  -3 -20   0  662.71   74.13   1
  -3 -12  -2  574.43   12.37   1
  -2  -2   0 1682.41   22.03   1
  -3  -8   6  578.84   17.16  -2
  -3  -8  -3  578.84   17.16   1
  -6  -1   0  237.62    3.21   1
  -2  -2   2 2304.53   59.56  -2
  -2  -2   0 2304.53   59.56   1
  -3  -4   7  292.19   15.37  -2
  -3  -4  -4  292.19   15.37   1
  -3   0   8  192.83   20.44  -2
  -3   0  -5  192.83   20.44   1
  -3 -12   5  579.33   12.22  -2
  -3 -12  -2  579.33   12.22   1
  -4 -18  -1  176.67   13.94  -2
  -4 -18   5  176.67   13.94   1
  -4 -14  -2  424.06    9.22  -2
  -4 -14   6  424.06    9.22   1
  -4 -10   7  336.05    5.11   1
  -3  -4  -1  957.65   11.41  -2
  -3  -4   4  957.65   11.41   1
  -7  -3   4  996.21    8.71   1
  -3  -4   4   27.26    1.49   1
  -3 -16  -1  766.92   22.56   1
  -3 -20   0  506.18   11.60   1
  -3 -16   1  686.36   57.70   1
  -3 -12   2  588.25   20.03   1
  -3  -8   3  313.08   11.13   1
  -3   0   5  179.28    4.76   1
  -4 -14   6  217.75    3.69   1
  -4 -18   5   35.54    2.35   1
  -4 -10  -3  490.57   11.46  -2
  -4 -10   7  490.57   11.46   1
  -3   0  -2  923.78   19.28  -2
  -3   0   5  923.78   19.28   1
  -7  -7   4  617.12    6.26   1
  -7 -11   3  444.15    7.22   1
  -2  -6   2 1984.68   24.52  -2
  -2  -6   0 1984.68   24.52   1
  -3  -8   4   69.68    2.84   1
  -3 -12   0  788.51   25.05  -2
  -3 -12   3  788.51   25.05   1
  -3 -16   1  760.10   25.95  -2
  -3 -16   2  760.10   25.95   1
  -3 -20   4  319.27   23.75  -2
  -3 -20  -1  319.27   23.75   1
  -3 -20   2  495.29   30.94  -2
  -3 -20   1  495.29   30.94   1
  -2  -6   0 1621.32   16.52   1
  -2  -2   1 2774.82   25.92   1
  -3 -16   5  377.47   15.94  -2
  -3 -16  -2  377.47   15.94   1
  -3 -12   6  494.04   13.44  -2
  -3 -12  -3  494.04   13.44   1
  -2  -2   3 1751.36   73.63  -2
  -2  -2  -1 1751.36   73.63   1
  -6  -5   0  111.91    4.99   1
  -2  -2   1 3864.02  131.94  -2
  -2  -2   1 3864.02  131.94   1
  -6  -1   1  523.12   10.34   1
  -6  -1  -1   44.16    1.37   1
  -3  -8   7  319.22   21.68  -2
  -3  -8  -4  319.22   21.68   1
  -3  -4  -5   39.26    2.12   1
  -3  -4   8  147.93    4.15  -2
  -3  -4  -5  147.93    4.15   1
  -3  -8  -1  832.58    7.80  -2
  -3  -8   4  832.58    7.80   1
  -3  -4  -2  556.42    7.58  -2
  -3  -4   5  556.42    7.58   1
  -7  -3   5  556.97    4.75   1
  -3  -8  -4  260.27    6.60   1
  -3 -12  -3  471.12   10.80   1
  -3  -4   5    7.45    1.44   1
  -3 -16  -2  359.37    6.33   1
  -3 -20  -1  265.26    4.43   1
  -3 -20   1  338.52   10.67   1
  -3 -16   2  449.29   42.03   1
  -3 -12   3  225.77    8.77   1
  -3   0  -3  700.88   10.88  -2
  -3   0   6  700.88   10.88   1
  -2  -2  -1 1533.95   23.49   1
  -7  -7   5  375.94    4.69   1
  -2  -2   4 1797.53   52.59  -2
  -2  -2  -2 1797.53   52.59   1
  -2  -6   1 1401.88   10.72  -2
  -2  -6   1 1401.88   10.72   1
  -7 -11   4  496.15    8.11   1
  -2  -6   3 3633.74   51.44  -2
  -2  -6  -1 3633.74   51.44   1
  -2 -10   2 2274.16   27.02  -2
  -2 -10   0 2274.16   27.02   1
  -3 -12   4   12.40    0.60   1
  -3 -16   0  335.33   14.07  -2
  -3 -16   3  335.33   14.07   1
  -3 -20   1  288.07   15.99  -2
  -3 -20   2  288.07   15.99   1
  -2  -2   0 2329.43   25.02  -2
  -2  -2   2 2329.43   25.02   1
  -3 -16   6  234.78   10.07  -2
  -3 -16  -3  234.78   10.07   1
  -6  -9   0  119.17    3.55   1
  -6  -5   1  343.13    4.71   1
  -6  -1   2  493.12    7.86   1
  -6  -5  -1   35.69    1.47   1
  -3 -12  -4  137.91    6.39   1
  -3 -12   7  224.56    7.93  -2
  -3 -12  -4  224.56    7.93   1
  -3 -12  -1  385.26    7.14  -2
  -3 -12   4  385.26    7.14   1
  -3  -8  -2  312.36   12.73  -2
  -3  -8   5  312.36   12.73   1
  -3  -4  -3  495.18    6.08  -2
  -3  -4   6  495.18    6.08   1
  -7  -3   6  212.16    3.10   1
  -3 -16  -3  191.59    5.72   1
  -3 -20  -2  253.61    5.28   1
  -3  -8   5    7.33    0.71   1
  -2 -10   0 1852.05   54.92   1
  -2  -2   2 1627.13   31.34   1
  -2  -6   1 1003.31   13.93   1
  -3 -16   3   47.36    1.55   1
  -3 -20   2  126.20    3.18   1
  -3   0  -4  212.44    4.45  -2
  -3   0   7  212.44    4.45   1
  -2  -6  -1 3201.98   45.62   1
  -6  -1  -2   25.88    2.46   1
  -3 -20   5  308.03    9.26  -2
  -3 -20  -2  308.03    9.26   1
  -2  -2  -2 1635.19   33.74   1
  -3  -4   6  222.33    5.48   1
  -7  -7   6  319.96    3.32   1
  -6  -9   1  243.63    3.85   1
  -7 -11   5  302.47    3.68   1
  -2  -6   0 1594.53   12.19  -2
  -2  -6   2 1594.53   12.19   1
  -2  -6   4 1219.95   41.80  -2
  -2  -6  -2 1219.95   41.80   1
  -2 -10   3 1401.26   28.64  -2
  -2 -10  -1 1401.26   28.64   1
  -2 -10   1 1608.96   28.16  -2
  -2 -10   1 1608.96   28.16   1
  -2 -14   2  888.11   22.62  -2
  -2 -14   0  888.11   22.62   1
  -3 -20   3   96.85    4.19   1
  -3 -16   4   50.12    1.90   1
  -3 -20   0  294.23   24.63  -2
  -3 -20   3  294.23   24.63   1
  -2  -2   3  550.74   10.93   1
  -6 -13   0   90.89    2.02   1
  -6  -5   2  606.62    9.07   1
  -6  -9  -1   21.11    1.14   1
  -2  -2   5  854.20   11.01  -2
  -2  -2  -3  854.20   11.01   1
  -3 -16  -1  419.32   28.84  -2
  -3 -16   4  419.32   28.84   1
  -3 -12  -2  265.45    7.77  -2
  -3 -12   5  265.45    7.77   1
  -3  -8  -3  374.36    5.37  -2
  -3  -8   6  374.36    5.37   1
  -2  -2  -1 1163.41   62.75  -2
  -2  -2   3 1163.41   62.75   1
  -7  -3   7  153.32    2.39   1
  -6  -1   3  795.88    6.93   1
  -2 -10  -1 1272.66   26.98   1
  -3 -12   5    3.96    0.99   1
  -2 -14   0  564.00   14.08   1
  -2 -10   1 1122.99   45.21   1
  -2  -6   2  909.50   24.48   1
  -3  -4  -4  448.20    8.22  -2
  -3  -4   7  448.20    8.22   1
  -3   0  -5  487.46   12.60  -2
  -3   0   8  487.46   12.60   1
  -3  -4   7  350.48    8.47   1
  -3  -8   6  153.88    4.21   1
  -6  -9   2  570.43    6.50   1
  -6 -13   1  345.46    7.88   1
  -2 -10   4  646.57   15.92  -2
  -2 -10  -2  646.57   15.92   1
  -2 -10   0 1784.02   49.86  -2
  -2 -10   2 1784.02   49.86   1
  -2 -14   3  692.31   13.28  -2
  -2 -14  -1  692.31   13.28   1
  -2 -14   1 2422.21  101.72  -2
  -2 -14   1 2422.21  101.72   1
  -2 -18   2  881.71   52.12  -2
  -2 -18   0  881.71   52.12   1
  -3 -20   4   21.54    3.32   1
  -2  -6  -1 2159.13   73.32  -2
  -2  -6   3 2159.13   73.32   1
  -2  -6   5  260.05    9.08  -2
  -2  -6  -3  260.05    9.08   1
  -2  -2   6  220.98    6.16  -2
  -2  -2  -4  220.98    6.16   1
  -3 -16  -2  167.30   13.79  -2
  -3 -16   5  167.30   13.79   1
  -3 -20  -1  148.22   18.86  -2
  -3 -20   4  148.22   18.86   1
  -3 -12  -3  262.35   15.28  -2
  -3 -12   6  262.35   15.28   1
  -2  -2  -2  913.91   21.55  -2
  -2  -2   4  913.91   21.55   1
  -3  -8  -4  363.52    5.40  -2
  -3  -8   7  363.52    5.40   1
  -6  -5   3 1100.87    9.47   1
  -6  -1   4 1291.44   10.97   1
  -2  -6   3  637.72   14.63   1
  -3 -16   5    6.30    3.71   1
  -2 -14   1 1394.19   36.46   1
  -2 -10   2  929.81   28.70   1
  -3  -4  -5  334.28   14.66  -2
  -3  -4   8  334.28   14.66   1
  -1   0   0 6962.45  201.19   1
  -3  -8   7  269.35    6.95   1
  -3 -12   6   72.97    2.83   1
  -6  -9   3  848.93    6.96   1
  -1  -4   1 4713.19   44.85  -2
  -1  -4   0 4713.19   44.85   1
  -6 -13   2  296.65    6.00   1
  -2 -14   4  674.90   14.51  -2
  -2 -14  -2  674.90   14.51   1
  -2 -10  -1  787.46   17.60  -2
  -2 -10   3  787.46   17.60   1
  -2 -18   3  486.57   26.23  -2
  -2 -18  -1  486.57   26.23   1
  -2 -14   0  956.92   34.08  -2
  -2 -14   2  956.92   34.08   1
  -2 -18   1  741.41   27.19  -2
  -2 -18   1  741.41   27.19   1
  -2 -22   2  321.74    8.34  -2
  -2 -22   0  321.74    8.34   1
  -2 -10   5  564.68   26.02  -2
  -2 -10  -3  564.68   26.02   1
  -5  -3   0  394.28    5.69   1
  -1   0   2 2594.67   33.09  -2
  -1   0  -1 2594.67   33.09   1
  -2  -6   6  375.22    7.40  -2
  -2  -6  -4  375.22    7.40   1
  -2  -2   7  116.14    2.22  -2
  -2  -2  -5  116.14    2.22   1
  -2  -6  -2  693.63   18.15  -2
  -2  -6   4  693.63   18.15   1
  -3 -16  -3  197.51    8.88  -2
  -3 -16   6  197.51    8.88   1
  -3 -12  -4  274.09    4.90  -2
  -3 -12   7  274.09    4.90   1
  -2  -2  -3  413.15    9.21  -2
  -2  -2   5  413.15    9.21   1
  -6  -5   4  827.12    6.69   1
  -6  -1   5  847.44    8.37   1
  -1  -4   0 3870.93  153.57   1
  -2 -14   2  587.18    9.40   1
  -1   0   1 5364.79  358.86   1
  -2  -6   4  222.15    5.01   1
  -2 -10   3  258.05    5.91   1
  -2 -18   1  492.21   11.39   1
  -1   0   3 1745.56   26.29  -2
  -1   0  -2 1745.56   26.29   1
  -5  -7   0  131.51    3.70   1
  -6  -9   4  456.42    4.34   1
  -1  -4   2 3446.63   63.60  -2
  -1  -4  -1 3446.63   63.60   1
  -6 -13   3  402.82    5.96   1
  -1  -4   0 3730.93   38.17  -2
  -1  -4   1 3730.93   38.17   1
  -1  -8   1 1771.79   21.80  -2
  -1  -8   0 1771.79   21.80   1
  -2 -18  -2  473.26   14.23   1
  -2 -22   3  451.20   16.90  -2
  -2 -22  -1  451.20   16.90   1
  -2 -18   0  590.53   11.36  -2
  -2 -18   2  590.53   11.36   1
  -2 -14  -1  386.73   17.74  -2
  -2 -14   3  386.73   17.74   1
  -2 -22   1  384.86    7.45  -2
  -2 -22   1  384.86    7.45   1
  -1   0  -1 1346.63   55.99  -2
  -1   0   2 1346.63   55.99   1
  -2 -18   4  375.94   13.72  -2
  -2 -18  -2  375.94   13.72   1
  -2 -14   5  334.56    9.82  -2
  -2 -14  -3  334.56    9.82   1
  -5  -3   1  932.23   11.66   1
  -5  -3  -1   14.35    1.33   1
  -2 -10   6  228.24   10.10  -2
  -2 -10  -4  228.24   10.10   1
  -2  -6   7  122.73    3.29  -2
  -2  -6  -5  122.73    3.29   1
  -2 -10  -2  298.91    9.78  -2
  -2 -10   4  298.91    9.78   1
  -2  -6  -3  136.61    1.90  -2
  -2  -6   5  136.61    1.90   1
  -6  -5   5  457.05    5.16   1
  -6  -1   6  276.47    2.79   1
  -2  -2  -4  209.63    5.39  -2
  -2  -2   6  209.63    5.39   1
  -1  -4   1 2109.31   22.57   1
  -1  -8   0  991.42   20.32   1
  -2 -10   4   31.40    1.45   1
  -2 -14   3  107.15    3.50   1
  -2 -18   2  308.72    8.14   1
  -5  -7   1  246.10    3.62   1
  -6  -9   5  499.37    4.73   1
  -5 -11   0  113.38    2.48   1
  -6 -13   4  542.80    7.13   1
  -1  -4   3 2118.58   37.24  -2
  -1  -4  -2 2118.58   37.24   1
  -6 -17   3  324.76   11.03   1
  -1  -8   2 2969.94   67.17  -2
  -1  -8  -1 2969.94   67.17   1
  -1  -8   0 2391.09   73.85  -2
  -1  -8   1 2391.09   73.85   1
  -1 -12   1 2453.03   80.30  -2
  -1 -12   0 2453.03   80.30   1
  -2 -22   0  208.39    6.33  -2
  -2 -22   2  208.39    6.33   1
  -2 -18  -1  272.94   16.53  -2
  -2 -18   3  272.94   16.53   1
  -1  -4  -1 2247.17   64.67  -2
  -1  -4   2 2247.17   64.67   1
  -2 -22   4  253.58   14.13  -2
  -2 -22  -2  253.58   14.13   1
  -2 -18   5  307.64   11.24  -2
  -2 -18  -3  307.64   11.24   1
  -5  -3   2  445.06    7.11   1
  -2 -14   6  223.15    8.69  -2
  -2 -14  -4  223.15    8.69   1
  -5  -7  -1   49.15    1.77   1
  -5  -3  -2   25.17    1.58   1
  -1   0   4  958.90   16.28  -2
  -1   0  -3  958.90   16.28   1
  -2 -10   7  102.82    4.86  -2
  -2 -10  -5  102.82    4.86   1
  -2 -14  -2  353.57   26.97  -2
  -2 -14   4  353.57   26.97   1
  -2 -10  -3  247.13    8.60  -2
  -2 -10   5  247.13    8.60   1
  -2  -6  -4  269.14    7.05  -2
  -2  -6   6  269.14    7.05   1
  -6  -5   6  447.32    3.91   1
  -6  -1   7  165.89    1.95   1
  -1   0  -2 1174.14   56.39  -2
  -1   0   3 1174.14   56.39   1
  -2  -2  -5  237.51   11.06  -2
  -2  -2   7  237.51   11.06   1
  -2 -14   4   29.93    1.76   1
  -2 -18   3  121.90    5.32   1
  -1  -8   1 1582.12   32.36   1
  -5  -7   2 1438.86   17.47   1
  -6  -9   6  428.67    5.88   1
  -5 -11   1  283.80    6.30   1
  -6 -13   5  339.98    4.86   1
  -5 -15   0   82.33    3.82   1
  -1  -8   3 2662.95   49.53  -2
  -1  -8  -2 2662.95   49.53   1
  -1 -12   2 1690.16   51.67  -2
  -1 -12  -1 1690.16   51.67   1
  -1 -12   0 2406.61   51.59  -2
  -1 -12   1 2406.61   51.59   1
  -1 -16   1 1769.89   40.21  -2
  -1 -16   0 1769.89   40.21   1
  -1  -8  -1 3030.77  100.46  -2
  -1  -8   2 3030.77  100.46   1
  -1  -4  -2 1703.00   27.03  -2
  -1  -4   3 1703.00   27.03   1
  -2 -22  -1  220.75   13.64  -2
  -2 -22   3  220.75   13.64   1
  -2 -18  -2  191.13   18.45  -2
  -2 -18   4  191.13   18.45   1
  -5 -11  -1    7.27    0.82   1
  -5  -7  -2   40.76    1.01   1
  -1  -4   4  867.66    9.52  -2
  -1  -4  -3  867.66    9.52   1
  -5  -3  -3   93.68    1.72   1
  -1   0   5  494.93    7.48  -2
  -1   0  -4  494.93    7.48   1
  -2 -14  -3  170.56    5.83  -2
  -2 -14   5  170.56    5.83   1
  -2 -10  -4  185.24    6.38  -2
  -2 -10   6  185.24    6.38   1
  -2  -6  -5  252.33    6.85  -2
  -2  -6   7  252.33    6.85   1
  -6  -5   7  156.37    3.16   1
  -5  -3   3 1046.03    8.88   1
  -1   0  -3  758.01   23.57  -2
  -1   0   4  758.01   23.57   1
  -5  -7   3  941.68    9.62   1
  -5 -11   2  495.35    9.36   1
  -5 -15   1  174.13   10.30   1
  -6 -13   6  227.50    5.80   1
  -1 -12   3 1010.20   49.02  -2
  -1 -12  -2 1010.20   49.02   1
   0  -2   012728.00  633.80  -2
   0  -2   012728.00  633.80   1
  -1 -16   2  662.04   28.54  -2
  -1 -16  -1  662.04   28.54   1
  -1 -16   0 1509.13   17.68  -2
  -1 -16   1 1509.13   17.68   1
  -1 -20   1  542.64    4.18  -2
  -1 -20   0  542.64    4.18   1
  -1 -12  -1 1469.13   21.51  -2
  -1 -12   2 1469.13   21.51   1
  -1  -8  -2 1849.28   50.54  -2
  -1  -8   3 1849.28   50.54   1
  -5 -15  -1   15.52    1.57   1
  -1  -8   4  493.72    8.45  -2
  -1  -8  -3  493.72    8.45   1
  -5 -11  -2    6.50    1.20   1
  -4  -1   0  290.46    5.58   1
  -1  -4   5  323.61    8.68  -2
  -1  -4  -4  323.61    8.68   1
  -1   0   6  221.41    4.75  -2
  -1   0  -5  221.41    4.75   1
  -1  -4  -3  521.52    7.55  -2
  -1  -4   4  521.52    7.55   1
  -2 -18  -3  141.61   14.84  -2
  -2 -18   5  141.61   14.84   1
  -2 -14  -4  103.76    6.33  -2
  -2 -14   6  103.76    6.33   1
  -2 -10  -5  223.50    7.67  -2
  -2 -10   7  223.50    7.67   1
  -6  -9   7   76.94    1.94   1
  -5  -3   4 1460.52   12.28   1
  -1   0  -4  217.76    7.96  -2
  -1   0   5  217.76    7.96   1
  -4  -5   0  194.54    3.19   1
  -5  -7   4  503.51    4.21   1
  -5 -11   3 1118.36   18.53   1
  -5 -15   2  435.62   10.31   1
   0  -2  -1 5914.37  107.22  -2
   0  -2  -1 5914.37  107.22   1
  -5 -19   1  184.17    9.05   1
  -1 -16   3  744.13   32.05  -2
  -1 -16  -2  744.13   32.05   1
   0  -6   0 8259.08  167.37  -2
   0  -6   0 8259.08  167.37   1
  -1 -20   2  633.68   10.82  -2
  -1 -20  -1  633.68   10.82   1
  -1 -20   0  579.51    4.40  -2
  -1 -20   1  579.51    4.40   1
  -1 -12  -2  583.51   20.74  -2
  -1 -12   3  583.51   20.74   1
  -1 -16  -1  431.62   15.92  -2
  -1 -16   2  431.62   15.92   1
  -1 -24   1  315.67    3.72  -2
  -1 -24   0  315.67    3.72   1
  -1 -12   4  560.12    8.96  -2
  -1 -12  -3  560.12    8.96   1
  -4  -1   1  904.25    9.40   1
  -4  -1  -1   29.15    3.05   1
  -1  -4   6   82.88    1.84  -2
  -1  -4  -5   82.88    1.84   1
  -1  -8   5  168.94    4.55  -2
  -1  -8  -4  168.94    4.55   1
  -1  -8  -3  239.30   11.42  -2
  -1  -8   4  239.30   11.42   1
  -1  -4  -4  164.41    4.37  -2
  -1  -4   5  164.41    4.37   1
  -5  -3   5  894.06    7.70   1
  -1   0   7  164.48    4.73  -2
  -1   0  -6  164.48    4.73   1
  -1   0  -5  245.15   20.23  -2
  -1   0   6  245.15   20.23   1
  -5  -7   5 1012.91    8.09   1
  -4  -5  -1    9.46    0.73   1
  -4  -9   0   91.21    2.90   1
  -5 -11   4  662.44    8.07   1
  -5 -15   3  485.16   11.52   1
  -5 -19   2  219.29    9.09   1
   0  -6  -1 3532.61   96.31  -2
   0  -6  -1 3532.61   96.31   1
  -1 -20   3  472.45   18.78  -2
  -1 -20  -2  472.45   18.78   1
   0 -10   0 1659.60   32.88  -2
   0 -10   0 1659.60   32.88   1
  -1 -24   2  317.18    3.21  -2
  -1 -24  -1  317.18    3.21   1
  -1 -16  -2  574.63   22.65  -2
  -1 -16   3  574.63   22.65   1
  -1 -24   0  288.95    2.75  -2
  -1 -24   1  288.95    2.75   1
  -1 -20  -1  531.33    5.76  -2
  -1 -20   2  531.33    5.76   1
  -1 -16   4  430.54   28.01  -2
  -1 -16  -3  430.54   28.01   1
  -4  -5   1  634.17    7.15   1
  -4  -1   2 1077.26   14.40   1
  -4  -1  -2   80.29    2.25   1
   0  -2  -2 2681.39   29.86  -2
   0  -2  -2 2681.39   29.86   1
  -1  -8   6   68.25    3.13  -2
  -1  -8  -5   68.25    3.13   1
  -1 -12   5  235.32    7.97  -2
  -1 -12  -4  235.32    7.97   1
  -1  -4   7  110.84   24.16  -2
  -1  -4  -6  110.84   24.16   1
  -1 -12  -3  281.45    9.78  -2
  -1 -12   4  281.45    9.78   1
  -1  -8  -4   84.95    4.37  -2
  -1  -8   5   84.95    4.37   1
  -1  -4  -5  115.62    5.47  -2
  -1  -4   6  115.62    5.47   1
  -5  -3   6  520.92    6.59   1
  -1   0  -6  425.99   74.84  -2
  -1   0   7  425.99   74.84   1
  -4  -9   1  423.26    6.77   1
  -4  -9  -1   30.82    1.97   1
  -5 -11   5  349.93    3.71   1
  -4 -13   0  123.37    5.23   1
  -5 -15   4  527.02    7.54   1
  -5 -19   3  341.92   26.19   1
   0  -6  -2 3018.80   67.05  -2
   0  -6  -2 3018.80   67.05   1
   0 -10  -1 3975.41  141.12  -2
   0 -10  -1 3975.41  141.12   1
   0 -14   0 3110.25   45.60  -2
   0 -14   0 3110.25   45.60   1
  -1 -24  -1  222.34    3.41  -2
  -1 -24   2  222.34    3.41   1
  -1 -20  -2  275.35   16.41  -2
  -1 -20   3  275.35   16.41   1
  -1 -20   4  202.51   10.77  -2
  -1 -20  -3  202.51   10.77   1
  -4  -5   2 1531.68   12.72   1
  -4  -1   3 1755.55   19.67   1
  -4  -5  -2   74.57    3.03   1
  -4  -1  -3  195.93    2.22   1
   0  -2  -3 1238.00   11.26  -2
   0  -2  -3 1238.00   11.26   1
  -1 -12   6   36.95    1.54  -2
  -1 -12  -5   36.95    1.54   1
  -1  -8   7   94.39    6.46  -2
  -1  -8  -6   94.39    6.46   1
  -1 -16   5  143.20    7.14  -2
  -1 -16  -4  143.20    7.14   1
  -1 -12  -4  107.92    7.57  -2
  -1 -12   5  107.92    7.57   1
  -1 -16  -3  220.15   12.50  -2
  -1 -16   4  220.15   12.50   1
  -1  -8  -5   72.42    1.80  -2
  -1  -8   6   72.42    1.80   1
  -5  -7   6  455.24    6.21   1
  -5  -3   7  156.20    2.10   1
  -8   0   3   26.04    1.29   1
  -1  -4  -6  233.74   33.94  -2
  -1  -4   7  233.74   33.94   1
  -4  -9   2 1403.02   10.82   1
  -4 -13   1  300.31    5.81   1
  -4 -13  -1    5.14    0.61   1
  -4 -17   0   64.92    5.48   1
  -5 -15   5  370.50    4.61   1
  -5 -19   4  250.06   10.22   1
   0  -6  -3 1906.15   59.26  -2
   0  -6  -3 1906.15   59.26   1
   0 -10  -2 2887.81   66.78  -2
   0 -10  -2 2887.81   66.78   1
   0 -14  -1 1234.98   16.51  -2
   0 -14  -1 1234.98   16.51   1
   0 -18   0  815.10   20.67  -2
   0 -18   0  815.10   20.67   1
  -4  -5   3 1511.33   12.20   1
  -4  -9  -2   68.53    1.73   1
  -4  -5  -3  140.74    2.14   1
  -4  -1  -4  351.38    8.64   1
   0  -2  -4  492.32    6.35  -2
   0  -2  -4  492.32    6.35   1
  -1 -16  -4   74.62    5.30  -2
  -1 -16   5   74.62    5.30   1
  -1 -12  -5   52.61    1.74  -2
  -1 -12   6   52.61    1.74   1
  -1 -20  -3  114.87   19.32  -2
  -1 -20   4  114.87   19.32   1
  -1  -8  -6  195.32   10.34  -2
  -1  -8   7  195.32   10.34   1
  -5 -11   6  374.31    5.44   1
  -5  -7   7  128.55    1.91   1
  -4  -1   4 2481.94   20.53   1
  -8   0   4   48.47    1.57   1
  -5  -3   8   30.89    1.50   1
  -8  -4   3    8.39    2.56   1
  -4  -9   3 1004.47    9.78   1
  -4 -13   2  471.61   10.41   1
  -4 -17   1  109.57    5.27   1
  -4 -17  -1   15.29    1.37   1
   0 -10  -3  508.99   11.50  -2
   0 -10  -3  508.99   11.50   1
   0 -14  -2 1150.79   35.74  -2
   0 -14  -2 1150.79   35.74   1
   0 -18  -1 1037.43   12.41  -2
   0 -18  -1 1037.43   12.41   1
   0 -22   0  790.30   11.54  -2
   0 -22   0  790.30   11.54   1
  -3  -3   0   87.69    2.07   1
  -4 -13  -2   15.71    1.64   1
  -4  -9  -3  152.90    3.25   1
  -7  -2   0  424.55    7.17   1
  -3  -3   3  569.16   33.66  -2
  -3  -3   0  569.16   33.66   1
  -4  -5  -4  265.66    4.31   1
   0  -6  -4  172.73    3.03  -2
   0  -6  -4  172.73    3.03   1
   0  -2  -5  103.72    2.00  -2
   0  -2  -5  103.72    2.00   1
  -5 -15   6  123.19    1.90   1
  -5 -11   7  128.87    3.41   1
  -4  -5   4 1279.07    9.97   1
  -4  -1   5 1229.28   13.29   1
  -8  -4   4  138.51    2.39   1
  -8   0   5  202.67    3.38   1
  -3  -7   3  412.97    6.77  -2
  -3  -7   0  412.97    6.77   1
  -4  -9   4  988.18    9.47   1
  -4 -13   3  929.27   22.98   1
  -4 -17   2  405.83   21.64   1
  -4 -21   1  142.45   12.47   1
   0 -18  -2  826.38   21.89  -2
   0 -18  -2  826.38   21.89   1
   0 -22  -1  446.21    4.10  -2
   0 -22  -1  446.21    4.10   1
   0 -14  -3 1161.56   57.22  -2
   0 -14  -3 1161.56   57.22   1
  -3  -7   0   21.79    1.27   1
  -3  -3   1  647.98    7.38   1
  -4 -17  -2   25.26    1.10   1
  -3  -3  -1   64.51    2.22   1
  -4 -13  -3   97.81    3.27   1
  -7  -2   1  247.74    4.37   1
  -3  -3   4  585.26    7.07  -2
  -3  -3  -1  585.26    7.07   1
   0  -6  -5   27.74    1.51  -2
   0  -6  -5   27.74    1.51   1
   0 -10  -4  280.75    5.18  -2
   0 -10  -4  280.75    5.18   1
  -4  -5   5 1340.75   11.36   1
  -4  -1   6  676.84   10.73   1
   0  -2  -6   88.27    3.12  -2
   0  -2  -6   88.27    3.12   1
  -4 -13   1 1025.30   21.57  -2
  -4 -13   3 1025.30   21.57   1
  -4  -9   0  963.97   20.21  -2
  -4  -9   4  963.97   20.21   1
  -7  -6   1  188.52    2.92   1
  -3  -7   2 1301.38   49.63  -2
  -3  -7   1 1301.38   49.63   1
  -3  -7   4  723.64   10.79  -2
  -3  -7  -1  723.64   10.79   1
  -3 -11   3  417.80    7.13  -2
  -3 -11   0  417.80    7.13   1
  -4 -13   4 1075.72   17.75   1
  -4 -17   3  634.49   28.34   1
  -4 -21   2  269.01   15.90   1
   0 -22  -2  334.98    7.75  -2
   0 -22  -2  334.98    7.75   1
   0 -18  -3  363.96    8.43  -2
   0 -18  -3  363.96    8.43   1
  -4 -21   2  320.43   10.99  -2
  -4 -21   2  320.43   10.99   1
  -3 -11   0   21.45    1.11   1
  -3  -7   1 1013.77    8.31   1
  -3  -3   2 2063.39   27.92   1
  -3  -7  -1   24.90    1.87   1
  -3  -3   5  848.70   82.14  -2
  -3  -3  -2  848.70   82.14   1
   0 -10  -5   39.11    1.29  -2
   0 -10  -5   39.11    1.29   1
   0 -14  -4   44.81    1.61  -2
   0 -14  -4   44.81    1.61   1
   0  -6  -6   54.08    1.84  -2
   0  -6  -6   54.08    1.84   1
  -4 -13   0 1100.57   67.81  -2
  -4 -13   4 1100.57   67.81   1
  -4 -17   1  720.65   47.74  -2
  -4 -17   3  720.65   47.74   1
  -4  -9  -1 1125.73   19.76  -2
  -4  -9   5 1125.73   19.76   1
  -4  -5   6  762.97    6.75   1
  -7  -2   2  125.08    1.85   1
   0  -2  -7  280.75   27.59  -2
   0  -2  -7  280.75   27.59   1
  -4  -1   7  490.62    5.77   1
  -4  -9   5 1116.73   12.32   1
  -3  -3  -2  316.69   33.73   1
  -7  -6   2  106.65    2.88   1
  -3  -7   1 1162.31   11.84  -2
  -3  -7   2 1162.31   11.84   1
  -3 -11   2  532.71   12.77  -2
  -3 -11   1  532.71   12.77   1
  -3 -11   4  428.25   10.39  -2
  -3 -11  -1  428.25   10.39   1
  -3 -15   3  389.30   11.34  -2
  -3 -15   0  389.30   11.34   1
  -4 -17   4  597.79   19.51   1
  -4 -21   3  277.90   15.67   1
   0 -22  -3  186.47    4.72  -2
   0 -22  -3  186.47    4.72   1
  -3 -11   1  126.50    3.73   1
  -3  -7   2  711.76    7.40   1
  -3 -15   0   35.06    2.21   1
  -3  -3   3 1199.52   11.01   1
  -3 -11  -1    7.64    1.06   1
  -3  -7   5  521.89   44.81  -2
  -3  -7  -2  521.89   44.81   1
  -3  -3   6  559.74   20.66  -2
  -3  -3  -3  559.74   20.66   1
   0 -14  -5    9.23    1.87  -2
   0 -14  -5    9.23    1.87   1
   0 -10  -6   86.83    3.26  -2
   0 -10  -6   86.83    3.26   1
   0 -18  -4  104.00    2.89  -2
   0 -18  -4  104.00    2.89   1
  -4 -17   0  648.68   66.32  -2
  -4 -17   4  648.68   66.32   1
  -4 -13  -1  586.67    9.46  -2
  -4 -13   5  586.67    9.46   1
  -4  -9  -2  565.34    8.83  -2
  -4  -9   6  565.34    8.83   1
  -4  -5   7  315.95    4.01   1
  -4  -1   8   63.87    1.83   1
  -4  -9   6  535.70    7.32   1
  -4 -13   5  584.98    6.67   1
  -7  -2   3   21.06    2.44   1
  -7 -10   1  177.26    3.06   1
  -3  -7  -2  176.48    7.62   1
  -3  -3  -3  226.17    7.30   1
  -3  -3   0 1199.44   24.47  -2
  -3  -3   3 1199.44   24.47   1
  -7 -10   2   74.62    1.31   1
  -3  -7   0  969.29    8.92  -2
  -3  -7   3  969.29    8.92   1
  -3 -11   1 1030.68   14.39  -2
  -3 -11   2 1030.68   14.39   1
  -3 -15   4  308.05   39.66  -2
  -3 -15  -1  308.05   39.66   1
  -3 -15   2  282.13    8.49  -2
  -3 -15   1  282.13    8.49   1
  -3 -19   3  215.27    9.29  -2
  -3 -19   0  215.27    9.29   1
  -3  -7   3  977.16   23.86   1
  -3 -11  -2  113.87    4.90   1
  -2  -1   2  918.82   32.02  -2
  -2  -1   0  918.82   32.02   1
  -3  -7   6  775.80   44.04  -2
  -3  -7  -3  775.80   44.04   1
  -6   0   0  615.23   13.95   1
  -3  -3   7  611.83   16.30  -2
  -3  -3  -4  611.83   16.30   1
  -3 -11   5  510.21    5.81  -2
  -3 -11  -2  510.21    5.81   1
   0 -18  -5    5.29    1.07  -2
   0 -18  -5    5.29    1.07   1
  -4 -17  -1  335.65   29.21  -2
  -4 -17   5  335.65   29.21   1
  -4 -13  -2  248.93    6.79  -2
  -4 -13   6  248.93    6.79   1
  -4  -9   7  218.02    5.04   1
  -3  -3  -1 1484.57   24.49  -2
  -3  -3   4 1484.57   24.49   1
  -7  -6   3   19.24    1.37   1
  -7  -2   4   60.21    1.35   1
  -3  -3   4 1470.05   35.21   1
  -2  -1   0   74.25    2.85   1
  -3 -15  -1    6.07    2.04   1
  -3 -19   0   59.53    1.96   1
  -3 -15   1  195.80   13.40   1
  -3 -11   2  976.55   20.65   1
  -4  -5   8   69.35    3.43   1
  -4 -13   6  245.21    4.91   1
  -4 -17   5  310.84    4.20   1
  -3  -7  -3  409.69   10.69   1
  -4  -9  -3  266.35    7.07  -2
  -4  -9   7  266.35    7.07   1
  -2  -5   2  307.62    8.10  -2
  -2  -5   0  307.62    8.10   1
  -7 -10   3    3.66    0.68   1
  -3 -11   0  994.46   17.11  -2
  -3 -11   3  994.46   17.11   1
  -3 -15   1  325.80   10.07  -2
  -3 -15   2  325.80   10.07   1
  -3 -19   4  143.14   22.43  -2
  -3 -19  -1  143.14   22.43   1
  -3 -19   2  257.78   15.19  -2
  -3 -19   1  257.78   15.19   1
  -3 -15   5  146.64   12.38  -2
  -3 -15  -2  146.64   12.38   1
  -2  -1   1  179.42    2.16   1
  -3 -11   6  395.49   21.91  -2
  -3 -11  -3  395.49   21.91   1
  -2  -1   3 1254.17   65.12  -2
  -2  -1  -1 1254.17   65.12   1
  -6  -4   0  481.11   10.15   1
  -6   0   1  557.75   10.94   1
  -6   0  -1  568.03    9.34   1
  -3  -7   7  333.00   18.84  -2
  -3  -7  -4  333.00   18.84   1
  -3  -3   8  598.94   17.46  -2
  -3  -3  -5  598.94   17.46   1
  -3  -7  -1 1768.03   18.03  -2
  -3  -7   4 1768.03   18.03   1
  -3  -3  -2 2053.91   32.42  -2
  -3  -3   5 2053.91   32.42   1
  -2  -5   0    7.40    1.08   1
  -7  -6   4   50.17    1.95   1
  -7  -2   5  109.98    1.62   1
  -3 -11  -3  303.66    7.39   1
  -3 -15  -2   42.50    1.47   1
  -3 -19  -1    5.63    1.16   1
  -3  -7   4 1829.43   30.40   1
  -3 -19   1  112.09    3.16   1
  -3 -15   2  239.72   21.37   1
  -3 -11   3 1043.09   59.50   1
  -3  -3   5 2013.33   54.22   1
  -2  -1  -1  127.45    3.19   1
  -4 -13  -3  194.67    6.15  -2
  -4 -13   7  194.67    6.15   1
  -2  -1   4  478.51   18.92  -2
  -2  -1  -2  478.51   18.92   1
  -2  -5   1  508.57    6.40  -2
  -2  -5   1  508.57    6.40   1
  -7 -10   4    4.83    1.18   1
  -2  -5   3  422.92   40.81  -2
  -2  -5  -1  422.92   40.81   1
  -2  -9   2  261.24    3.71  -2
  -2  -9   0  261.24    3.71   1
  -3 -11   4 1129.04   24.12   1
  -3 -15   0  942.78   51.12  -2
  -3 -15   3  942.78   51.12   1
  -3 -19   1  321.44   14.76  -2
  -3 -19   2  321.44   14.76   1
  -3 -23   2  187.02    5.34  -2
  -3 -23   1  187.02    5.34   1
  -2  -5   1  365.09    4.74   1
  -2  -1   2 2359.65   47.95   1
  -3 -19   5  242.00   14.23  -2
  -3 -19  -2  242.00   14.23   1
  -3 -15  -3  260.32   17.71   1
  -6  -8   0  401.64    9.02   1
  -6  -4   1  406.43    5.71   1
  -6   0   2  111.29    2.05   1
  -6  -4  -1  628.01    6.46   1
  -3 -11   7  470.10   19.50  -2
  -3 -11  -4  470.10   19.50   1
  -3 -15   6  407.46   12.29  -2
  -3 -15  -3  407.46   12.29   1
  -3 -11  -1 1117.84   27.23  -2
  -3 -11   4 1117.84   27.23   1
  -3  -7  -2 1198.42   16.07  -2
  -3  -7   5 1198.42   16.07   1
  -3  -3  -3 1009.61   21.34  -2
  -3  -3   6 1009.61   21.34   1
  -2  -1   0 2334.12   46.85  -2
  -2  -1   2 2334.12   46.85   1
  -7  -6   5  187.65    3.11   1
  -7  -2   6  418.20    4.05   1
  -6   0  -2  465.73   17.65   1
  -3 -11  -4  418.94    9.95   1
  -3  -7   5 1105.83   39.60   1
  -3 -19  -2  121.17    3.17   1
  -2  -9   0  129.54    7.05   1
  -3 -15   3  870.45   29.95   1
  -3 -19   2  203.37   12.46   1
  -2  -5  -1    3.64    0.65   1
  -3  -3   6  910.38   19.27   1
  -3 -23   1  112.02    4.22   1
  -6  -8   1  494.29    5.96   1
  -2  -5   0  787.99    6.09  -2
  -2  -5   2  787.99    6.09   1
  -7 -10   5  178.54    2.51   1
  -2  -5   4  822.71   40.68  -2
  -2  -5  -2  822.71   40.68   1
  -2  -9   3  431.29    9.15  -2
  -2  -9  -1  431.29    9.15   1
  -2  -9   1  882.27   12.17  -2
  -2  -9   1  882.27   12.17   1
  -2 -13   2  221.68   12.52  -2
  -2 -13   0  221.68   12.52   1
  -3 -19   0  359.00   11.64  -2
  -3 -19   3  359.00   11.64   1
  -3 -15   4  972.60   20.22   1
  -3 -23   1  221.73    6.93  -2
  -3 -23   2  221.73    6.93   1
  -2  -1   3 3224.97  107.92   1
  -6 -12   0  239.97    3.88   1
  -6  -4   2  301.33    2.75   1
  -6  -8  -1  273.39    4.40   1
  -2  -1   5  835.43   28.07  -2
  -2  -1  -3  835.43   28.07   1
  -3 -15  -1 1027.25   88.47  -2
  -3 -15   4 1027.25   88.47   1
  -3 -11  -2 1086.47   16.01  -2
  -3 -11   5 1086.47   16.01   1
  -3  -7  -3 1170.96   27.71  -2
  -3  -7   6 1170.96   27.71   1
  -2  -1  -1 3021.58   63.12  -2
  -2  -1   3 3021.58   63.12   1
  -7  -6   6  282.40    3.85   1
  -7  -2   7  534.76    6.88   1
  -6   0   3   47.91    1.18   1
  -2  -9  -1   97.88    2.04   1
  -3 -11   5 1000.37   12.11   1
  -2 -13   0   11.02    3.09   1
  -3 -19   3  301.10   15.91   1
  -2  -9   1  601.17   10.35   1
  -2  -5   2  803.04   13.79   1
  -3  -3  -4  645.35   11.68  -2
  -3  -3   7  645.35   11.68   1
  -3  -7   6  970.97   20.54   1
  -3 -23   2  162.71    5.30   1
  -6  -8   2  130.30    2.32   1
  -6 -12   1  190.57    3.58   1
  -2  -9   4  744.31   18.99  -2
  -2  -9  -2  744.31   18.99   1
  -2  -9   0  354.99    8.17  -2
  -2  -9   2  354.99    8.17   1
  -2 -13   3  261.39    5.99  -2
  -2 -13  -1  261.39    5.99   1
  -2 -13   1  402.68   13.99  -2
  -2 -13   1  402.68   13.99   1
  -2 -17   2  142.52    6.87  -2
  -2 -17   0  142.52    6.87   1
  -3 -19   4  425.63    8.68   1
  -2  -5  -1 1361.55   12.52  -2
  -2  -5   3 1361.55   12.52   1
  -2  -5   5 1163.36   70.69  -2
  -2  -5  -3 1163.36   70.69   1
  -2  -1   6 1287.10   13.20  -2
  -2  -1  -4 1287.10   13.20   1
  -3 -15  -2  324.34   13.30  -2
  -3 -15   5  324.34   13.30   1
  -3 -19  -1  430.99    7.77  -2
  -3 -19   4  430.99    7.77   1
  -3 -11  -3  439.68   10.90  -2
  -3 -11   6  439.68   10.90   1
  -3  -7  -4  423.15    6.11  -2
  -3  -7   7  423.15    6.11   1
  -2  -1  -2 1019.79   32.35  -2
  -2  -1   4 1019.79   32.35   1
  -6  -4   3    9.84    1.19   1
  -6   0   4   54.07    2.27   1
  -2  -5   3 1371.37   27.00   1
  -3 -15   5  290.59    7.38   1
  -2 -13   1  236.39   16.78   1
  -2  -9   2  323.66   21.75   1
  -3  -3  -5  417.44   17.22  -2
  -3  -3   8  417.44   17.22   1
  -3  -7   7  338.93    8.29   1
  -3 -11   6  342.91    8.26   1
  -6  -8   3   37.35    0.80   1
  -1  -3   1  596.35    7.61  -2
  -1  -3   0  596.35    7.61   1
  -6 -12   2  123.23    2.38   1
  -2 -13   4  414.30   10.46  -2
  -2 -13  -2  414.30   10.46   1
  -2  -9  -1  951.60   20.57  -2
  -2  -9   3  951.60   20.57   1
  -2 -13   0  610.98   24.12  -2
  -2 -13   2  610.98   24.12   1
  -2 -17   3  347.56   17.50  -2
  -2 -17  -1  347.56   17.50   1
  -2 -17   1  129.51    6.33  -2
  -2 -17   1  129.51    6.33   1
  -2 -21   2   69.84    3.50  -2
  -2 -21   0   69.84    3.50   1
  -2  -9   5  881.96   49.11  -2
  -2  -9  -3  881.96   49.11   1
  -5  -2   0  605.17    6.41   1
  -2  -5   6  792.43   27.76  -2
  -2  -5  -4  792.43   27.76   1
  -2  -1   7  885.19   21.83  -2
  -2  -1  -5  885.19   21.83   1
  -2  -5  -2 1765.84   24.06  -2
  -2  -5   4 1765.84   24.06   1
  -3 -19  -2  406.02    5.97  -2
  -3 -19   5  406.02    5.97   1
  -3 -15  -3  516.16   13.66  -2
  -3 -15   6  516.16   13.66   1
  -3 -11  -4  401.85    5.90  -2
  -3 -11   7  401.85    5.90   1
  -6  -4   4   14.36    0.57   1
  -6   0   5  126.80    4.11   1
  -1  -3   0  108.93    1.69   1
  -2  -1  -3 1157.31   35.18  -2
  -2  -1   5 1157.31   35.18   1
  -3 -15   6  367.55    8.97   1
  -3 -19   5  348.02   10.21   1
  -2  -9   3  875.96   19.30   1
  -2 -13   2  542.96   13.48   1
  -2 -17   1   85.49    3.30   1
  -6  -8   4   16.33    0.84   1
  -5  -6   0  934.86    8.41   1
  -1  -3   0 1249.04   10.27  -2
  -1  -3   1 1249.04   10.27   1
  -1  -3   2  948.66   42.40  -2
  -1  -3  -1  948.66   42.40   1
  -6 -12   3   26.91    0.89   1
  -6 -16   2   85.85    2.13   1
  -1  -7   1 1144.51   13.91  -2
  -1  -7   0 1144.51   13.91   1
  -2 -17   4  318.80    6.47  -2
  -2 -17  -2  318.80    6.47   1
  -2 -21   3  108.89    8.44  -2
  -2 -21  -1  108.89    8.44   1
  -2 -17   0  152.82    5.16  -2
  -2 -17   2  152.82    5.16   1
  -2 -13  -1  648.03   20.24  -2
  -2 -13   3  648.03   20.24   1
  -2 -21   1   84.65    1.54  -2
  -2 -21   1   84.65    1.54   1
  -2 -13   5  621.55   27.12  -2
  -2 -13  -3  621.55   27.12   1
  -5  -2   1  737.63    6.63   1
  -5  -2  -1  710.92    7.32   1
  -2  -9   6  610.95   26.67  -2
  -2  -9  -4  610.95   26.67   1
  -2  -5   7  613.82   18.21  -2
  -2  -5  -5  613.82   18.21   1
  -2  -1   8  447.78   21.45  -2
  -2  -1  -6  447.78   21.45   1
  -2  -9  -2 1509.27   31.14  -2
  -2  -9   4 1509.27   31.14   1
  -2  -5  -3 1474.42   24.17  -2
  -2  -5   5 1474.42   24.17   1
  -6  -4   5   88.09    2.38   1
  -6   0   6  363.05    5.14   1
  -2  -9   4 1333.81   19.33   1
  -2  -1  -4 1595.52   39.59  -2
  -2  -1   6 1595.52   39.59   1
  -1  -3   1 1208.51   15.11   1
  -1  -7   0  939.48   19.17   1
  -2 -13   3  594.37   13.00   1
  -2 -17   2  107.39    4.16   1
  -2 -21   1   58.55    2.85   1
  -5  -6   1  567.09    5.84   1
  -6  -8   5  171.49    3.37   1
  -5 -10   0  599.87   12.44   1
  -6 -12   4    2.64    0.65   1
  -1  -3   3  787.63   28.37  -2
  -1  -3  -2  787.63   28.37   1
  -6 -16   3   37.57    1.92   1
  -1  -7   2  400.13    7.17  -2
  -1  -7  -1  400.13    7.17   1
  -1  -7   0  834.31   34.56  -2
  -1  -7   1  834.31   34.56   1
  -1 -11   1  235.15   11.70  -2
  -1 -11   0  235.15   11.70   1
  -2 -21   0  169.22    2.39  -2
  -2 -21   2  169.22    2.39   1
  -2 -17  -1  752.04   10.15  -2
  -2 -17   3  752.04   10.15   1
  -1  -3  -1 2721.92   59.86  -2
  -1  -3   2 2721.92   59.86   1
  -2 -21   4  175.57   13.67  -2
  -2 -21  -2  175.57   13.67   1
  -2 -17   5  280.38   10.07  -2
  -2 -17  -3  280.38   10.07   1
  -5  -2   2  459.50    4.52   1
  -2 -13   6  441.56   20.43  -2
  -2 -13  -4  441.56   20.43   1
  -5  -6  -1  594.51    6.42   1
  -5  -2  -2  762.90    9.34   1
  -2  -9   7  424.50   24.93  -2
  -2  -9  -5  424.50   24.93   1
  -2 -13  -2  799.97   23.44  -2
  -2 -13   4  799.97   23.44   1
  -2  -9  -3 1266.00   21.83  -2
  -2  -9   5 1266.00   21.83   1
  -2  -5  -4  955.07   23.82  -2
  -2  -5   6  955.07   23.82   1
  -6  -4   6  280.17    3.81   1
  -6   0   7  597.03    9.36   1
  -2  -1  -5  834.54   11.48  -2
  -2  -1   7  834.54   11.48   1
  -2 -13   4  677.26   14.58   1
  -2 -17   3  744.45   17.14   1
  -2 -21   2  147.22    4.76   1
  -1  -7   1  304.19    6.70   1
  -6  -8   6  116.44    1.65   1
  -5 -10   1  454.77    6.00   1
  -6 -12   5  128.79    1.98   1
  -5 -14   0  349.60    8.53   1
  -6 -16   4    3.35    0.82   1
  -1  -7   3 1125.41   54.44  -2
  -1  -7  -2 1125.41   54.44   1
  -1 -11   2  307.68   13.42  -2
  -1 -11  -1  307.68   13.42   1
  -1 -11   0  532.66   20.34  -2
  -1 -11   1  532.66   20.34   1
  -1 -15   1  170.65    4.63  -2
  -1 -15   0  170.65    4.63   1
  -1  -7  -1  591.25   12.25  -2
  -1  -7   2  591.25   12.25   1
  -2 -21  -1  252.18    4.09  -2
  -2 -21   3  252.18    4.09   1
  -2 -17  -2  551.67    6.51  -2
  -2 -17   4  551.67    6.51   1
  -5  -6   2  141.08    2.01   1
  -2 -17   6  397.09   18.29  -2
  -2 -17  -4  397.09   18.29   1
  -5 -10  -1  500.92    8.92   1
  -5  -6  -2  420.24    4.16   1
  -1  -3   4 1589.34   14.63  -2
  -1  -3  -3 1589.34   14.63   1
  -5  -2  -3  354.44    5.53   1
  -1  -3  -2 1643.85   53.41  -2
  -1  -3   3 1643.85   53.41   1
  -2 -13  -3  941.74   28.71  -2
  -2 -13   5  941.74   28.71   1
  -2  -9  -4  760.00   10.36  -2
  -2  -9   6  760.00   10.36   1
  -2  -5  -5  598.11    8.89  -2
  -2  -5   7  598.11    8.89   1
  -6  -4   7  341.72    4.07   1
  -5  -2   3   64.96    2.06   1
  -5 -10   2  100.46    1.58   1
  -5 -14   1  195.08    3.98   1
  -6 -12   6  271.77    3.31   1
  -1 -11   3  496.41   17.36  -2
  -1 -11  -2  496.41   17.36   1
  -1 -15   2  367.07   18.04  -2
  -1 -15  -1  367.07   18.04   1
  -1 -15   0  162.33    2.84  -2
  -1 -15   1  162.33    2.84   1
  -1 -19   1   85.08    1.28  -2
  -1 -19   0   85.08    1.28   1
  -1 -11  -1  732.62    8.26  -2
  -1 -11   2  732.62    8.26   1
  -1  -7  -2 1997.11   67.85  -2
  -1  -7   3 1997.11   67.85   1
  -2 -21  -2  282.54   10.39  -2
  -2 -21   4  282.54   10.39   1
  -5  -6   3   51.49    1.36   1
  -5 -14  -1  449.86    7.51   1
  -1  -7   4 1029.90   33.18  -2
  -1  -7  -3 1029.90   33.18   1
  -5 -10  -2  483.30    7.05   1
  -4   0   0 1028.20    9.57   1
  -5  -6  -3  357.35    4.54   1
  -1  -3   5 1280.59   16.32  -2
  -1  -3  -4 1280.59   16.32   1
  -1  -3  -3 2172.47   70.72  -2
  -1  -3   4 2172.47   70.72   1
  -2 -17  -3  331.09    4.46  -2
  -2 -17   5  331.09    4.46   1
  -2 -13  -4  537.89   19.61  -2
  -2 -13   6  537.89   19.61   1
  -2  -9  -5  351.61    8.05  -2
  -2  -9   7  351.61    8.05   1
  -6  -8   7  291.65    6.36   1
  -5  -2   4   81.03    2.37   1
  -5 -18   0  206.14   12.67   1
  -5 -10   3   63.52    1.41   1
  -5 -14   2  140.78    3.25   1
  -5 -18   1  227.04    8.16   1
  -1 -15   3  641.32   19.79  -2
  -1 -15  -2  641.32   19.79   1
   0  -5   0    2.18    0.37  -2
   0  -5   0    2.18    0.37   1
  -1 -19   2  116.15    4.81  -2
  -1 -19  -1  116.15    4.81   1
  -1 -19   0  151.40    1.65  -2
  -1 -19   1  151.40    1.65   1
  -1 -11  -2  847.94   14.70  -2
  -1 -11   3  847.94   14.70   1
  -1 -15  -1  608.72    8.12  -2
  -1 -15   2  608.72    8.12   1
  -1 -23   1   15.53    0.84  -2
  -1 -23   0   15.53    0.84   1
  -1 -11   4 1242.79   40.17  -2
  -1 -11  -3 1242.79   40.17   1
  -4  -4   0 1511.84    9.79   1
  -4   0   1  828.14   10.47   1
  -4   0  -1 1608.76   19.07   1
   0  -1  -1   14.90    0.74  -2
   0  -1  -1   14.90    0.74   1
  -1  -3   6 1248.64   15.00  -2
  -1  -3  -5 1248.64   15.00   1
  -1  -7   5 1743.69   17.87  -2
  -1  -7  -4 1743.69   17.87   1
  -1  -7  -3 1780.82   62.17  -2
  -1  -7   4 1780.82   62.17   1
  -1  -3  -4 1778.09   87.16  -2
  -1  -3   5 1778.09   87.16   1
  -5  -6   4    6.92    0.70   1
  -5  -2   5  158.47    4.77   1
  -4  -4  -1  956.00    7.12   1
  -4  -8   0 1443.05   13.43   1
  -5 -10   4    0.31    0.56   1
  -5 -14   3   60.18    1.55   1
  -5 -18   2   81.32    4.35   1
   0  -5  -1   11.86    0.39  -2
   0  -5  -1   11.86    0.39   1
  -1 -19   3  295.57   15.12  -2
  -1 -19  -2  295.57   15.12   1
   0  -9   0    2.14    0.78  -2
   0  -9   0    2.14    0.78   1
  -1 -23   2   65.04    3.05  -2
  -1 -23  -1   65.04    3.05   1
  -1 -15  -2  877.51   11.46  -2
  -1 -15   3  877.51   11.46   1
  -1 -23   0   36.33    0.91  -2
  -1 -23   1   36.33    0.91   1
  -1 -19  -1  197.84    3.33  -2
  -1 -19   2  197.84    3.33   1
  -1 -15   4  311.00   10.01  -2
  -1 -15  -3  311.00   10.01   1
  -4  -4   1 1398.08    9.78   1
  -4   0   2 1775.64   26.85   1
  -4   0  -2 1138.69   17.83   1
   0  -1  -2 2632.03   45.88  -2
   0  -1  -2 2632.03   45.88   1
  -1  -7   6  704.38   10.96  -2
  -1  -7  -5  704.38   10.96   1
  -1 -11   5  776.07   14.40  -2
  -1 -11  -4  776.07   14.40   1
  -1  -3   7  889.30   11.38  -2
  -1  -3  -6  889.30   11.38   1
  -1 -11  -3 1535.87   30.46  -2
  -1 -11   4 1535.87   30.46   1
  -1  -7  -4 1901.41   61.14  -2
  -1  -7   5 1901.41   61.14   1
  -1  -3  -5 1311.70   35.93  -2
  -1  -3   6 1311.70   35.93   1
  -5  -6   5  135.88    2.32   1
  -5  -2   6  277.76    5.40   1
  -4  -8   1  724.79    6.80   1
  -4  -8  -1  999.50    8.48   1
  -5 -10   5  117.94    2.66   1
  -4 -12   0  856.07   16.88   1
  -5 -14   4    2.48    0.51   1
  -5 -18   3    9.85    0.98   1
   0  -5  -2  986.65   20.71  -2
   0  -5  -2  986.65   20.71   1
   0  -9  -1  551.44   19.03  -2
   0  -9  -1  551.44   19.03   1
  -1 -23   3  112.28    5.02  -2
  -1 -23  -2  112.28    5.02   1
   0 -13   0    1.57    0.54  -2
   0 -13   0    1.57    0.54   1
  -1 -23  -1  150.79    1.77  -2
  -1 -23   2  150.79    1.77   1
  -1 -19  -2  375.43   10.16  -2
  -1 -19   3  375.43   10.16   1
  -1 -19   4  369.01   13.76  -2
  -1 -19  -3  369.01   13.76   1
  -4  -4   2  351.93    3.66   1
  -4   0   3  147.01   12.85   1
  -4  -4  -2 1112.44   12.30   1
  -4   0  -3  613.15   19.52   1
   0  -1  -3 2065.79   30.61  -2
   0  -1  -3 2065.79   30.61   1
  -1 -11   6  591.80   15.85  -2
  -1 -11  -5  591.80   15.85   1
  -1  -7   7  494.47    8.94  -2
  -1  -7  -6  494.47    8.94   1
  -1 -15   5  760.72   29.35  -2
  -1 -15  -4  760.72   29.35   1
  -1 -11  -4  962.14   23.14  -2
  -1 -11   5  962.14   23.14   1
  -1 -15  -3  403.79    9.00  -2
  -1 -15   4  403.79    9.00   1
  -1  -7  -5  720.39   19.96  -2
  -1  -7   6  720.39   19.96   1
  -5  -6   6  205.52    3.73   1
  -5  -2   7  470.86    6.51   1
  -1  -3  -6  707.99   16.22  -2
  -1  -3   7  707.99   16.22   1
  -4  -8   2  628.16    4.53   1
  -4 -12   1  589.74    6.59   1
  -4 -12  -1  722.97   15.30   1
  -4 -16   0  621.90   20.05   1
  -5 -14   5   90.20    1.43   1
  -5 -18   4    1.38    0.78   1
   0  -5  -3 2828.22   89.51  -2
   0  -5  -3 2828.22   89.51   1
   0  -9  -2 1152.06   32.71  -2
   0  -9  -2 1152.06   32.71   1
   0 -13  -1  463.00   11.12  -2
   0 -13  -1  463.00   11.12   1
   0 -17   0    5.10    0.57  -2
   0 -17   0    5.10    0.57   1
  -1 -23  -2  199.80    3.06  -2
  -1 -23   3  199.80    3.06   1
  -1 -19  -3  478.74    8.21  -2
  -1 -19   4  478.74    8.21   1
  -4  -4   3  294.99    4.86   1
  -4  -8  -2  506.15    6.36   1
  -4  -4  -3  546.22    7.66   1
  -4   0  -4  193.77    3.76   1
   0  -1  -4 1942.37   37.20  -2
   0  -1  -4 1942.37   37.20   1
  -1 -15   6  584.80   20.49  -2
  -1 -15  -5  584.80   20.49   1
  -1 -19   5  371.02    6.91  -2
  -1 -19  -4  371.02    6.91   1
  -1 -15  -4  877.07   23.11  -2
  -1 -15   5  877.07   23.11   1
  -1 -11  -5  646.65   14.09  -2
  -1 -11   6  646.65   14.09   1
  -1  -7  -6  452.66    9.95  -2
  -1  -7   7  452.66    9.95   1
  -5 -10   6  196.54    2.65   1
  -5  -6   7  401.66    4.94   1
  -4   0   4  124.32    7.24   1
  -8  -3   3  399.06    4.44   1
  -5  -2   8  424.14    6.11   1
  -4  -8   3  109.27    2.32   1
  -4 -12   2  259.24    2.90   1
  -4 -16   1  360.75   11.90   1
  -4 -16  -1  559.93   11.25   1
  -4 -20   0  342.12   14.40   1
   0  -9  -3 1140.62   37.38  -2
   0  -9  -3 1140.62   37.38   1
   0 -13  -2  930.10   30.02  -2
   0 -13  -2  930.10   30.02   1
   0 -17  -1   68.52    1.26  -2
   0 -17  -1   68.52    1.26   1
   0 -21   0    3.89    0.72  -2
   0 -21   0    3.89    0.72   1
  -4 -12  -2  623.07   10.27   1
  -3  -2   0 1275.09    9.73   1
  -4  -8  -3  591.63   13.91   1
  -7  -1   0  150.49    3.18   1
  -4  -4  -4  191.56    4.96   1
   0  -5  -4 2595.25   61.70  -2
   0  -5  -4 2595.25   61.70   1
   0  -1  -5 2302.91  321.62  -2
   0  -1  -5 2302.91  321.62   1
  -1 -15  -5  626.85    7.41  -2
  -1 -15   6  626.85    7.41   1
  -1 -19  -4  443.70   13.74  -2
  -1 -19   5  443.70   13.74   1
  -5 -14   6  201.21    2.75   1
  -5 -10   7  386.27    6.13   1
  -4  -4   4    4.44    1.13   1
  -4   0   5   37.52    9.12   1
  -8  -3   4  550.12    5.23   1
  -3  -6   3 2716.56   95.98  -2
  -3  -6   0 2716.56   95.98   1
  -4  -8   4   12.06    1.09   1
  -4 -12   3  132.38    3.94   1
  -4 -16   2  131.08    5.64   1
  -4 -20   1  239.20   18.44   1
   0 -17  -2  518.96   13.95  -2
   0 -17  -2  518.96   13.95   1
   0 -21  -1   10.91    0.71  -2
   0 -21  -1   10.91    0.71   1
   0 -25   0    1.59    0.86  -2
   0 -25   0    1.59    0.86   1
   0 -13  -3  708.38   29.11  -2
   0 -13  -3  708.38   29.11   1
  -3  -6   0 2546.54   18.23   1
  -3  -2   1 2076.36   17.61   1
  -4 -16  -2  366.31    7.05   1
  -3  -2  -1 1791.55   17.06   1
  -4 -12  -3  290.52    3.43   1
  -7  -5   0  121.97    3.07   1
  -7  -1   1  451.42    6.03   1
  -3  -2   4 1776.77   20.76  -2
  -3  -2  -1 1776.77   20.76   1
   0  -9  -4 1829.01   16.81  -2
   0  -9  -4 1829.01   16.81   1
   0  -5  -5 1263.69   28.42  -2
   0  -5  -5 1263.69   28.42   1
  -4  -4   5  248.47    3.88   1
  -8  -3   5  400.58    4.05   1
   0  -1  -6 1221.09   91.43  -2
   0  -1  -6 1221.09   91.43   1
  -4   0   6  617.48    9.60   1
  -4 -12   1  385.44    8.74  -2
  -4 -12   3  385.44    8.74   1
  -4  -8   0  682.43   14.58  -2
  -4  -8   4  682.43   14.58   1
  -7  -5   1  313.10    5.27   1
  -3  -6   2 1460.48   29.69  -2
  -3  -6   1 1460.48   29.69   1
  -3  -6   4 1970.98   63.23  -2
  -3  -6  -1 1970.98   63.23   1
  -3 -10   3 1706.75   39.90  -2
  -3 -10   0 1706.75   39.90   1
  -4 -12   4    1.52    0.42   1
  -4 -16   3   52.75    3.02   1
  -4 -20   2  176.41    9.30   1
   0 -21  -2  191.89    3.00  -2
   0 -21  -2  191.89    3.00   1
   0 -17  -3  472.28    9.05  -2
   0 -17  -3  472.28    9.05   1
  -4 -20   2  204.76    8.10  -2
  -4 -20   2  204.76    8.10   1
  -3 -10   0 1561.23   27.22   1
  -3  -6   1 1220.40   10.26   1
  -3  -2   2 2651.05   28.29   1
  -3  -6  -1 1905.56   35.17   1
  -3  -2   5 1657.53   16.88  -2
  -3  -2  -2 1657.53   16.88   1
   0  -9  -5 1225.16   14.88  -2
   0  -9  -5 1225.16   14.88   1
   0 -13  -4  718.17   21.08  -2
   0 -13  -4  718.17   21.08   1
   0  -5  -6  872.39   54.96  -2
   0  -5  -6  872.39   54.96   1
  -4  -8  -1  465.50    7.36  -2
  -4  -8   5  465.50    7.36   1
  -4  -4   6  192.67    4.90   1
  -7  -1   2  661.68    6.00   1
   0  -1  -7  612.38   33.40  -2
   0  -1  -7  612.38   33.40   1
  -4   0   7  440.74    7.38   1
  -4  -8   5   11.06    0.70   1
  -3  -2  -2 1732.84  171.91   1
  -4 -16   1  202.19    5.64  -2
  -4 -16   3  202.19    5.64   1
  -4 -12   0  380.55    8.69  -2
  -4 -12   4  380.55    8.69   1
  -3  -6   1 1082.86   11.03  -2
  -3  -6   2 1082.86   11.03   1
  -7  -9   1  276.98    5.03   1
  -3 -10   2 1195.89   22.26  -2
  -3 -10   1 1195.89   22.26   1
  -3 -10   4 1612.20   36.80  -2
  -3 -10  -1 1612.20   36.80   1
  -3 -14   3  867.12   22.17  -2
  -3 -14   0  867.12   22.17   1
  -4 -16   4   20.27    1.30   1
  -4 -20   3   22.96    1.73   1
   0 -21  -3  410.90   17.12  -2
   0 -21  -3  410.90   17.12   1
  -3 -10   1  806.84   12.14   1
  -3  -6   2  558.17    9.55   1
  -3  -2   3  554.83    8.89   1
  -3 -10  -1 1601.26   25.97   1
  -7  -5   2  618.67    9.10   1
  -3  -6   5  849.70   14.23  -2
  -3  -6  -2  849.70   14.23   1
  -3  -2   6  919.97   70.07  -2
  -3  -2  -3  919.97   70.07   1
   0 -13  -5 1048.61   38.00  -2
   0 -13  -5 1048.61   38.00   1
   0  -9  -6  631.57   16.05  -2
   0  -9  -6  631.57   16.05   1
   0 -17  -4  632.22   23.23  -2
   0 -17  -4  632.22   23.23   1
   0  -5  -7  652.40   27.90  -2
   0  -5  -7  652.40   27.90   1
  -4 -16   0  303.85   19.04  -2
  -4 -16   4  303.85   19.04   1
  -4 -12  -1  373.43    6.37  -2
  -4 -12   5  373.43    6.37   1
  -4  -8  -2  460.43    6.53  -2
  -4  -8   6  460.43    6.53   1
  -4  -4   7  380.86    7.73   1
  -7  -1   3  743.13    6.64   1
  -3 -14   0  820.00   39.03   1
  -4  -8   6  235.00    4.75   1
  -4   0   8  295.95    5.69   1
  -4 -12   5   54.98    2.21   1
  -3  -6  -2  791.28   23.04   1
  -3  -2  -3  733.19   25.13   1
  -3  -6   0 1638.60   17.10  -2
  -3  -6   3 1638.60   17.10   1
  -7  -9   2  412.12    4.80   1
  -3 -10   1 1267.13   15.83  -2
  -3 -10   2 1267.13   15.83   1
  -3 -14   4  554.19   11.90  -2
  -3 -14  -1  554.19   11.90   1
  -3 -14   2 1374.42   39.89  -2
  -3 -14   1 1374.42   39.89   1
  -3 -18   3  622.81   51.25  -2
  -3 -18   0  622.81   51.25   1
  -4 -20   4    4.97    0.99   1
  -3  -6   3  524.65   13.47   1
  -3 -14  -1  534.65   19.44   1
  -3 -10  -2  485.28    6.26   1
  -2   0   2 2122.81   37.39  -2
  -2   0   0 2122.81   37.39   1
  -3  -6   6  619.20   17.69  -2
  -3  -6  -3  619.20   17.69   1
  -3  -2   7  218.44    9.53  -2
  -3  -2  -4  218.44    9.53   1
  -3 -10   5  489.00    8.36  -2
  -3 -10  -2  489.00    8.36   1
   0 -13  -6  865.37   26.39  -2
   0 -13  -6  865.37   26.39   1
   0 -17  -5  756.03   26.92  -2
   0 -17  -5  756.03   26.92   1
  -4 -16  -1  289.79   11.82  -2
  -4 -16   5  289.79   11.82   1
  -4 -20   0  130.81    4.32  -2
  -4 -20   4  130.81    4.32   1
  -4 -12  -2  435.68   12.04  -2
  -4 -12   6  435.68   12.04   1
  -3 -14   1 1159.86   49.20   1
  -4  -8   7  494.82   11.36   1
  -3  -2  -1  856.52   17.52  -2
  -3  -2   4  856.52   17.52   1
  -7  -5   3  839.70    8.66   1
  -7  -1   4  854.24    7.53   1
  -3  -2   4   28.89    4.68   1
  -3 -18   0  530.79   26.18   1
  -3 -10   2  944.95   19.67   1
  -4  -4   8  569.38    7.97   1
  -4 -12   6  167.45    3.41   1
  -4 -16   5   29.95    1.17   1
  -2   0   0 1952.89   27.85   1
  -3  -6  -3  451.32   12.24   1
  -4  -8  -3  677.89   14.98  -2
  -4  -8   7  677.89   14.98   1
  -2  -4   2 3083.68   43.58  -2
  -2  -4   0 3083.68   43.58   1
  -7  -9   3  669.70    6.21   1
  -3 -10   0  914.45   27.34  -2
  -3 -10   3  914.45   27.34   1
  -3 -14   1 1049.51   22.10  -2
  -3 -14   2 1049.51   22.10   1
  -3 -18   4  515.99   34.10  -2
  -3 -18  -1  515.99   34.10   1
  -3 -18   2  619.77   31.20  -2
  -3 -18   1  619.77   31.20   1
  -3 -22   3  375.89   35.86  -2
  -3 -22   0  375.89   35.86   1
  -2  -4   0 2547.53   20.01   1
  -3 -14   5  595.33   12.41  -2
  -3 -14  -2  595.33   12.41   1
  -2   0   1 3680.73   82.04   1
  -3 -10   6  432.99   14.28  -2
  -3 -10  -3  432.99   14.28   1
  -6  -3   0  179.30    4.42   1
  -2   0   3 2319.97  155.60  -2
  -2   0  -1 2319.97  155.60   1
  -3  -6   7  299.56   16.63  -2
  -3  -6  -4  299.56   16.63   1
  -3  -2   8  176.09    2.91  -2
  -3  -2  -5  176.09    2.91   1
  -4 -16  -2  361.10   10.07  -2
  -4 -16   6  361.10   10.07   1
  -3  -6  -1 1020.41   10.48  -2
  -3  -6   4 1020.41   10.48   1
  -4 -12   7  321.51    5.43   1
  -3  -2  -2  832.93   12.01  -2
  -3  -2   5  832.93   12.01   1
  -7  -5   4  792.11    7.09   1
  -7  -1   5  643.45    5.83   1
  -3 -10  -3  389.09    9.02   1
  -3 -14  -2  594.00   11.17   1
  -3 -18  -1  459.46    9.51   1
  -3  -6   4  185.60    5.18   1
  -3 -22   0  283.47    7.91   1
  -3 -18   1  501.43   49.66   1
  -3 -14   2  548.63   24.70   1
  -3 -10   3  273.58   21.86   1
  -3  -2   5   52.73    4.20   1
  -4 -16   6  198.45    4.77   1
  -2   0  -1 2048.53   29.26   1
  -4 -12  -3  434.16   10.62  -2
  -4 -12   7  434.16   10.62   1
  -7  -9   4  564.36    5.45   1
  -2  -4   3 2232.33   35.32  -2
  -2  -4  -1 2232.33   35.32   1
  -2  -8   2 1493.97   14.38  -2
  -2  -8   0 1493.97   14.38   1
  -3 -10   4   18.58    1.38   1
  -3 -14   0  454.23   10.76  -2
  -3 -14   3  454.23   10.76   1
  -3 -18   1  547.93   20.39  -2
  -3 -18   2  547.93   20.39   1
  -3 -22   2  256.59    9.67  -2
  -3 -22   1  256.59    9.67   1
  -2  -4   1 1302.62   15.16   1
  -3 -18   5  365.69   13.95  -2
  -3 -18  -2  365.69   13.95   1
  -2   0   2  623.53   24.62   1
  -3 -14   6  455.60   11.98  -2
  -3 -14  -3  455.60   11.98   1
  -6  -7   0  156.53    2.23   1
  -6  -3   1  541.15    6.82   1
  -6  -3  -1   39.58    1.22   1
  -3 -10   7  374.47   17.17  -2
  -3 -10  -4  374.47   17.17   1
  -2   0   4 1756.68   17.85  -2
  -2   0  -2 1756.68   17.85   1
  -2  -4   1 1835.99   16.52  -2
  -2  -4   1 1835.99   16.52   1
  -3  -6  -5   41.81    3.82   1
  -3  -6   8  153.85    3.67  -2
  -3  -6  -5  153.85    3.67   1
  -3 -10  -1  744.25    9.20  -2
  -3 -10   4  744.25    9.20   1
  -3  -6  -2  408.57   12.08  -2
  -3  -6   5  408.57   12.08   1
  -7  -5   5  370.25    3.96   1
  -7  -1   6  288.89    3.87   1
  -2  -8   0  994.85   16.47   1
  -3 -10  -4  290.80    7.34   1
  -3 -14  -3  439.65   10.36   1
  -3  -6   5   19.23    1.17   1
  -3 -18  -2  356.56    6.48   1
  -3 -22   1  164.55   13.89   1
  -3 -14   3  100.37    3.08   1
  -3 -18   2  312.25   38.09   1
  -3  -2  -3  567.44   14.14  -2
  -3  -2   6  567.44   14.14   1
  -7 -13   3  254.18    8.36   1
  -2  -4  -1 1981.21   55.99   1
  -6  -7   1  268.92    4.32   1
  -7  -9   5  339.33    3.91   1
  -2  -4   4 1270.93   35.72  -2
  -2  -4  -2 1270.93   35.72   1
  -2  -8   1 1974.58   22.55  -2
  -2  -8   1 1974.58   22.55   1
  -2  -8   3 2412.99   29.42  -2
  -2  -8  -1 2412.99   29.42   1
  -2 -12   2 1628.21   30.06  -2
  -2 -12   0 1628.21   30.06   1
  -3 -14   4   30.53    1.24   1
  -3 -18   0  309.36   14.27  -2
  -3 -18   3  309.36   14.27   1
  -3 -22   1  228.13    7.71  -2
  -3 -22   2  228.13    7.71   1
  -2   0   3  504.18   18.90   1
  -2  -4   0 2503.66   19.03  -2
  -2  -4   2 2503.66   19.03   1
  -6 -11   0   62.53    1.38   1
  -6  -3   2  524.39    4.92   1
  -6  -7  -1   16.91    0.92   1
  -2   0   5  541.30    8.31  -2
  -2   0  -3  541.30    8.31   1
  -3 -14  -1  276.34   12.26  -2
  -3 -14   4  276.34   12.26   1
  -3 -10  -2  223.59    4.62  -2
  -3 -10   5  223.59    4.62   1
  -3  -6  -3  476.97   10.96  -2
  -3  -6   6  476.97   10.96   1
  -2   0  -1 1333.57   54.65  -2
  -2   0   3 1333.57   54.65   1
  -7  -5   6  250.89    3.14   1
  -7  -1   7   88.92    1.41   1
  -3 -10   5    5.51    0.62   1
  -2 -12   0 1195.50   14.97   1
  -2  -8   1 1343.69   16.60   1
  -3 -18   3   78.08    3.11   1
  -2  -4   2 1410.93   20.03   1
  -3  -2  -4  285.07    5.54  -2
  -3  -2   7  285.07    5.54   1
  -2  -8  -1 2102.40   42.99   1
  -3  -6   6  224.62    5.58   1
  -3 -22   2  146.83    4.98   1
  -6  -7   2  592.84    7.76   1
  -7  -9   6  287.73    3.49   1
  -6 -11   1  267.34    5.24   1
  -2  -8   4 1204.10   35.04  -2
  -2  -8  -2 1204.10   35.04   1
  -2  -8   0 1524.58   23.31  -2
  -2  -8   2 1524.58   23.31   1
  -2 -12   3 1053.22   21.95  -2
  -2 -12  -1 1053.22   21.95   1
  -2 -12   1 1740.77   44.18  -2
  -2 -12   1 1740.77   44.18   1
  -2 -16   2 1045.50   44.04  -2
  -2 -16   0 1045.50   44.04   1
  -3 -22   0  161.27   17.54  -2
  -3 -22   3  161.27   17.54   1
  -3 -18   4   12.87    2.37   1
  -2  -4  -1 1563.75   44.98  -2
  -2  -4   3 1563.75   44.98   1
  -2  -4   5  787.57   10.95  -2
  -2  -4  -3  787.57   10.95   1
  -2   0   6  455.94   11.93  -2
  -2   0  -4  455.94   11.93   1
  -3 -14  -2  293.65   10.08  -2
  -3 -14   5  293.65   10.08   1
  -3 -18  -1  221.30   14.88  -2
  -3 -18   4  221.30   14.88   1
  -3 -10  -3  305.28    5.55  -2
  -3 -10   6  305.28    5.55   1
  -3  -6  -4  408.79   10.51  -2
  -3  -6   7  408.79   10.51   1
  -6  -3   3  801.21    6.46   1
  -2  -4   3  644.12    8.27   1
  -2   0  -2 1169.89   59.43  -2
  -2   0   4 1169.89   59.43   1
  -2 -12  -1  931.64   19.50   1
  -3 -14   5   12.82    1.17   1
  -2 -12   1 1166.93   17.69   1
  -2  -8   2 1196.62   59.89   1
  -3  -2  -5  451.14    7.85  -2
  -3  -2   8  451.14    7.85   1
  -3 -22   3   42.56    2.70   1
  -3  -6   7  326.29    8.00   1
  -3 -10   6  139.24    4.04   1
  -2 -16   0  833.96   18.16   1
  -6 -11   2  481.79    8.33   1
  -6 -15   1  240.14    4.71   1
  -2 -12   4  540.38   11.41  -2
  -2 -12  -2  540.38   11.41   1
  -2  -8  -1 1370.67   49.42  -2
  -2  -8   3 1370.67   49.42   1
  -2 -12   0 1482.43   35.16  -2
  -2 -12   2 1482.43   35.16   1
  -2 -16   3  472.42   17.15  -2
  -2 -16  -1  472.42   17.15   1
  -2 -16   1 1671.90   75.32  -2
  -2 -16   1 1671.90   75.32   1
  -2 -20   2  469.90   15.27  -2
  -2 -20   0  469.90   15.27   1
  -1  -2   1 5854.43   67.10  -2
  -1  -2   0 5854.43   67.10   1
  -2  -8   5  311.30   16.93  -2
  -2  -8  -3  311.30   16.93   1
  -5  -1   0  366.26    5.63   1
  -2  -4   6  188.11    7.09  -2
  -2  -4  -4  188.11    7.09   1
  -2   0   7  130.81    4.98  -2
  -2   0  -5  130.81    4.98   1
  -2  -4  -2  653.13   19.01  -2
  -2  -4   4  653.13   19.01   1
  -3 -18  -2  172.57   13.15  -2
  -3 -18   5  172.57   13.15   1
  -3 -14  -3  248.37   14.31  -2
  -3 -14   6  248.37   14.31   1
  -3 -10  -4  424.62    6.15  -2
  -3 -10   7  424.62    6.15   1
  -6  -7   3  957.92    8.35   1
  -6  -3   4  966.53    7.72   1
  -1  -2   0 4652.53   93.46   1
  -2   0  -3  325.47   16.39  -2
  -2   0   5  325.47   16.39   1
  -2  -8   3  453.83    7.46   1
  -2 -12   2  815.58   13.39   1
  -3 -10   7  317.88    7.99   1
  -2 -16   1  950.46   20.55   1
  -5  -5   0  201.25    3.03   1
  -1  -2   2 2448.12   31.07  -2
  -1  -2  -1 2448.12   31.07   1
  -6 -11   3  747.59    8.04   1
  -6 -15   2  332.72    8.63   1
  -1  -6   1 2894.35   55.66  -2
  -1  -6   0 2894.35   55.66   1
  -2 -16   4  518.67   16.46  -2
  -2 -16  -2  518.67   16.46   1
  -2 -20   3  608.36   36.26  -2
  -2 -20  -1  608.36   36.26   1
  -2 -16   0  624.16   15.00  -2
  -2 -16   2  624.16   15.00   1
  -2 -12  -1  582.28   18.64  -2
  -2 -12   3  582.28   18.64   1
  -2 -20   1  476.24   11.04  -2
  -2 -20   1  476.24   11.04   1
  -2 -24   2  243.55    4.04  -2
  -2 -24   0  243.55    4.04   1
  -1  -2   0 5434.74   41.12  -2
  -1  -2   1 5434.74   41.12   1
  -2 -12   5  478.32   18.81  -2
  -2 -12  -3  478.32   18.81   1
  -5  -1   1  517.96    5.82   1
  -5  -1  -1   59.06    2.47   1
  -2  -8   6  315.92   14.44  -2
  -2  -8  -4  315.92   14.44   1
  -2  -4   7  125.10    2.37  -2
  -2  -4  -5  125.10    2.37   1
  -2  -8  -2  584.18   29.50  -2
  -2  -8   4  584.18   29.50   1
  -2  -4  -3  353.22    9.31  -2
  -2  -4   5  353.22    9.31   1
  -6  -7   4  689.83    8.11   1
  -6  -3   5  843.12    7.36   1
  -2  -8   4   80.31    1.55   1
  -2   0   8  207.80    5.96  -2
  -2   0  -6  207.80    5.96   1
  -2   0  -4  284.32    8.88  -2
  -2   0   6  284.32    8.88   1
  -1  -6   0 1896.37   42.36   1
  -1  -2   1 3531.59   54.69   1
  -2 -12   3  135.54    3.86   1
  -2 -16   2  231.96    7.10   1
  -2 -20   1  332.19    8.36   1
  -6  -7   5  464.85    5.18   1
  -5  -9   0  139.90    4.43   1
  -1  -2   3 2314.70   16.52  -2
  -1  -2  -2 2314.70   16.52   1
  -6 -11   4  451.05    4.86   1
  -6 -15   3  337.32   10.72   1
  -1  -6   2 4051.56   66.47  -2
  -1  -6  -1 4051.56   66.47   1
  -1  -6   0 2968.07   92.86  -2
  -1  -6   1 2968.07   92.86   1
  -1 -10   1 2572.99   58.68  -2
  -1 -10   0 2572.99   58.68   1
  -2 -20   0  366.52    6.30  -2
  -2 -20   2  366.52    6.30   1
  -2 -16  -1  259.78   13.96  -2
  -2 -16   3  259.78   13.96   1
  -2 -24   1  195.74    2.67  -2
  -2 -24   1  195.74    2.67   1
  -2 -20   4  300.26   15.54  -2
  -2 -20  -2  300.26   15.54   1
  -2 -16   5  321.20    7.97  -2
  -2 -16  -3  321.20    7.97   1
  -5  -5   1  433.10    5.49   1
  -5  -1   2  858.24   10.17   1
  -5  -5  -1   13.27    0.90   1
  -2 -12   6  243.26   11.52  -2
  -2 -12  -4  243.26   11.52   1
  -5  -1  -2   64.05    1.15   1
  -2  -8   7   90.33    3.27  -2
  -2  -8  -5   90.33    3.27   1
  -1  -2  -1 1678.82   42.38  -2
  -1  -2   2 1678.82   42.38   1
  -2 -12  -2  261.81   18.70  -2
  -2 -12   4  261.81   18.70   1
  -2  -8  -3  155.57    5.12  -2
  -2  -8   5  155.57    5.12   1
  -2  -4  -4  271.47    4.60  -2
  -2  -4   6  271.47    4.60   1
  -6  -3   6  441.82    5.22   1
  -2   0  -5  236.02   19.47  -2
  -2   0   7  236.02   19.47   1
  -1  -6   1 1806.84   25.76   1
  -2 -12   4   18.03    1.39   1
  -2 -16   3   76.01    3.24   1
  -2 -20   2  232.84    6.50   1
  -6  -7   6  367.64    5.29   1
  -5  -9   1  350.35    5.23   1
  -6 -11   5  321.46    3.72   1
  -5 -13   0  124.65    3.91   1
  -6 -15   4  355.34    8.33   1
  -1  -6   3 2368.28   37.01  -2
  -1  -6  -2 2368.28   37.01   1
  -1 -10   2 2449.62   66.92  -2
  -1 -10  -1 2449.62   66.92   1
  -1 -10   0 2670.13  136.66  -2
  -1 -10   1 2670.13  136.66   1
  -1  -6  -1 3244.01   75.26  -2
  -1  -6   2 3244.01   75.26   1
  -1 -14   1 1811.97   66.80  -2
  -1 -14   0 1811.97   66.80   1
  -2 -24   0  224.59    3.56  -2
  -2 -24   2  224.59    3.56   1
  -2 -20  -1  301.80   16.10  -2
  -2 -20   3  301.80   16.10   1
  -2 -16  -2  293.53   14.47  -2
  -2 -16   4  293.53   14.47   1
  -5  -5   2  953.69   11.60   1
  -2 -16   6  112.83    3.54  -2
  -2 -16  -4  112.83    3.54   1
  -5  -9  -1   10.33    0.97   1
  -5  -5  -2    9.13    1.38   1
  -1  -2   4 1066.70   10.89  -2
  -1  -2  -3 1066.70   10.89   1
  -5  -1  -3  117.62    2.32   1
  -2 -12   7   73.99    4.89  -2
  -2 -12  -5   73.99    4.89   1
  -1  -2  -2 1762.67   45.05  -2
  -1  -2   3 1762.67   45.05   1
  -2 -12  -3  213.98   13.90  -2
  -2 -12   5  213.98   13.90   1
  -2  -8  -4  187.99    4.46  -2
  -2  -8   6  187.99    4.46   1
  -6  -3   7   56.36    1.48   1
  -5  -1   3 1032.31    8.76   1
  -2 -20   5  124.56   11.19  -2
  -2 -20  -3  124.56   11.19   1
  -2  -4  -5  278.78   17.66  -2
  -2  -4   7  278.78   17.66   1
  -1  -6   2 1531.21   30.82   1
  -2 -12   5    2.94    1.21   1
   0   0   0    0.00    0.00   0
;
_shelx_hkl_checksum              31433
loop_
_space_group_symop_operation_xyz
'x, y, z'
'-x, y+1/2, -z'
'-x, -y, -z'
'x, -y-1/2, z'
loop_
_atom_site_label
_atom_site_type_symbol
_atom_site_fract_x
_atom_site_fract_y
_atom_site_fract_z
_atom_site_U_iso_or_equiv
_atom_site_adp_type
_atom_site_occupancy
_atom_site_site_symmetry_order
_atom_site_calc_flag
_atom_site_refinement_flags_posn
_atom_site_refinement_flags_adp
_atom_site_refinement_flags_occupancy
Re1 Re 0.01373(5) 0.2500 -0.04722(6) 0.01627(10) Uani 1 2 d S T P
O1 O -0.1358(8) 0.3213(3) -0.2231(8) 0.0318(10) Uani 1 1 d . . .
O2 O 0.2886(10) 0.2500 -0.0446(11) 0.0197(11) Uani 1 2 d S T P
C1 C 0.1047(10) 0.1899(3) 0.3180(10) 0.0175(10) Uani 1 1 d . . .
C2 C 0.2524(14) 0.2500 0.3847(13) 0.0160(14) Uani 1 2 d S T P
H2 H 0.4244 0.2500 0.4623 0.019 Uiso 1 2 calc R U P
C3 C -0.1404(10) 0.2138(3) 0.2144(10) 0.0168(10) Uani 1 1 d . . .
H3 H -0.2800 0.1852 0.1553 0.020 Uiso 1 1 calc R U .
C4 C 0.1890(10) 0.1149(3) 0.3696(10) 0.0171(10) Uani 1 1 d . . .
C5 C 0.3889(11) 0.1007(3) 0.3025(11) 0.0217(11) Uani 1 1 d . . .
H5A H 0.4482 0.0533 0.3481 0.033 Uiso 1 1 calc R U .
H5B H 0.5227 0.1333 0.3886 0.033 Uiso 1 1 calc R U .
H5C H 0.3232 0.1066 0.1281 0.033 Uiso 1 1 calc R U .
C6 C -0.0235(11) 0.0651(3) 0.2287(13) 0.0266(13) Uani 1 1 d . . .
H6A H -0.1491 0.0731 0.2751 0.040 Uiso 1 1 calc R U .
H6B H 0.0339 0.0173 0.2662 0.040 Uiso 1 1 calc R U .
H6C H -0.0910 0.0734 0.0552 0.040 Uiso 1 1 calc R U .
C7 C 0.2905(12) 0.1034(3) 0.6416(11) 0.0239(12) Uani 1 1 d . . .
H7A H 0.1649 0.1140 0.6859 0.036 Uiso 1 1 calc R U .
H7B H 0.4300 0.1339 0.7313 0.036 Uiso 1 1 calc R U .
H7C H 0.3412 0.0551 0.6814 0.036 Uiso 1 1 calc R U .
loop_
_atom_site_aniso_label
_atom_site_aniso_U_11
_atom_site_aniso_U_22
_atom_site_aniso_U_33
_atom_site_aniso_U_23
_atom_site_aniso_U_13
_atom_site_aniso_U_12
Re1 0.01301(15) 0.02412(15) 0.01241(14) 0.000 0.00671(11) 0.000
O1 0.032(2) 0.045(3) 0.019(2) 0.0147(19) 0.0131(19) 0.018(2)
O2 0.019(3) 0.028(3) 0.017(3) 0.000 0.012(2) 0.000
C1 0.023(3) 0.015(2) 0.022(3) -0.003(2) 0.016(2) -0.002(2)
C2 0.018(3) 0.019(4) 0.010(3) 0.000 0.007(3) 0.000
C3 0.018(2) 0.023(3) 0.011(2) 0.003(2) 0.008(2) -0.001(2)
C4 0.018(2) 0.017(2) 0.019(3) -0.0014(19) 0.011(2) -0.001(2)
C5 0.024(3) 0.023(3) 0.026(3) 0.000(2) 0.018(2) 0.004(2)
C6 0.028(3) 0.019(3) 0.034(3) -0.007(3) 0.015(3) -0.005(2)
C7 0.035(3) 0.019(3) 0.024(3) 0.003(2) 0.019(3) 0.004(2)
loop_
_atom_type_symbol
_atom_type_description
_atom_type_scat_dispersion_real
_atom_type_scat_dispersion_imag
_atom_type_scat_source
C C 0.0033 0.0016 'International Tables Vol C Tables 4.2.6.8 and 6.1.1.4'
H H 0.0000 0.0000 'International Tables Vol C Tables 4.2.6.8 and 6.1.1.4'
O O 0.0106 0.0060 'International Tables Vol C Tables 4.2.6.8 and 6.1.1.4'
Re Re -1.0185 7.2310 'International Tables Vol C Tables 4.2.6.8 and 6.1.1.4'
loop_
_diffrn_orient_matrix_type
_diffrn_orient_matrix_UB_11
_diffrn_orient_matrix_UB_12
_diffrn_orient_matrix_UB_13
_diffrn_orient_matrix_UB_21
_diffrn_orient_matrix_UB_22
_diffrn_orient_matrix_UB_23
_diffrn_orient_matrix_UB_31
_diffrn_orient_matrix_UB_32
_diffrn_orient_matrix_UB_33
'Nonius RMAT' -0.1499002 -0.0289310 -0.0827818 -0.0969758 0.0385327 0.0167279
-0.0315076 0.0190436 -0.1596090
'Nonius RMAT' 0.0693814 0.0289224 -0.0830032 0.1125940 -0.0386181 0.0158669
-0.1239995 -0.0188831 -0.1595819
loop_
_geom_angle_atom_site_label_1
_geom_angle_atom_site_label_2
_geom_angle_atom_site_label_3
_geom_angle
_geom_angle_site_symmetry_1
_geom_angle_site_symmetry_3
O2 Re1 O1 103.82(19) . 4_565
O2 Re1 O1 103.82(19) . .
O1 Re1 O1 105.1(3) 4_565 .
O2 Re1 C3 137.3(2) . 4_565
O1 Re1 C3 113.51(19) 4_565 4_565
O1 Re1 C3 86.24(19) . 4_565
O2 Re1 C3 137.3(2) . .
O1 Re1 C3 86.24(19) 4_565 .
O1 Re1 C3 113.51(19) . .
C3 Re1 C3 34.0(3) 4_565 .
O2 Re1 C1 102.7(2) . 4_565
O1 Re1 C1 143.72(19) 4_565 4_565
O1 Re1 C1 92.08(19) . 4_565
C3 Re1 C1 34.83(17) 4_565 4_565
C3 Re1 C1 57.51(18) . 4_565
O2 Re1 C1 102.7(2) . .
O1 Re1 C1 92.08(19) 4_565 .
O1 Re1 C1 143.72(19) . .
C3 Re1 C1 57.51(18) 4_565 .
C3 Re1 C1 34.83(17) . .
C1 Re1 C1 58.0(2) 4_565 .
O2 Re1 C2 85.1(3) . .
O1 Re1 C2 125.30(17) 4_565 .
O1 Re1 C2 125.30(17) . .
C3 Re1 C2 56.9(2) 4_565 .
C3 Re1 C2 56.9(2) . .
C1 Re1 C2 34.45(15) 4_565 .
C1 Re1 C2 34.45(16) . .
C2 C1 C3 106.3(5) . .
C2 C1 C4 127.1(5) . .
C3 C1 C4 126.3(5) . .
C2 C1 Re1 73.0(4) . .
C3 C1 Re1 72.5(3) . .
C4 C1 Re1 124.3(3) . .
C1 C2 C1 109.8(7) . 4_565
C1 C2 Re1 72.6(4) . .
C1 C2 Re1 72.6(4) 4_565 .
C1 C2 H2 125.1 . .
C1 C2 H2 125.1 4_565 .
Re1 C2 H2 121.3 . .
C3 C3 C1 108.8(3) 4_565 .
C3 C3 Re1 72.99(13) 4_565 .
C1 C3 Re1 72.7(3) . .
C3 C3 H3 125.6 4_565 .
C1 C3 H3 125.6 . .
Re1 C3 H3 120.5 . .
C1 C4 C7 106.9(4) . .
C1 C4 C5 111.0(4) . .
C7 C4 C5 109.3(5) . .
C1 C4 C6 110.8(5) . .
C7 C4 C6 109.5(5) . .
C5 C4 C6 109.3(5) . .
C4 C5 H5A 109.5 . .
C4 C5 H5B 109.5 . .
H5A C5 H5B 109.5 . .
C4 C5 H5C 109.5 . .
H5A C5 H5C 109.5 . .
H5B C5 H5C 109.5 . .
C4 C6 H6A 109.5 . .
C4 C6 H6B 109.5 . .
H6A C6 H6B 109.5 . .
C4 C6 H6C 109.5 . .
H6A C6 H6C 109.5 . .
H6B C6 H6C 109.5 . .
C4 C7 H7A 109.5 . .
C4 C7 H7B 109.5 . .
H7A C7 H7B 109.5 . .
C4 C7 H7C 109.5 . .
H7A C7 H7C 109.5 . .
H7B C7 H7C 109.5 . .
loop_
_geom_bond_atom_site_label_1
_geom_bond_atom_site_label_2
_geom_bond_distance
_geom_bond_site_symmetry_2
Re1 O2 1.725(5) .
Re1 O1 1.735(4) 4_565
Re1 O1 1.735(4) .
Re1 C3 2.393(5) 4_565
Re1 C3 2.393(5) .
Re1 C1 2.395(6) 4_565
Re1 C1 2.395(6) .
Re1 C2 2.399(7) .
C1 C2 1.420(7) .
C1 C3 1.433(7) .
C1 C4 1.524(7) .
C2 C1 1.420(7) 4_565
C2 H2 0.9500 .
C3 C3 1.400(11) 4_565
C3 H3 0.9500 .
C4 C7 1.535(8) .
C4 C5 1.536(7) .
C4 C6 1.537(8) .
C5 H5A 0.9800 .
C5 H5B 0.9800 .
C5 H5C 0.9800 .
C6 H6A 0.9800 .
C6 H6B 0.9800 .
C6 H6C 0.9800 .
C7 H7A 0.9800 .
C7 H7B 0.9800 .
C7 H7C 0.9800 .
loop_
_geom_torsion_atom_site_label_1
_geom_torsion_atom_site_label_2
_geom_torsion_atom_site_label_3
_geom_torsion_atom_site_label_4
_geom_torsion
_geom_torsion_site_symmetry_4
C3 C1 C2 C1 -1.8(8) 4_565
C4 C1 C2 C1 -176.0(3) 4_565
Re1 C1 C2 C1 63.5(5) 4_565
C3 C1 C2 Re1 -65.3(4) .
C4 C1 C2 Re1 120.5(5) .
C2 C1 C3 C3 1.1(5) 4_565
C4 C1 C3 C3 175.3(4) 4_565
Re1 C1 C3 C3 -64.54(14) 4_565
C2 C1 C3 Re1 65.6(4) .
C4 C1 C3 Re1 -120.1(5) .
C2 C1 C4 C7 71.0(7) .
C3 C1 C4 C7 -102.0(6) .
Re1 C1 C4 C7 165.1(4) .
C2 C1 C4 C5 -48.1(8) .
C3 C1 C4 C5 138.8(5) .
Re1 C1 C4 C5 46.0(6) .
C2 C1 C4 C6 -169.8(6) .
C3 C1 C4 C6 17.2(7) .
Re1 C1 C4 C6 -75.7(5) .
