#------------------------------------------------------------------------------
#$Date: 2017-02-04 04:20:21 +0200 (Sat, 04 Feb 2017) $
#$Revision: 191367 $
#$URL: file:///home/coder/svn-repositories/cod/cif/4/08/68/4086849.cif $
#------------------------------------------------------------------------------
#
# This file is available in the Crystallography Open Database (COD),
# http://www.crystallography.net/
#
# All data on this site have been placed in the public domain by the
# contributors.
#
data_4086849
loop_
_publ_author_name
'Son, Jung-Ho'
'Tamang, Sem Raj'
'Fostvedt, Jade I.'
'Hoefelmeyer, James D.'
_publ_section_title
;
 Dehydrodechlorination of Methylene Chloride, Chloroform, and
 Chlorodiphenylmethane in the Presence of Ga/N Lewis Pairs
;
_journal_issue                   2
_journal_name_full               Organometallics
_journal_page_first              474
_journal_paper_doi               10.1021/acs.organomet.6b00867
_journal_volume                  36
_journal_year                    2017
_chemical_formula_moiety         'C9 H7 Cl3 Ga N'
_chemical_formula_sum            'C9 H7 Cl3 Ga N'
_chemical_formula_weight         305.23
_chemical_name_common
'trichloro(quinolinium-8-yl)gallate(III) zwitterion; 5'
_chemical_name_systematic
;
 ?
;
_space_group_crystal_system      triclinic
_space_group_IT_number           2
_space_group_name_Hall           '-P 1'
_space_group_name_H-M_alt        'P -1'
_symmetry_space_group_name_Hall  '-P 1'
_symmetry_space_group_name_H-M   'P -1'
_atom_sites_solution_hydrogens   mixed
_audit_creation_method           SHELXL-2013
_cell_angle_alpha                71.449(2)
_cell_angle_beta                 73.839(2)
_cell_angle_gamma                69.2850(10)
_cell_formula_units_Z            2
_cell_length_a                   6.9531(12)
_cell_length_b                   9.4470(16)
_cell_length_c                   9.6421(16)
_cell_measurement_reflns_used    3776
_cell_measurement_temperature    100(2)
_cell_measurement_theta_max      25.34
_cell_measurement_theta_min      2.27
_cell_volume                     551.72(16)
_computing_cell_refinement       'Bruker SMART'
_computing_data_collection       'Bruker SMART'
_computing_data_reduction        'Bruker SAINT'
_computing_molecular_graphics    'Bruker SHELXTL'
_computing_publication_material  'Bruker SHELXTL'
_computing_structure_refinement  'Bruker SHELXTL'
_computing_structure_solution    'Bruker SHELXTL'
_diffrn_ambient_temperature      100(2)
_diffrn_measured_fraction_theta_full 0.998
_diffrn_measured_fraction_theta_max 0.995
_diffrn_measurement_device_type  'CCD area detector'
_diffrn_measurement_method       'phi and omega scans'
_diffrn_radiation_monochromator  graphite
_diffrn_radiation_source         'sealed tube'
_diffrn_radiation_type           MoK\a
_diffrn_radiation_wavelength     0.71073
_diffrn_reflns_av_R_equivalents  0.0287
_diffrn_reflns_av_unetI/netI     0.0354
_diffrn_reflns_Laue_measured_fraction_full 0.998
_diffrn_reflns_Laue_measured_fraction_max 0.995
_diffrn_reflns_limit_h_max       8
_diffrn_reflns_limit_h_min       -8
_diffrn_reflns_limit_k_max       11
_diffrn_reflns_limit_k_min       -11
_diffrn_reflns_limit_l_max       11
_diffrn_reflns_limit_l_min       -11
_diffrn_reflns_number            5520
_diffrn_reflns_point_group_measured_fraction_full 0.998
_diffrn_reflns_point_group_measured_fraction_max 0.995
_diffrn_reflns_theta_full        25.242
_diffrn_reflns_theta_max         25.358
_diffrn_reflns_theta_min         2.268
_exptl_absorpt_coefficient_mu    3.176
_exptl_absorpt_correction_T_max  0.826
_exptl_absorpt_correction_T_min  0.766
_exptl_absorpt_correction_type   multi-scan
_exptl_absorpt_process_details   SADABS
_exptl_crystal_colour            colorless
_exptl_crystal_density_diffrn    1.837
_exptl_crystal_description       plate
_exptl_crystal_F_000             300
_exptl_crystal_size_max          0.11
_exptl_crystal_size_mid          0.07
_exptl_crystal_size_min          0.06
_refine_diff_density_max         0.619
_refine_diff_density_min         -0.604
_refine_diff_density_rms         0.132
_refine_ls_extinction_method     none
_refine_ls_goodness_of_fit_ref   1.074
_refine_ls_hydrogen_treatment    mixed
_refine_ls_matrix_type           full
_refine_ls_number_parameters     131
_refine_ls_number_reflns         2032
_refine_ls_number_restraints     0
_refine_ls_restrained_S_all      1.074
_refine_ls_R_factor_all          0.0379
_refine_ls_R_factor_gt           0.0252
_refine_ls_shift/su_max          0.000
_refine_ls_shift/su_mean         0.000
_refine_ls_structure_factor_coef Fsqd
_refine_ls_weighting_details
'w=1/[\s^2^(Fo^2^)+(0.0180P)^2^+0.4706P] where P=(Fo^2^+2Fc^2^)/3'
_refine_ls_weighting_scheme      calc
_refine_ls_wR_factor_gt          0.0478
_refine_ls_wR_factor_ref         0.0537
_reflns_Friedel_coverage         0.000
_reflns_number_gt                1747
_reflns_number_total             2032
_reflns_threshold_expression     'I > 2\s(I)'
_cod_data_source_file            om6b00867_si_001.cif
_cod_data_source_block           shelx
_cod_depositor_comments
'Adding full bibliography for 4086847--4086852.cif.'
_cod_database_code               4086849
_shelx_space_group_comment
;
The symmetry employed for this shelxl refinement is uniquely defined
by the following loop, which should always be used as a source of
symmetry information in preference to the above space-group names.
They are only intended as comments.
;
_shelxl_version_number           2013-4
_shelx_res_file
;
TITL 13023 in P-1
CELL  0.71073   6.9531   9.4470   9.6421   71.449   73.839   69.285
ZERR     2.00   0.0012   0.0016   0.0016    0.002    0.002    0.001
LATT   1
SFAC  C    H    N    CL   GA
UNIT  18   14   2    6    2
MERG   2
FMAP   2
PLAN   25
ACTA
BOND   $H
L.S.   4
WGHT    0.018000    0.470600
FVAR       0.57754
GA1   5    0.202491    0.327823    0.759187    11.00000    0.01526    0.01366 =
         0.01203   -0.00372   -0.00225   -0.00205
CL3   4    0.108930    0.570670    0.621854    11.00000    0.01949    0.01327 =
         0.01738   -0.00370   -0.00551   -0.00134
CL2   4    0.263284    0.331158    0.967822    11.00000    0.03452    0.02538 =
         0.01443   -0.00542   -0.00824   -0.00498
CL1   4   -0.073196    0.243636    0.807636    11.00000    0.01747    0.01980 =
         0.02670   -0.00940    0.00236   -0.00571
N1    3    0.416040    0.352157    0.400550    11.00000    0.01301    0.01418 =
         0.01382   -0.00637   -0.00039    0.00006
C9    1    0.514933    0.218831    0.495556    11.00000    0.01225    0.01183 =
         0.01719   -0.00206   -0.00644   -0.00400
C10   1    0.683515    0.109702    0.427769    11.00000    0.01256    0.01535 =
         0.01941   -0.00500   -0.00559   -0.00660
C7    1    0.562287    0.058710    0.736271    11.00000    0.01458    0.02032 =
         0.01221   -0.00364   -0.00071   -0.00684
AFIX  43
H7    2    0.527717    0.040426    0.839487    11.00000   -1.20000
AFIX   0
C5    1    0.786943   -0.030119    0.521926    11.00000    0.01019    0.01381 =
         0.02150   -0.00544   -0.00348   -0.00276
AFIX  43
H5    2    0.894604   -0.105648    0.480646    11.00000   -1.20000
AFIX   0
C6    1    0.728881   -0.053827    0.672392    11.00000    0.01549    0.01189 =
         0.01954   -0.00238   -0.00736   -0.00244
AFIX  43
H6    2    0.799155   -0.144594    0.733653    11.00000   -1.20000
AFIX   0
C4    1    0.742004    0.143443    0.271712    11.00000    0.01365    0.01551 =
         0.02059   -0.00839    0.00044   -0.00494
AFIX  43
H4    2    0.853269    0.072527    0.226970    11.00000   -1.20000
AFIX   0
C2    1    0.470406    0.383045    0.253943    11.00000    0.01998    0.01753 =
         0.01567    0.00161   -0.00702   -0.00458
AFIX  43
H2    2    0.396341    0.475097    0.196353    11.00000   -1.20000
AFIX   0
C8    1    0.448730    0.194525    0.652107    11.00000    0.01133    0.01424 =
         0.01718   -0.00434   -0.00355   -0.00408
C3    1    0.637489    0.279094    0.184902    11.00000    0.02036    0.02088 =
         0.01430   -0.00447   -0.00059   -0.00746
AFIX  43
H3    2    0.677271    0.301456    0.081748    11.00000   -1.20000
AFIX   0
H99   2    0.318673    0.414635    0.439639    11.00000    0.00806
HKLF    4

REM  13023 in P-1
REM R1 =  0.0252 for    1747 Fo > 4sig(Fo)  and  0.0379 for all    2032 data
REM    131 parameters refined using      0 restraints

END

WGHT      0.0180      0.4705

REM Highest difference peak  0.619,  deepest hole -0.604,  1-sigma level  0.132
Q1    1   0.3427  0.2746  0.7273  11.00000  0.05    0.62
Q2    1   0.2544  0.4379  0.8791  11.00000  0.05    0.52
Q3    1   0.3692  0.3370  0.6177  11.00000  0.05    0.50
Q4    1   0.2888  0.4194  0.7748  11.00000  0.05    0.50
Q5    1   0.3310  0.3719  0.6037  11.00000  0.05    0.50
Q6    1   0.5895  0.1464  0.4556  11.00000  0.05    0.49
Q7    1   0.4718  0.2761  0.4421  11.00000  0.05    0.49
Q8    1   0.1400  0.5060  0.1574  11.00000  0.05    0.49
Q9    1   0.2348  0.4193  0.6861  11.00000  0.05    0.47
Q10   1   0.7163  0.0537  0.4946  11.00000  0.05    0.46
Q11   1   0.7095  0.1663  0.5675  11.00000  0.05    0.46
Q12   1   0.1540  0.4612  0.9644  11.00000  0.05    0.45
Q13   1  -0.0046  0.5069  0.7610  11.00000  0.05    0.45
Q14   1   0.2181  0.2331  0.7218  11.00000  0.05    0.45
Q15   1   0.8458  0.4404 -0.0366  11.00000  0.05    0.44
Q16   1   0.1903  0.4861  0.5672  11.00000  0.05    0.43
Q17   1   0.7283  0.1174  0.3750  11.00000  0.05    0.42
Q18   1   0.7903  0.2159  0.4595  11.00000  0.05    0.41
Q19   1   0.1128  0.2481  0.8096  11.00000  0.05    0.41
Q20   1   0.0493  0.4991  0.6599  11.00000  0.05    0.40
Q21   1  -0.0916  0.4680  0.8551  11.00000  0.05    0.40
Q22   1   0.4642  0.3592  0.5215  11.00000  0.05    0.40
Q23   1   0.9101  0.1682  0.3754  11.00000  0.05    0.40
Q24   1  -0.0345  0.1293  0.7649  11.00000  0.05    0.39
Q25   1   0.2363  0.2340  0.9679  11.00000  0.05    0.39
;
_shelx_res_checksum              82899
_shelx_hkl_file
;
   2   1   0   58.20    5.45
   2   1   0   47.97    3.21
  -2  -1   0   56.76    4.89
   2   1   0   51.90    2.05
   4   2   0  812.39   12.96
   4   2   0  802.02   22.69
   4   2   0  806.63   16.80
  -4  -2   0  805.15   23.41
   6   3   0   88.58    7.02
  -6  -3   0   84.64   12.24
  -6  -3   0   94.01   12.97
   8   4   0   25.51    6.86
  -8  -4   0   11.60   17.77
  -8  -4  -1   53.09   18.70
   8   4   1   37.66    6.53
  -6  -3  -1  970.45   29.62
   6   3   1  960.21   21.60
  -6  -3  -1  951.68   30.30
   4   2   1  130.37    6.20
  -4  -2  -1  131.91    7.78
   4   2   1  136.03    9.75
   4   2   1  132.47    4.55
   2   1   1  133.81    3.98
   2   1   1  146.96    6.93
  -2  -1  -1  132.47    5.45
   2   1   1  133.98    4.42
   0   0   1  313.51    9.01
   0   0   1  309.83    5.35
   2   1  -1 1740.92   34.53
   2   1  -1 1673.49   26.25
  -2  -1   1 1725.17   38.78
  -4  -2   1   12.58    6.24
   4   2  -1   14.77    3.51
   4   2  -1   20.78    7.43
  -6  -3   1  617.01   28.78
   6   3  -1  643.47   17.78
  -6  -3   1  636.98   24.61
  -8  -4  -2   88.16   17.85
   8   4   2   81.14    8.51
  -6  -3  -2  178.82   15.41
   6   3   2  183.04    8.92
  -4  -2  -2  708.24   20.58
  -4  -2  -2  710.55   19.34
   4   2   2  735.70   13.80
   4   2   2  722.41   15.26
  -2  -1  -2  296.26    9.93
   2   1   2  318.82    9.49
   2   1   2  312.91    7.22
   2   1   2  312.06    7.30
   0   0   2 1562.09   23.23
   0   0  -2 1583.57   23.97
   0   0   2 1637.90   36.50
   0   0  -2 1553.93   29.94
   2   1  -2   88.37    4.53
   2   1  -2   83.86    5.96
  -2  -1   2   84.26    9.78
   2   1  -2   84.08    2.26
   4   2  -2   91.47    6.16
   4   2  -2   94.63    9.36
  -4  -2   2  106.19   15.41
   6   3  -2   83.20    7.34
  -6  -3   2   97.17   13.26
   8   4   3   54.63    7.61
  -8  -4  -3   69.14   19.51
   6   3   3  440.37   13.72
  -6  -3  -3  438.69   21.07
   4   2   3  674.34   18.25
  -4  -2  -3  654.65   19.94
   4   2   3  664.13   14.70
   4   2   3  657.25   13.82
   2   1   3   45.01    3.44
  -2  -1  -3   60.30    7.18
   2   1   3   46.53    3.62
   2   1   3   47.19    5.20
   0   0  -3    4.41    2.35
   0   0   3    2.45    1.52
   0   0  -3    5.28    1.76
   0   0   3   11.25    6.85
  -2  -1   3   16.50    7.36
   2   1  -3   14.80    1.76
   2   1  -3   22.96    4.70
   2   1  -3   13.65    2.94
   4   2  -3   84.84    9.68
   4   2  -3   89.80    6.39
  -4  -2   3   93.14   17.89
   6   3  -3  118.50    8.71
  -6  -3   3  140.12   15.04
  -8  -4  -4    0.29   17.53
   8   4   4    7.41    5.70
   6   3   4   -0.33    3.89
   6   3   4    3.78    3.14
  -6  -3  -4    6.50   11.99
   4   2   4 1074.62   26.30
   4   2   4 1040.97   20.64
  -4  -2  -4 1021.00   27.18
   4   2   4 1015.01   19.93
  -2  -1  -4   35.04    3.61
   2   1   4   30.40    6.60
   2   1   4   28.33    3.11
  -2  -1  -4   29.07    7.27
   0   0  -4 1125.53   20.50
   0   0   4 1102.71   19.05
   0   0   4 1112.94   33.06
   0   0  -4 1130.04   21.55
   2   1  -4   53.83    4.62
  -2  -1   4   56.50   14.49
   2   1  -4   48.82    6.07
  -2  -1   4   47.76    3.02
  -4  -2   4  -13.06   12.81
   4   2  -4    5.04    3.72
   4   2  -4    8.24    7.75
   6   3  -4  180.05   10.63
  -6  -3   4  232.13   17.86
   8   4   5   28.97    6.84
  -8  -4  -5   21.15   20.22
   6   3   5   52.72    5.86
   6   3   5   43.41    5.03
  -6  -3  -5   40.41   14.74
   4   2   5   54.15    7.09
   4   2   5   58.85    5.71
   4   2   5   59.44    5.15
  -4  -2  -5   52.20   12.31
   2   1   5  172.36    6.71
  -2  -1  -5  171.64    7.20
  -2  -1  -5  166.52    7.69
   2   1   5  169.62   10.91
   0   0  -5  821.93   16.43
   0   0  -5  805.10   17.52
   0   0   5  788.20   30.75
   0   0   5  812.74   15.78
   2   1  -5 1219.81   24.98
   2   1  -5 1228.07   27.88
  -2  -1   5 1246.96   43.07
   4   2  -5   44.15    5.35
  -4  -2   5    8.08   16.12
   4   2  -5   34.58    9.68
   6   3  -5   71.00    8.11
  -6  -3   5   95.40   16.18
  -8  -4  -6    8.30   21.17
   8   4   6   29.98    6.67
   6   3   6   60.08    6.36
   6   3   6   65.91    6.24
  -6  -3  -6   64.38   16.77
   4   2   6  304.98   13.80
  -4  -2  -6  289.90   17.56
  -4  -2  -6  307.42   11.19
   4   2   6  295.69   10.48
   2   1   6  197.73   13.46
   2   1   6  200.90    8.01
  -2  -1  -6  190.69    8.49
   0   0  -6  208.92    8.77
   0   0   6  209.76   22.12
   0   0   6  207.81    7.52
  -2  -1   6  540.92   33.75
   2   1  -6  504.19   15.47
   4   2  -6  321.61   13.19
  -4  -2   6  251.62   32.27
  -6  -3  -7  135.46    9.16
   6   3   7  139.41    8.37
   4   2   7   26.38    6.38
   4   2   7   26.37    4.59
  -4  -2  -7   33.39    6.00
   2   1   7  361.01   19.16
  -2  -1  -7  363.21   12.47
   2   1   7  356.07   11.68
   0   0   7  246.68   24.24
   0   0   7  224.13    8.68
   0   0  -7  225.36    9.86
  -2  -1   7  554.24   35.00
   2   1  -7  572.21   17.76
   4   2  -7   63.84    7.70
   6   3   8   38.03    5.88
  -6  -3  -8   41.20    7.22
   4   2   8 1534.72   31.18
  -4  -2  -8 1526.69   31.39
  -2  -1  -8   13.19    4.77
   2   1   8   10.76    8.18
   2   1   8   10.85    3.77
   0   0  -8  324.26   13.00
   0   0   8  337.46   26.12
   0   0   8  339.65   11.30
   2   1  -8    0.84    4.69
   6   3   9  137.19    9.45
  -6  -3  -9  137.63   10.51
  -4  -2  -9   10.45    5.41
   4   2   9    8.43    4.23
   2   1   9  779.30   29.73
  -2  -1  -9  740.26   20.78
   2   1   9  765.56   19.74
   0   0  -9   11.25    5.12
   0   0   9   13.23    4.06
   0   0   9    8.54   12.46
   2   1  -9  301.49   14.51
  -4  -2 -10   42.86    7.67
   4   2  10   37.32    6.31
   2   1  10   42.26   10.57
   2   1  10   31.74    5.84
  -2  -1 -10   40.66    6.99
   0   0  10   55.86   14.44
   0   0 -10   71.72    8.04
   4   2  11   -2.82    4.22
  -4  -2 -11    5.82    5.79
   2   1  11    4.53    4.47
  -2  -1 -11    9.04    5.32
   2   1  11   12.69    9.47
   1   1  11   78.09    7.59
   1   1  11   67.29   17.05
  -1  -1 -11   69.66    7.80
  -3  -2 -11   11.72    6.05
   3   2  11   16.23    5.12
  -1   0  10  -10.62   16.21
   1   0 -10   36.25    6.41
   1   1  10  185.15   19.79
   1   1  10  216.14   10.36
  -1  -1 -10  204.44   11.36
  -3  -2 -10   70.03    8.18
   3   2  10   71.87    7.21
   5   3  10   64.68    7.50
  -5  -3 -10   59.12    8.34
   3   1  -9   12.19    5.62
  -1   0   9  327.48   33.14
   1   0  -9  398.02   15.49
   1   1   9  525.37   26.98
   1   1   9  528.72   15.36
  -1  -1  -9  516.53   16.91
   3   2   9  265.21   16.84
   3   2   9  269.00   11.53
  -3  -2  -9  248.28   11.93
   5   3   9   26.78    5.61
  -5  -3  -9   41.50    6.62
   3   1  -8   25.48    6.23
   1   0  -8    4.12    4.32
  -1   0   8  -11.15   15.97
   1   1   8  448.71   13.30
  -1  -1  -8  439.01   14.70
   1   1   8  454.06   23.79
   3   2   8  157.19    8.52
   3   2   8  156.42   13.40
  -3  -2  -8  152.75    9.17
  -5  -3  -8  566.52   17.71
   5   3   8  552.91   16.92
  -7  -4  -8  237.38   12.94
   7   4   8  238.67   11.65
   3   1  -7  498.73   16.49
  -3  -1   7  403.31   35.96
  -1   0   7   47.99    4.53
  -1   0   7   52.87   18.17
   1   0  -7   44.85    6.20
   1   1   7  148.59   17.50
   1   1   7  142.31    7.22
  -1  -1  -7  138.70    7.96
  -3  -2  -7   15.54    4.26
   3   2   7   13.63    3.56
   3   2   7   17.41    6.74
   5   3   7    1.90    3.42
  -5  -3  -7   -0.45    4.16
   7   4   7  200.35   11.42
   7   4   7  190.44    9.93
  -5  -2   6   17.39   20.10
  -3  -1   6   30.41   15.13
   3   1  -6   50.53    6.08
   1   0  -6  351.98   12.21
  -1   0   6  357.36    9.55
  -1   0   6  396.91   28.19
   1   1   6   82.78   14.48
   1   1   6   96.49    5.67
  -1  -1  -6  108.83    6.49
  -3  -2  -6  237.44    9.59
   3   2   6  236.17    8.95
   3   2   6  241.34   12.98
  -3  -2  -6  247.85   12.86
  -5  -3  -6    9.86   15.08
   5   3   6    9.48    3.68
   5   3   6   18.60    4.98
   7   4   6   11.47    5.73
  -7  -4  -6   -1.59   18.11
   7   4   6    8.84    4.06
  -5  -2   5   39.13   19.41
   5   2  -5   93.37    7.89
   5   2  -5   72.60   11.23
   3   1  -5  398.36   13.01
   3   1  -5  412.23   15.34
  -3  -1   5  413.67   28.59
  -1   0   5  170.90    5.88
   1   0  -5  179.83    7.92
  -1   0   5  190.03   18.36
   1   0  -5  186.32    7.49
   1   1   5   13.82    7.74
  -1  -1  -5   21.96    3.74
  -1  -1  -5   24.99    3.22
   1   1   5   12.57    2.76
  -3  -2  -5   18.03    3.87
   3   2   5   16.10    3.23
  -3  -2  -5   12.60    9.00
   3   2   5    9.93    3.91
   5   3   5   -1.98    3.92
  -5  -3  -5   -4.35   12.91
   5   3   5    1.10    3.01
  -7  -4  -5   38.76   18.24
   7   4   5   38.28    6.53
   5   2  -4  143.43    8.35
  -5  -2   4  123.90   21.70
   5   2  -4  163.37   12.66
   3   1  -4  124.33    9.25
  -3  -1   4  136.78   17.28
   3   1  -4  129.76    6.87
   1   0  -4   49.35    4.42
   1   0  -4   49.41    4.28
  -1   0   4   50.57    3.13
  -1   0   4   39.84    8.78
  -1  -1  -4 2620.56   48.00
   1   1   4 2576.24   57.76
   1   1   4 2603.06   39.07
  -1  -1  -4 2573.08   39.46
   3   2   4  165.66    6.55
   3   2   4  169.91    7.73
  -3  -2  -4  167.60   12.20
   3   2   4  172.52    6.94
   5   3   4  173.95    7.37
  -5  -3  -4  174.00   16.35
   5   3   4  185.47    8.27
   7   4   4    7.14    5.38
  -7  -4  -4   -4.22   15.47
   7   3  -3  132.75    9.89
  -7  -3   3  197.93   17.82
  -5  -2   3  192.44   20.56
   5   2  -3  195.13    9.38
   5   2  -3  192.03   12.83
  -3  -1   3  143.30   14.50
   3   1  -3  153.63    9.06
   3   1  -3  155.80    6.96
  -1   0   3   25.24    6.45
   1   0  -3   23.10    3.50
  -1   0   3   24.42    2.29
   1   0  -3   25.68    3.29
  -1  -1  -3 1275.04   25.00
   1   1   3 1271.86   30.55
   1   1   3 1251.18   20.43
  -1  -1  -3 1267.97   20.70
   3   2   3 1109.14   19.38
   3   2   3 1106.37   24.81
  -3  -2  -3 1076.08   26.52
   3   2   3 1089.41   19.60
   5   3   3   26.74    4.75
  -5  -3  -3   38.12   12.25
   5   3   3   19.77    3.15
  -5  -3  -3   14.46    3.63
  -7  -4  -3  616.22   28.22
   7   4   3  628.06   18.26
  -7  -3   2   78.62   13.50
   7   3  -2   49.71    7.25
  -5  -2   2  -10.09    8.39
   5   2  -2    1.24    8.01
   5   2  -2    6.21    3.78
   3   1  -2  825.89   16.82
  -3  -1   2  876.51   26.93
   3   1  -2  879.51   22.14
  -1   0   2  188.09    4.10
   1   0  -2  184.32    6.54
  -1   0   2  194.43   10.50
   1   0  -2  182.76    5.55
  -1  -1  -2  931.61   19.71
   1   1   2  945.02   20.74
  -1  -1  -2  906.16   14.97
   1   1   2  922.01   15.06
   3   2   2   80.88    4.58
  -3  -2  -2   82.84    8.37
  -3  -2  -2   83.50    4.64
   3   2   2   81.54    4.00
  -5  -3  -2  245.71   11.32
   5   3   2  248.64    9.38
   5   3   2  245.31    7.37
  -5  -3  -2  240.30   16.09
   7   4   2   46.51    6.63
  -7  -4  -2   44.91   16.48
   7   3  -1   43.98    6.68
  -7  -3   1   66.39   13.37
  -7  -3   1   15.36   13.30
   5   2  -1  562.73   20.60
  -5  -2   1  581.01   22.93
   5   2  -1  593.10   15.31
   3   1  -1  631.39   17.31
   3   1  -1  599.33   12.87
  -3  -1   1  627.16   19.16
   1   0  -1  893.28   14.08
  -1   0   1  900.53   14.57
   1   0  -1  896.50   18.47
  -1   0   1  909.66   20.86
   1   1   1    9.81    1.55
   1   1   1   10.20    1.38
  -1  -1  -1   20.27    4.31
   1   1   1    8.69    1.67
   3   2   1  421.05    9.88
  -3  -2  -1  411.48   13.90
   3   2   1  435.38    8.61
  -3  -2  -1  434.56   12.64
  -5  -3  -1    8.73    5.38
  -5  -3  -1    0.71   10.44
   5   3   1    7.78    3.90
   7   4   1  118.31    8.63
  -7  -4  -1  119.48   17.11
  -7  -3   0  149.75   14.92
   7   3   0  132.62    9.16
  -5  -2   0   34.56    8.07
   5   2   0   40.59    9.51
   5   2   0   29.10    4.72
   3   1   0 2230.14   34.21
  -3  -1   0 2193.54   48.77
   3   1   0 2304.47   32.02
   3   1   0 2343.89   45.89
   1   0   0    6.03    2.07
   1   0   0    5.52    1.09
   1   0   0    5.30    0.78
  -1   0   0    3.23    1.39
   1   1   0 1803.04   25.17
  -1  -1   0 1715.26   32.99
   1   1   0 1716.90   24.73
  -1  -1   0 1764.71   36.44
   3   2   0  459.44   10.65
   3   2   0  471.79    8.24
  -3  -2   0  466.66   15.14
   3   2   0  461.44   14.49
  -5  -3   0  227.92   15.34
  -5  -3   0  242.70   15.50
   5   3   0  245.23    9.32
  -7  -4   0    1.75   14.49
   7   4   0   -0.21    5.02
  -7  -3  -1  248.89   17.65
   7   3   1  245.52   11.31
   5   2   1   65.31    5.52
   5   2   1   69.34   10.03
  -5  -2  -1   58.69    7.49
   3   1   1   14.62    2.47
   3   1   1   16.92    4.86
   3   1   1   11.24    1.81
  -3  -1  -1    9.39    2.46
   1   0   1 2156.76   44.61
   1   0   1 2151.35   30.64
   1   0   1 2242.75   40.50
   1   0   1 2274.13   31.36
   1   1  -1   19.27    3.68
   1   1  -1   15.50    2.36
   1   1  -1   12.95    1.45
  -1  -1   1   35.10    7.89
   3   2  -1 1582.26   26.49
  -3  -2   1 1538.63   40.00
   3   2  -1 1580.92   34.54
   3   2  -1 1630.14   22.80
  -5  -3   1  151.91   14.48
   5   3  -1  153.40    8.17
  -5  -3   1  147.23   16.77
   7   4  -1   18.00    5.98
  -7  -4   1   17.51   16.04
  -7  -3  -2  228.85   17.50
   7   3   2  216.66   10.58
  -5  -2  -2  389.71   14.81
   5   2   2  373.23   11.31
   5   2   2  393.40    9.69
   5   2   2  398.53   16.45
   3   1   2  362.62   11.74
   3   1   2  356.85    8.36
   3   1   2  365.31    8.97
   3   1   2  368.68   11.93
   1   0   2  155.98    4.61
  -1   0  -2  152.24    4.73
   1   0   2  141.36    7.64
   1   0   2  148.75    4.53
   1   1  -2   76.89    4.15
  -1  -1   2  103.46   11.54
   1   1  -2   93.58    5.13
  -1  -1   2   83.62    3.08
   3   2  -2  166.50    6.90
  -3  -2   2  168.08   15.41
   3   2  -2  162.70    9.50
  -5  -3   2  229.68   16.06
  -5  -3   2  209.18   20.70
   5   3  -2  219.08    9.56
   7   4  -2    0.88    5.32
  -7  -4   2   -6.52   15.23
  -7  -3  -3  128.90   15.66
   7   3   3  130.15    8.73
  -5  -2  -3   44.73   10.32
  -5  -2  -3   53.01    6.26
   5   2   3   57.20    4.54
   5   2   3   47.92    5.26
   3   1   3   61.39    3.98
   3   1   3   54.13    4.17
   3   1   3   62.82    6.28
   3   1   3   59.12    5.61
   1   0   3  320.94   12.79
   1   0   3  304.83    7.75
  -1   0  -3  329.44    8.16
   1   1  -3  127.13    5.83
   1   1  -3  121.24    5.23
  -1  -1   3  134.30   13.40
  -1  -1   3  121.46    4.20
   3   2  -3  131.64    6.67
   3   2  -3  133.96    9.55
  -3  -2   3  122.89   18.00
  -5  -3   3   39.49   14.84
  -5  -3   3   89.96   13.13
   5   3  -3   73.14    6.72
   7   4  -3   40.13    7.29
  -7  -4   3   47.35   19.06
  -7  -3  -4  208.33   18.25
   7   3   4  200.32   10.18
   5   2   4    5.24    3.75
  -5  -2  -4   13.23   10.02
   5   2   4    4.14    2.85
   5   2   4   10.53    4.10
   3   1   4  817.27   16.52
   3   1   4  808.19   22.23
  -3  -1  -4  820.24   16.56
  -3  -1  -4  799.58   20.12
   1   0   4    0.08    4.81
  -1   0  -4    1.72    2.39
   1   0   4    1.55    1.86
  -1  -1   4    0.44    8.52
   1   1  -4    4.56    2.72
  -1  -1   4    2.59    1.70
   1   1  -4   10.45    3.83
  -3  -2   4  124.52   21.74
   3   2  -4  141.73   10.13
   3   2  -4  148.59    7.71
  -5  -3   4  274.75   17.52
  -5  -3   4  153.05   25.71
   5   3  -4  241.77   11.10
   7   3   5    1.24    4.99
  -7  -3  -5   -0.73   14.01
   5   2   5  193.27    8.34
  -5  -2  -5  180.24   14.48
   5   2   5  185.91    8.94
   5   2   5  192.69   10.74
  -3  -1  -5  534.76   13.54
  -3  -1  -5  525.39   17.29
   3   1   5  541.96   18.29
   3   1   5  540.56   13.37
   1   0   5 1999.53   48.41
  -1   0  -5 1982.25   33.02
   1   0   5 1924.27   32.10
   1   1  -5   46.76    5.84
   1   1  -5   49.18    4.78
  -1  -1   5   46.33   14.16
  -1  -1   5   45.29    3.77
   3   2  -5  645.98   17.36
  -3  -2   5  673.07   21.28
  -5  -3   5    8.21   12.52
   5   3  -5   -4.03    4.08
  -7  -3  -6  101.61   18.73
   7   3   6  119.08    8.86
   7   3   6  128.70    8.02
  -5  -2  -6   18.32    4.56
   5   2   6   14.77    3.87
   3   1   6  152.13    7.53
  -3  -1  -6  153.70    7.88
   3   1   6  151.72   11.80
   1   0   6  338.78   18.97
   1   0   6  336.05   10.25
  -1   0  -6  344.82   11.37
  -1  -1   6  449.53   30.90
  -1  -1   6  433.40   11.22
   1   1  -6  454.01   13.84
  -3  -2   6  143.22   27.18
   3   2  -6  182.92    9.71
   5   3  -6  553.97   18.73
  -7  -3  -7    8.04    5.50
   7   3   7    1.89    4.25
   5   2   7  458.93   14.51
  -5  -2  -7  471.29   15.02
   3   1   7   26.78    7.67
  -3  -1  -7   29.05    5.22
   3   1   7   25.10    4.74
   1   0   7  588.30   15.06
  -1   0  -7  597.58   16.40
   1   0   7  594.14   26.01
  -1  -1   7    2.88   13.79
   1   1  -7    4.78    3.83
  -1  -1   7    6.41    2.91
  -3  -2   7  -18.29   19.65
   7   3   8  399.25   15.08
  -7  -3  -8  392.86   15.94
   5   2   8    0.70    3.41
  -5  -2  -8   -1.31    4.61
   3   1   8  180.97    9.11
  -3  -1  -8  166.65    9.06
   3   1   8  197.95   14.54
   1   0   8   35.99   10.62
   1   0   8   34.86    5.18
  -1   0  -8   34.97    5.88
   1   1  -8  373.12   14.22
  -1  -1   8  339.32   29.83
   3   2  -8    8.15    5.44
  -5  -2  -9  914.11   24.18
   5   2   9  915.64   23.81
  -3  -1  -9   11.16    5.11
   3   1   9    3.32    3.51
   3   1   9    9.04    7.75
   1   0   9  467.59   25.13
   1   0   9  498.70   15.22
  -1   0  -9  462.29   15.76
   1   1  -9  113.19    9.07
  -1  -1   9   65.79   18.34
  -5  -2 -10   23.26    6.74
   5   2  10   14.47    5.21
   3   1  10    4.35    4.14
  -3  -1 -10   11.88    5.65
   3   1  10   11.18    7.85
  -1   0 -10  114.62    9.13
   1   0  10  107.55    8.09
   1   0  10  128.07   17.21
  -1  -1  10  163.41   26.90
   1   1 -10  226.53   12.79
   3   1  11    5.54    4.71
  -3  -1 -11   12.48    5.94
   0  -1 -11    2.33    4.75
   0   1  11  -27.71   14.66
   2   2  11   33.04    6.00
  -2  -2 -11   24.56    6.54
  -4  -3 -11   52.42    8.31
   4   3  11   53.18    7.28
   0  -1 -10  265.29   13.06
   0   1  10  213.46   26.54
   2   2  10  243.77   19.40
  -2  -2 -10  235.83   12.34
   2   2  10  254.32   11.36
   4   3  10  386.35   15.09
  -4  -3 -10  376.83   15.53
   6   4  10  126.09    9.65
  -6  -4 -10  115.41   10.42
   2   0  -9  402.69   16.65
   0  -1  -9  245.26   11.91
   0   1   9  213.40    9.24
   0   1   9  196.69   23.23
   2   2   9  490.09   15.26
  -2  -2  -9  498.20   16.46
   2   2   9  499.04   23.23
  -4  -3  -9   54.11    7.26
   4   3   9   43.76    6.19
  -6  -4  -9  501.05   17.83
   6   4   9  451.63   16.34
   4   1  -8   37.06    6.86
  -2   0   8   -2.68   19.82
   2   0  -8   74.72    7.81
   0  -1  -8  382.26   13.60
   0   1   8  357.84   11.40
   0   1   8  352.72   28.68
  -2  -2  -8  250.96   11.20
   2   2   8  266.75   10.46
   2   2   8  281.17   17.53
  -4  -3  -8  435.30   15.04
   4   3   8  459.98   14.69
  -6  -4  -8   13.50    5.86
   6   4   8   31.19    5.72
   4   1  -7   21.11    5.53
   2   0  -7  547.60   16.88
  -2   0   7  554.82   33.68
   0  -1  -7   96.37    6.92
   0   1   7   73.61   16.53
   0   1   7   85.12    5.59
   2   2   7    2.91    3.07
   2   2   7   -4.97    6.69
  -2  -2  -7    2.11    3.32
  -4  -3  -7  165.63    9.20
   4   3   7  146.98    8.11
  -6  -4  -7   57.89    7.26
   6   4   7   46.38    6.89
   6   4   7   47.25    5.87
  -4  -1   6   85.12   20.24
   4   1  -6  133.74    8.77
   2   0  -6   71.59    7.31
  -2   0   6   76.72   17.31
   2   0  -6   71.44    6.33
   0   1   6  947.71   18.62
   0  -1  -6  986.11   20.74
   0   1   6  972.15   35.94
   0  -1  -6  952.76   20.82
   2   2   6   10.44    6.41
  -2  -2  -6   18.50    5.50
  -2  -2  -6   11.20    3.69
   2   2   6   11.09    2.95
  -4  -3  -6   -2.72   11.42
  -4  -3  -6    2.00    3.74
   4   3   6    2.33    2.89
   6   4   6   68.36    7.14
  -6  -4  -6   72.77   18.74
   6   4   6   69.29    6.33
   8   5   6  142.59   10.48
  -8  -5  -6  129.04   25.13
   6   2  -5  168.49   10.50
   6   2  -5  145.45   14.62
  -4  -1   5   -9.07   12.73
   4   1  -5    6.77    4.08
   4   1  -5   -5.25    6.10
   2   0  -5  100.08    7.34
  -2   0   5  121.39   17.37
   2   0  -5   99.65    6.46
   0   1   5    2.10    1.94
   0  -1  -5    0.92    2.75
   0  -1  -5    4.21    2.57
   0   1   5    2.77    9.06
  -2  -2  -5  178.12    7.39
   2   2   5  179.25    6.88
   2   2   5  188.71   11.35
  -2  -2  -5  189.54    9.06
  -4  -3  -5  341.17   19.55
   4   3   5  350.55   11.06
   4   3   5  333.03   10.65
   6   4   5   82.33    7.31
   6   4   5  114.54    6.94
  -6  -4  -5   86.92   17.60
  -8  -5  -5  107.59   25.61
   8   5   5   89.81    8.84
   6   2  -4   51.76   12.48
  -6  -2   4  -17.51   15.31
   6   2  -4   42.62    6.42
   4   1  -4    6.10    6.46
  -4  -1   4  -11.92    9.29
   4   1  -4    3.79    3.53
  -2   0   4  962.83   15.55
  -2   0   4  974.48   32.70
   2   0  -4  981.29   23.09
   2   0  -4  974.21   19.65
   0   1   4    3.41    1.74
   0  -1  -4    4.08    2.28
   0  -1  -4    1.82    2.51
   0   1   4    4.55    6.70
   2   2   4  936.39   22.49
  -2  -2  -4  908.19   17.41
   2   2   4  895.35   17.15
  -2  -2  -4  913.95   21.75
   4   3   4   46.93    4.44
  -4  -3  -4   65.87   13.26
   4   3   4   48.26    4.51
   4   3   4   47.74    5.20
   6   4   4  349.40   12.58
  -6  -4  -4  348.44   22.42
   6   4   4  351.79   10.94
   8   5   4    5.55    5.35
  -8  -5  -4  -10.37   20.01
   6   2  -3   17.03    5.04
   6   2  -3   13.23    9.98
  -6  -2   3   -3.94   12.23
   4   1  -3   -0.32    3.17
  -4  -1   3    8.12    8.17
   4   1  -3    4.68    6.13
   2   0  -3   30.80    4.61
  -2   0   3   33.04    1.96
  -2   0   3   29.05    6.38
   2   0  -3   33.65    3.56
   0  -1  -3 1819.84   34.45
   0   1   3 1825.24   41.82
   0   1   3 1801.98   27.17
   0  -1  -3 1794.23   28.06
  -2  -2  -3   74.09    9.75
   2   2   3   65.39    4.38
   2   2   3   65.39    3.91
   2   2   3   62.57    3.79
   4   3   3 2044.46   33.84
   4   3   3 2105.19   32.95
  -4  -3  -3 2019.20   46.51
  -4  -3  -3 2019.74   42.89
   6   4   3  303.89   11.62
  -6  -4  -3  298.91   20.95
  -8  -5  -3  181.16   23.09
   8   5   3  214.84   11.97
   6   2  -2  437.44   14.28
  -6  -2   2  421.42   24.77
   6   2  -2  420.61   19.26
   4   1  -2  767.87   16.94
  -4  -1   2  800.68   26.57
   4   1  -2  740.86   22.17
  -2   0   2  652.95   19.31
   2   0  -2  648.40   12.74
   2   0  -2  664.21   16.64
   0  -1  -2 1283.61   20.00
   0   1   2 1313.80   19.63
   0  -1  -2 1301.07   25.51
   2   2   2 1309.94   20.75
   2   2   2 1277.76   20.56
  -2  -2  -2 1254.02   29.23
   4   3   2   41.77    3.71
  -4  -3  -2   42.74    5.22
   4   3   2   43.01    4.12
  -4  -3  -2   54.25   10.94
  -6  -4  -2  492.73   23.96
   6   4   2  485.51   14.79
   8   5   2  138.30    9.79
  -8  -5  -2  121.73   21.75
  -6  -2   1  173.78   15.00
   6   2  -1  165.47   12.93
   6   2  -1  202.56    9.44
   4   1  -1  867.65   23.55
   4   1  -1  855.13   17.42
  -4  -1   1  847.75   25.69
  -2   0   1  836.55   12.77
  -2   0   1  852.75   21.56
   2   0  -1  847.84   19.53
   2   0  -1  833.93   14.41
   0  -1  -1  335.09    5.89
   0   1   1  336.54    6.05
   0  -1  -1  313.30    8.51
   0   1   1  331.26    8.19
  -2  -2  -1 9562.79  173.79
   2   2   1 9634.07  139.25
  -2  -2  -1 9997.22  193.37
   2   2   1 9999.69  137.86
  -4  -3  -1  223.75   11.38
  -4  -3  -1  219.87   13.34
   4   3   1  225.09    6.32
   4   3   1  223.13    8.11
  -6  -4  -1   86.24   15.28
   6   4   1   72.35    6.84
   8   5   1   -3.73    4.90
  -8  -5  -1  -13.79   18.60
  -8  -3   0   69.25   14.50
   8   3   0   32.36    6.94
   6   2   0  167.03   12.95
  -6  -2   0  162.06   13.30
   6   2   0  190.06    9.01
   4   1   0 1563.05   36.01
   4   1   0 1626.01   23.44
   4   1   0 1548.77   26.53
  -4  -1   0 1613.03   38.66
   2   0   0  659.80   11.52
   2   0   0  695.09   16.23
  -2   0   0  661.04   17.13
   0  -1   0  431.03   10.18
   0   1   0  426.47    6.98
   0   1   0  425.33    7.20
   0  -1   0  423.28    9.61
   2   2   0   34.66    3.14
  -2  -2   0   44.29    7.56
  -2  -2   0   38.71    7.28
   2   2   0   39.09    2.46
   4   3   0   68.37    5.33
   4   3   0   74.91    3.37
  -4  -3   0   78.00   10.79
  -4  -3   0   58.51   10.57
   6   4   0  136.80    8.06
  -6  -4   0  121.86   16.26
  -8  -3  -1   32.87   14.56
   6   2   1   38.39    9.50
  -6  -2  -1   44.55    8.09
   6   2   1   50.96    5.62
   4   1   1    3.36    1.60
   4   1   1    2.71    2.20
   4   1   1    6.60    5.50
  -4  -1  -1    0.41    2.57
   2   0   1    4.63    1.87
   2   0   1    6.83    1.51
   2   0   1    2.32    2.24
   2   0   1    5.71    3.17
   0  -1   1 1598.70   33.52
   0  -1   1 1539.15   29.41
   0   1  -1 1532.14   22.75
  -2  -2   1  730.88   22.78
  -2  -2   1  714.06   18.51
   2   2  -1  726.22   11.60
   2   2  -1  713.33   13.68
  -4  -3   1  100.67   12.31
   4   3  -1  111.10    6.25
  -4  -3   1  114.38   14.85
  -6  -4   1   -7.14   11.83
  -6  -4   1   18.65   14.17
   6   4  -1   11.25    4.57
  -8  -3  -2  187.61   18.31
   8   3   2  179.03   10.63
  -6  -2  -2   31.31    7.14
   6   2   2   40.70    4.85
   6   2   2   35.57   10.68
  -4  -1  -2  582.11   17.75
   4   1   2  567.96   12.85
   4   1   2  565.01   11.92
   4   1   2  568.34   17.56
   2   0   2  461.71    9.27
   2   0   2  456.95   13.75
   2   0   2  455.52   11.62
   2   0   2  456.35    9.58
   0   1  -2  484.17    9.48
   0  -1   2  476.61   16.50
   0  -1   2  473.67    9.06
   0  -1   2  478.82   10.75
   2   2  -2  505.09    9.15
   2   2  -2  502.44   11.42
  -2  -2   2  484.90   14.78
  -2  -2   2  516.50   21.52
  -4  -3   2  400.58   18.48
  -4  -3   2  426.80   24.32
   4   3  -2  398.59   12.07
  -6  -4   2  502.28   24.68
   6   4  -2  463.25   15.72
  -6  -4   2  390.14   29.37
  -8  -3  -3    5.45   14.93
   8   3   3    8.76    5.75
   6   2   3    5.31    3.98
  -6  -2  -3    4.34    3.95
  -6  -2  -3   15.61    9.90
   4   1   3  191.36    7.28
   4   1   3  185.89    9.53
   4   1   3  189.15    6.81
   4   1   3  188.03   10.51
   2   0   3  305.95   11.60
   2   0   3  319.90    8.32
   2   0   3  325.26    8.90
  -2   0  -3  318.72    8.09
   0  -1   3  319.91   15.66
   0   1  -3  305.62    8.02
   0  -1   3  325.32    7.67
  -2  -2   3  113.59    8.71
   2   2  -3  115.66    4.02
  -2  -2   3  113.46   17.29
   2   2  -3  115.51    5.82
   4   3  -3  189.70    8.58
  -4  -3   3  195.14   15.19
  -4  -3   3  188.71   22.70
   6   4  -3   85.77    8.00
  -6  -4   3   95.70   17.58
  -8  -3  -4   24.33   16.26
   8   3   4   22.64    6.23
  -6  -2  -4  238.24   15.05
   6   2   4  226.92    8.76
   6   2   4  241.91    9.97
  -4  -1  -4   60.24    8.13
   4   1   4   47.94    5.02
   4   1   4   56.93    4.67
   4   1   4   68.47    7.51
   2   0   4  547.06   18.01
  -2   0  -4  542.21   13.02
  -2   0  -4  557.42   12.42
   2   0   4  562.85   12.64
   0  -1   4    2.34    1.86
   0  -1   4   -6.93    6.18
   0   1  -4    2.21    2.39
   2   2  -4  809.90   14.66
   2   2  -4  791.11   17.49
  -2  -2   4  808.03   21.46
  -2  -2   4  826.30   34.33
  -4  -3   4   15.26   11.67
  -4  -3   4  -15.78   14.94
   4   3  -4   18.68    4.56
  -6  -4   4  167.55   20.13
   6   4  -4  176.80   10.51
  -8  -3  -5   15.58   17.28
   8   3   5   13.27    6.02
   6   2   5   77.02    6.41
   6   2   5   76.92    5.92
  -6  -2  -5   71.59   12.49
  -4  -1  -5 1301.36   30.84
  -4  -1  -5 1340.57   25.19
   4   1   5 1305.00   34.25
   4   1   5 1306.09   25.15
  -2   0  -5   35.84    4.06
   2   0   5   53.16    4.32
   2   0   5   54.85    9.21
   0  -1   5 1681.99   47.02
   0  -1   5 1712.17   28.64
   0   1  -5 1737.65   29.92
   2   2  -5  107.27    6.73
  -2  -2   5  102.69   11.47
   2   2  -5   94.49    4.79
  -2  -2   5  101.70   20.60
   4   3  -5  281.96   11.67
  -4  -3   5  193.69   28.32
  -4  -3   5  294.31   18.09
   6   2   6   89.56    7.01
  -6  -2  -6   86.30    7.42
   6   2   6  101.15    7.75
   4   1   6    5.13    5.42
   4   1   6   -0.61    2.76
  -4  -1  -6    3.87    3.89
  -2   0  -6  439.38   12.83
   2   0   6  449.75   19.67
   2   0   6  438.37   12.54
   0  -1   6   20.26    3.75
   0  -1   6   21.42   10.50
   0   1  -6   16.81    3.94
  -2  -2   6 1120.99   45.43
   2   2  -6 1127.90   25.05
  -4  -3   6    0.81   21.34
  -6  -2  -7  135.66    9.23
   6   2   7  156.62    9.00
   4   1   7  383.95   17.87
   4   1   7  381.91   12.91
  -4  -1  -7  363.82   12.84
   2   0   7  830.03   19.15
  -2   0  -7  818.86   19.56
   2   0   7  815.50   28.86
   0   1  -7   40.44    5.50
   0  -1   7   32.29    4.49
   0  -1   7   34.82   11.34
   2   2  -7   -0.38    4.05
  -2  -2   7   -9.14   15.30
   4   3  -7   41.85    6.55
  -6  -2  -8   78.14    8.25
   6   2   8   87.64    7.77
   4   1   8   94.62    7.43
   4   1   8  123.54   12.74
  -4  -1  -8  102.53    8.03
  -2   0  -8   68.25    6.91
   2   0   8   72.83    6.11
   2   0   8   71.64   11.43
   0  -1   8   63.02    5.91
   0   1  -8   58.65    6.36
   0  -1   8   77.76   16.74
  -2  -2   8   -6.23   17.18
   2   2  -8   22.87    5.70
  -6  -2  -9    2.07    5.39
   6   2   9    1.96    4.48
  -4  -1  -9  154.79    9.90
   4   1   9  145.64    9.27
   2   0   9   48.34   12.35
  -2   0  -9   38.54    6.50
   2   0   9   31.27    5.61
   0  -1   9   78.78    6.50
   0   1  -9   82.30    7.94
   0  -1   9  101.28   18.27
   2   2  -9   -2.88    4.80
  -2  -2   9  -40.12   16.35
   4   1  10   63.10    7.39
  -4  -1 -10   56.78    7.97
  -2   0 -10  152.62    9.89
   2   0  10  173.49   17.08
   2   0  10  152.34    9.64
   0   1 -10   53.52    7.59
   0  -1  10   44.87   13.95
   1   2  11    8.36    4.54
  -1  -2 -11    5.02    5.24
   1   2  11  -21.20   11.41
  -3  -3 -11   44.85    7.80
   3   3  11   65.90    7.50
  -1   1  10  -46.63   20.19
   1   2  10  499.76   30.02
   1   2  10  540.73   16.25
  -1  -2 -10  534.69   17.83
   3   3  10   85.05    7.65
  -3  -3 -10   62.07    7.41
   5   4  10  102.47    8.78
  -5  -4 -10   99.04    9.01
   3   0  -9    2.17    5.19
   1  -1  -9  265.40   12.82
   1   2   9  195.67    9.21
  -1  -2  -9  206.28   10.79
   1   2   9  185.89   20.47
   3   3   9  383.98   13.69
  -3  -3  -9  400.47   14.60
   5   4   9    7.95    4.65
  -5  -4  -9   10.92    5.99
  -3   0   8   37.23   24.15
  -1   1   8  -14.31   16.16
   1  -1  -8   10.79    4.69
   1   2   8  384.95   12.17
   1   2   8  370.54   24.87
  -1  -2  -8  404.65   13.83
   3   3   8   31.58    5.28
  -3  -3  -8   31.92    5.82
   5   4   8   66.71    6.72
  -5  -4  -8   58.41    6.83
  -7  -5  -8   21.89    6.79
   7   5   8   31.85    6.06
   3   0  -7   50.33    6.51
  -3   0   7   20.23   18.06
  -1   1   7   10.50    3.01
   1  -1  -7    7.83    4.31
  -1   1   7   14.40   15.55
  -1  -2  -7   64.99    6.40
   1   2   7   55.93   13.00
   1   2   7   58.16    5.35
  -3  -3  -7   34.23    5.67
   3   3   7   28.54    5.01
   3   3   7   42.15   10.40
   5   4   7  186.67    9.35
  -5  -4  -7  202.83    9.97
   7   5   7   40.35    6.67
   7   5   7   37.30    5.93
  -5  -1   6  -45.43   17.01
   3   0  -6  412.37   15.44
   3   0  -6  400.64   13.56
  -3   0   6  403.96   29.28
   1  -1  -6   22.13    4.77
  -1   1   6   19.68    3.49
  -1   1   6   25.55   13.12
   1  -1  -6   14.51    3.92
  -1  -2  -6  227.84    8.95
   1   2   6  235.31    8.34
  -1  -2  -6  240.43    8.62
   1   2   6  218.12   18.38
  -3  -3  -6   65.26    5.99
   3   3   6   64.35    5.26
   3   3   6   77.76    8.50
  -3  -3  -6   71.61   10.46
   5   4   6  105.20    6.98
   5   4   6   96.76    7.13
  -5  -4  -6   96.14   16.91
   7   5   6  270.43   12.70
   7   5   6  292.60   11.50
  -7  -5  -6  252.01   24.94
  -5  -1   5   41.84   16.66
   5   1  -5   52.15    9.57
   5   1  -5   66.15    6.39
   3   0  -5  683.15   20.35
  -3   0   5  679.48   32.33
   3   0  -5  690.36   17.17
   1  -1  -5  286.33    9.97
  -1   1   5  314.97   18.96
   1  -1  -5  277.76    9.69
  -1   1   5  291.20    7.77
  -1  -2  -5  772.27   16.35
  -1  -2  -5  778.06   18.37
   1   2   5  793.12   15.76
   1   2   5  763.96   26.42
   3   3   5  968.73   23.16
   3   3   5  922.83   19.22
  -3  -3  -5  976.61   19.82
  -3  -3  -5  994.64   25.77
   5   4   5   70.49    5.98
   5   4   5   88.27    6.62
  -5  -4  -5   72.93   17.92
   7   5   5   10.17    5.50
  -7  -5  -5   19.17   20.09
   5   1  -4   37.99    8.39
   5   1  -4   46.51    5.74
  -5  -1   4   18.93   11.28
   3   0  -4  490.25   13.16
  -3   0   4  487.40   23.70
   3   0  -4  505.84   16.39
  -1   1   4  325.78    7.52
   1  -1  -4  307.96    9.00
  -1   1   4  308.81   16.17
   1  -1  -4  303.56    9.97
   1   2   4  278.88   14.25
   1   2   4  271.58    7.77
  -1  -2  -4  265.07    7.92
  -1  -2  -4  269.17    9.68
   3   3   4 1276.43   23.04
   3   3   4 1291.37   23.20
   3   3   4 1326.15   27.49
  -3  -3  -4 1249.03   31.95
  -5  -4  -4  192.89   19.31
   5   4   4  181.56    7.94
   5   4   4  186.06    8.53
  -7  -5  -4  233.39   23.89
   7   5   4  233.13   11.18
   7   2  -3    1.54   11.26
   7   2  -3    7.93    5.44
   5   1  -3   35.49    8.11
  -5  -1   3   41.65   11.05
   5   1  -3   53.43    5.57
   3   0  -3  438.62   14.78
   3   0  -3  422.32   11.24
  -3   0   3  461.03   18.92
  -1   1   3  231.14    5.59
   1  -1  -3  209.23    7.91
  -1   1   3  223.99   10.90
   1  -1  -3  197.20    6.41
   1   2   3 2335.81   35.05
  -1  -2  -3 2335.29   44.99
   1   2   3 2408.16   49.37
  -1  -2  -3 2297.58   34.58
   3   3   3  875.15   16.91
  -3  -3  -3  860.15   25.56
   3   3   3  874.85   16.52
  -3  -3  -3  857.70   18.58
  -5  -4  -3  205.71   18.51
   5   4   3  188.35    8.76
   5   4   3  210.05    7.76
  -7  -5  -3   99.05   22.14
   7   5   3   77.51    7.79
   7   2  -2  366.49   20.04
  -7  -2   2  367.42   26.12
   7   2  -2  430.52   15.02
  -5  -1   2  126.26   13.20
   5   1  -2  106.14   10.32
   5   1  -2  102.99    6.71
  -3   0   2 1497.26   37.60
   3   0  -2 1494.32   33.44
   3   0  -2 1517.66   25.25
  -1   1   2  194.04    4.64
   1  -1  -2  195.35    5.34
   1  -1  -2  186.71    7.24
  -1   1   2  212.42    8.80
  -1  -2  -2    3.34    5.38
   1   2   2   -0.79    1.59
   1   2   2    1.16    1.83
  -3  -3  -2  875.55   25.25
   3   3   2  911.97   16.39
  -3  -3  -2  941.19   20.63
   3   3   2  912.30   17.07
  -5  -4  -2   64.21   15.64
   5   4   2   58.13    4.47
   5   4   2   60.11    5.46
  -7  -5  -2  333.79   24.54
   7   5   2  361.81   13.98
   7   2  -1   50.34   12.69
   7   2  -1   32.81    6.11
  -7  -2   1   14.98    9.67
   5   1  -1  284.98   10.04
   5   1  -1  288.01   14.27
  -5  -1   1  279.42   15.39
   3   0  -1 1228.38   28.14
   3   0  -1 1201.13   20.49
  -3   0   1 1224.70   30.90
  -3   0   1 1244.91   17.95
   1  -1  -1 4413.17   78.58
   1  -1  -1 4314.30   58.73
  -1   1   1 4287.14   89.78
  -1   1   1 4385.50   63.87
   1   2   1 1354.30   20.67
   1   2   1 1355.56   20.04
  -1  -2  -1 1348.69   28.04
  -1  -2  -1 1376.26   28.99
  -3  -3  -1  635.46   18.64
   3   3   1  644.23   13.26
  -3  -3  -1  648.59   20.34
  -5  -4  -1   32.00   14.45
   5   4   1   13.46    4.33
  -5  -4  -1    6.91    7.98
  -7  -5  -1   19.02   18.22
   7   5   1   -2.88    4.53
  -7  -2   0  382.79   20.68
   7   2   0  405.39   20.10
   7   2   0  403.68   14.16
   5   1   0   63.15    8.80
   5   1   0   58.89    5.15
  -5  -1   0   55.54    8.17
   3   0   0  594.36   16.47
  -3   0   0  596.72   17.67
   3   0   0  574.24   11.53
  -3   0   0  619.92   10.49
   1  -1   0  110.23    5.06
   1  -1   0  111.54    2.60
  -1   1   0  121.43    3.57
   1  -1   0  109.72    5.68
   1   2   0 1390.59   20.93
   1   2   0 1383.84   20.53
  -1  -2   0 1390.28   29.52
  -1  -2   0 1402.79   30.90
  -3  -3   0  351.79   14.98
   3   3   0  361.96    7.70
   3   3   0  350.92    9.45
  -3  -3   0  356.70   15.99
  -5  -4   0  222.75   17.52
  -5  -4   0  208.86   18.57
   5   4   0  201.43    8.83
  -7  -5   0  -17.41   17.44
   7   5   0   12.13    5.94
   7   2   1   -3.03    4.22
  -7  -2  -1    1.02    6.35
   7   2   1   -8.52    9.40
  -5  -1  -1   73.06    7.84
   5   1   1   77.74    5.44
   5   1   1   82.32    9.55
   3   0   1  250.92    9.65
   3   0   1  235.84   10.10
   3   0   1  246.94    6.34
   3   0   1  245.08    6.66
  -1   1  -1  597.23    9.39
   1  -1   1  569.65   15.48
   1  -1   1  556.07   12.58
  -1   1  -1  567.35   10.40
   1   2  -1  873.45   14.48
   1   2  -1  875.57   14.29
  -1  -2   1  836.18   21.11
  -1  -2   1  851.24   25.18
  -3  -3   1    6.22    8.33
   3   3  -1    8.55    1.85
   3   3  -1   10.79    2.92
  -3  -3   1    2.45    7.72
  -5  -4   1  161.94   17.20
  -5  -4   1  130.91   18.67
   5   4  -1  176.13    8.87
   7   5  -1    6.04    5.53
  -7  -5   1   15.96   18.85
   7   2   2  364.46   12.96
   7   2   2  341.64   18.50
   5   1   2   35.31    3.63
   5   1   2   39.28    8.73
  -5  -1  -2   32.10    6.35
   5   1   2   37.62    4.47
   3   0   2   11.30    3.27
   3   0   2   21.80    4.61
   3   0   2   14.49    2.55
   3   0   2   17.06    2.61
   1  -1   2  125.42    7.71
   1  -1   2  142.81    4.93
   1  -1   2  144.81    4.70
  -1  -2   2  235.83   16.55
  -1  -2   2  231.07   11.41
   1   2  -2  234.82    6.00
   1   2  -2  245.85    6.80
  -3  -3   2  794.86   29.73
   3   3  -2  726.33   12.72
  -3  -3   2  741.60   22.54
   3   3  -2  722.75   16.14
  -5  -4   2   60.62   14.94
   5   4  -2   29.61    5.38
  -5  -4   2   -6.48   13.61
   7   5  -2  227.97   12.55
  -7  -5   2  264.04   25.11
  -7  -2  -3  285.78   17.13
   7   2   3  277.22   11.52
   5   1   3  385.35   16.04
   5   1   3  401.06   15.95
  -5  -1  -3  410.00   15.75
   5   1   3  382.34   11.28
   5   1   3  395.99   10.82
   3   0   3  701.98   13.95
   3   0   3  682.14   14.36
   3   0   3  691.68   17.29
   3   0   3  681.47   20.23
   1  -1   3  609.34   19.03
   1  -1   3  619.85   12.23
   1  -1   3  591.41   12.35
  -1   1  -3  598.17   12.20
  -1  -2   3  277.07   18.91
   1   2  -3  272.10    7.07
   1   2  -3  278.70    8.28
  -1  -2   3  270.50   11.90
  -3  -3   3  407.65   24.60
   3   3  -3  359.17   11.10
  -3  -3   3  366.72   17.13
  -5  -4   3  490.65   24.06
   5   4  -3  464.21   15.05
  -5  -4   3  410.66   30.89
   7   2   4   37.99    6.43
  -7  -2  -4   56.27   12.38
   5   1   4  111.70    6.92
   5   1   4  107.47    9.04
   5   1   4  107.26    6.20
   5   1   4  135.03   11.37
   3   0   4  144.41    6.56
  -3   0  -4  157.77    6.56
   3   0   4  155.04    7.77
   3   0   4  148.73    9.76
   1  -1   4 2093.54   49.26
  -1   1  -4 2101.41   33.35
   1  -1   4 2105.40   33.59
  -1  -2   4  652.15   28.84
   1   2  -4  647.62   14.73
   1   2  -4  647.64   13.15
  -1  -2   4  637.57   18.37
   3   3  -4  493.52   14.36
  -3  -3   4  527.87   20.78
  -3  -3   4  534.92   31.67
  -5  -4   4   80.38   17.00
   5   4  -4   97.67    8.09
   7   2   5  261.63   11.56
  -7  -2  -5  256.77   18.10
   5   1   5   44.41    5.09
  -5  -1  -5   47.71    9.57
   5   1   5   46.17    7.49
   5   1   5   50.07    5.78
   3   0   5  898.60   26.87
   3   0   5  908.06   19.37
  -3   0  -5  912.33   20.95
  -3   0  -5  912.83   18.92
   1  -1   5  261.36    8.68
  -1   1  -5  265.83    9.19
   1  -1   5  245.84   14.47
  -1  -2   5  784.10   34.90
   1   2  -5  883.27   19.22
   1   2  -5  889.31   17.16
   3   3  -5   56.26    6.11
  -3  -3   5   29.43   17.36
   5   4  -5  267.46   12.39
   7   2   6  140.01    8.43
   7   2   6  129.98    9.06
   5   1   6   64.02    5.91
  -5  -1  -6   59.53    6.19
   5   1   6   66.91    8.66
  -3   0  -6   29.00    4.86
   3   0   6   25.94    7.30
   3   0   6   26.32    4.40
   1  -1   6  755.89   17.18
   1  -1   6  729.04   27.30
  -1   1  -6  747.32   17.67
  -1  -2   6  250.39   22.75
   1   2  -6  235.15   10.09
   1   2  -6  263.59    8.77
  -3  -3   6  337.30   32.06
   3   3  -6  395.52   14.20
   5   4  -6   24.08    6.52
   7   2   7  139.97    9.10
  -7  -2  -7  141.81   10.05
   5   1   7  741.88   26.27
  -5  -1  -7  709.10   19.15
   5   1   7  723.18   19.38
  -3   0  -7  150.42    8.33
   3   0   7  156.54   13.94
   3   0   7  158.83    8.24
  -1   1  -7    3.85    3.53
   1  -1   7    7.58    8.70
   1  -1   7    4.97    3.31
   1   2  -7   28.17    4.41
  -1  -2   7   26.54   12.34
   1   2  -7   30.52    5.47
   3   3  -7    8.59    4.93
  -3  -3   7  -27.01   15.28
  -7  -2  -8   38.07    7.54
   7   2   8   32.22    6.02
   5   1   8   64.27    6.83
  -5  -1  -8   74.18    7.55
   3   0   8  939.78   32.04
   3   0   8  872.34   21.77
  -3   0  -8  870.01   21.77
   1  -1   8  131.56    7.86
  -1   1  -8  119.05    7.77
   1  -1   8  122.78   15.15
  -1  -2   8  120.31   20.94
   1   2  -8   97.93    8.02
   3   3  -8   10.21    5.55
   5   1   9   -0.46    3.61
  -5  -1  -9    5.59    5.29
   3   0   9   56.51    6.65
  -3   0  -9   50.68    6.93
   3   0   9   78.89   12.68
  -1   1  -9    7.34    4.32
   1  -1   9    6.26    8.37
   1  -1   9    8.88    3.99
   1   2  -9  155.65   10.41
  -1  -2   9  163.01   22.93
  -5  -1 -10   48.71    7.86
   5   1  10   55.00    7.36
   3   0  10   22.70    9.12
  -3   0 -10   11.86    5.55
   3   0  10   12.42    4.93
  -1   1 -10  190.77   11.28
   1  -1  10  171.87   10.01
   1  -1  10  164.43   18.49
   0   2  11  -12.56   18.95
  -2  -3 -11    2.12    5.39
   2   3  11    5.05    4.38
  -4  -4 -11  245.84   13.31
   4   4  11  265.02   13.03
   2  -1 -10  570.64   20.75
   0  -2 -10  206.73   11.46
   2   3  10  353.47   13.39
  -2  -3 -10  356.91   14.70
   4   4  10  101.98    8.12
  -4  -4 -10  100.51    9.28
  -6  -5 -10   -7.17    5.65
   6   5  10    2.07    4.62
   2  -1  -9   22.19    5.85
   0  -2  -9  287.40   12.56
   0   2   9  289.10   10.72
   0   2   9  196.55   27.42
  -2  -3  -9    8.50    4.70
   2   3   9   11.60    8.47
   2   3   9    5.82    3.70
   4   4   9  408.34   14.52
  -4  -4  -9  431.43   15.65
   6   5   9   56.68    7.06
  -6  -5  -9   47.32    8.01
   4   0  -8   68.22    7.93
  -2   1   8   12.63   16.82
   0  -2  -8   10.57    4.16
   0   2   8   15.54   13.54
   0   2   8   21.32    3.82
   2   3   8   11.42    8.90
   2   3   8   17.42    4.20
  -2  -3  -8    5.62    4.36
   4   4   8  122.29    8.19
  -4  -4  -8  127.01    8.42
  -6  -5  -8   82.13    8.55
   6   5   8   88.38    7.66
  -4   0   7  -43.12   16.45
   4   0  -7    7.12    4.39
  -2   1   7  -13.57   11.88
   2  -1  -7    3.71    3.92
   0  -2  -7   45.28    5.57
   0   2   7   53.56   14.58
   0   2   7   47.05    4.82
   2   3   7   37.49    4.74
  -2  -3  -7   32.89    4.98
   2   3   7   37.48    9.07
   4   4   7   71.72    6.15
  -4  -4  -7   75.93   12.26
  -4  -4  -7   68.51    6.45
   6   5   7  111.90    7.94
  -6  -5  -7  126.75   17.47
   6   5   7  109.71    8.30
  -4   0   6   -2.02   14.11
   4   0  -6   24.64    8.30
   4   0  -6   24.17    5.25
   2  -1  -6  240.60   10.91
  -2   1   6  251.03   21.89
   2  -1  -6  251.83   10.31
   0   2   6    2.21   10.14
   0  -2  -6    3.16    3.06
   0   2   6    2.92    2.46
   0  -2  -6    4.20    3.42
   2   3   6   99.80    6.16
  -2  -3  -6   82.76    6.11
  -2  -3  -6  101.45    8.98
   2   3   6  113.02   12.46
   4   4   6  301.53   10.83
  -4  -4  -6  278.92   10.81
  -4  -4  -6  278.42   17.19
  -6  -5  -6   98.49   19.82
   6   5   6   97.48    7.08
   6   5   6   87.55    7.29
   6   1  -5  132.78   13.27
  -6  -1   5   94.43   21.72
   4   0  -5    1.94    6.33
   4   0  -5   12.42    4.09
  -4   0   5   11.24   11.93
   2  -1  -5  600.59   15.24
   2  -1  -5  607.96   17.77
  -2   1   5  636.55   28.33
   0  -2  -5 2331.73   39.03
   0   2   5 2501.33   58.74
   0   2   5 2524.64   37.97
   0  -2  -5 2430.16   47.50
   2   3   5  317.38   13.38
  -2  -3  -5  305.63   12.28
  -2  -3  -5  282.80    9.14
   2   3   5  305.77    9.29
   4   4   5  509.00   13.96
  -4  -4  -5  490.78   21.79
   4   4   5  484.50   13.23
  -6  -5  -5   26.18   18.15
   6   5   5   43.61    6.28
   6   5   5   39.51    5.44
  -8  -6  -5   17.94   23.54
   8   6   5   12.08    5.98
  -6  -1   4  370.16   28.70
   6   1  -4  417.11   14.53
   6   1  -4  423.11   19.69
   4   0  -4  195.52   11.56
  -4   0   4  183.48   18.14
   4   0  -4  196.02    8.47
  -2   1   4  292.05   15.91
  -2   1   4  295.91    6.76
   2  -1  -4  286.52    9.18
   2  -1  -4  287.02   11.08
   0   2   4  908.16   26.17
   0  -2  -4  882.19   17.18
   0   2   4  897.87   16.35
   0  -2  -4  900.01   20.65
  -2  -3  -4 1268.14   22.42
  -2  -3  -4 1258.24   29.10
   2   3   4 1344.65   28.50
   2   3   4 1285.29   22.77
   4   4   4  285.18    9.39
   4   4   4  275.53    9.71
  -4  -4  -4  249.92   18.80
  -6  -5  -4  793.13   33.69
   6   5   4  801.31   20.13
   6   5   4  822.77   18.34
   8   6   4    3.16    6.01
  -8  -6  -4  -25.35   21.93
   6   1  -3   20.73    9.42
  -6  -1   3   20.23   11.26
   6   1  -3   14.46    4.78
   4   0  -3  455.06   12.48
  -4   0   3  492.39   21.52
   4   0  -3  453.71   16.95
   2  -1  -3   72.52    5.75
  -2   1   3   76.07    8.21
   2  -1  -3   69.42    4.19
  -2   1   3   69.73    3.16
   0  -2  -3 1717.45   26.59
   0  -2  -3 1698.30   34.54
   0   2   3 1691.75   37.49
   0   2   3 1704.54   26.34
   2   3   3   23.81    2.98
  -2  -3  -3   42.18    7.92
   2   3   3   25.97    3.54
   4   4   3  949.39   18.51
  -4  -4  -3  944.18   30.84
   4   4   3  946.26   19.32
   6   5   3  155.67    8.82
  -6  -5  -3  155.49   20.46
   8   6   3   47.49    7.87
  -8  -6  -3   62.44   26.12
   6   1  -2  721.99   25.42
   6   1  -2  768.20   19.13
  -6  -1   2  721.85   29.38
   4   0  -2  128.14    6.55
  -4   0   2  129.03   11.13
   4   0  -2  123.79    9.36
   2  -1  -2  967.69   22.94
   2  -1  -2  987.90   16.79
  -2   1   2 1029.57   15.38
  -2   1   2  970.58   25.60
   0  -2  -2    0.80    1.76
   0   2   2    2.30    1.82
   0  -2  -2   -6.94    3.59
   0   2   2    1.37    1.69
  -2  -3  -2   43.10    9.87
   2   3   2   32.44    3.42
   2   3   2   36.86    3.15
  -4  -4  -2  189.59   11.88
  -4  -4  -2  200.04   16.93
   4   4   2  201.78    6.88
   4   4   2  210.82    7.88
  -6  -5  -2  177.57   20.41
   6   5   2  168.81    9.17
  -8  -6  -2  -13.67   21.87
   8   6   2   -0.13    5.87
   6   1  -1  108.05    7.36
  -6  -1   1  108.09   12.06
   6   1  -1   92.91   10.69
   4   0  -1  749.81   21.53
   4   0  -1  740.82   15.38
  -4   0   1  747.91   23.55
   2  -1  -1  665.53   11.60
  -2   1   1  670.21   18.61
   2  -1  -1  670.09   16.96
  -2   1   1  684.91   11.31
   0   2   1 1447.07   22.13
   0  -2  -1 1446.77   30.58
   0  -2  -1 1489.26   20.83
   0  -2  -1 1430.39   29.68
  -2  -3  -1    3.46    4.90
   2   3   1    5.55    2.02
   2   3   1    4.06    1.94
  -2  -3  -1    3.07    8.44
   4   4   1  165.46    7.39
   4   4   1  166.43    6.02
  -4  -4  -1  170.37   13.92
  -4  -4  -1  171.67   15.45
  -6  -5  -1  160.12   19.96
   6   5   1  151.92    9.10
   6   1   0   65.98    9.46
   6   1   0   54.39    5.65
  -6  -1   0   55.60    9.24
  -4   0   0  128.03    4.39
   4   0   0  121.64    5.62
   4   0   0  128.39    8.96
  -4   0   0  124.92    8.56
  -2   1   0    4.22    1.51
   2  -1   0    3.18    2.21
   2  -1   0    4.87    3.11
   2  -1   0    4.73    1.44
   0  -2   0 1069.62   24.54
   0   2   0 1124.05   17.72
   0   2   0 1126.64   16.00
  -2  -3   0 1034.59   28.19
   2   3   0 1079.70   17.39
  -2  -3   0  996.83   26.78
   2   3   0 1045.89   17.79
  -4  -4   0   -1.16    9.54
   4   4   0    5.43    3.34
  -4  -4   0   17.26   12.71
   4   4   0    1.21    2.22
   6   5   0    7.18    4.65
  -6  -5   0   15.86   17.10
   8   2   1    6.22   12.25
   8   2   1   25.27    6.33
   6   1   1   10.63    4.07
  -6  -1  -1    9.00    5.04
   6   1   1   13.45    8.46
   4   0   1  130.72    8.67
  -4   0  -1  119.44    4.86
   4   0   1  124.47    5.47
  -4   0  -1  130.76    8.73
   2  -1   1  126.78    6.10
  -2   1  -1  134.04    4.68
   2  -1   1  136.02    7.79
   2  -1   1  140.33    4.06
   0  -2   1  106.74    6.60
   0  -2   1  119.86    8.29
   0   2  -1  124.06    4.28
   0   2  -1  121.68    3.63
   2   3  -1 1061.96   17.61
  -2  -3   1 1030.58   27.24
  -2  -3   1 1082.73   31.30
   2   3  -1 1072.60   18.66
  -4  -4   1   91.62   19.15
  -4  -4   1   93.12   14.84
   4   4  -1   97.51    6.58
  -6  -5   1  648.31   30.39
   6   5  -1  633.91   18.66
   8   2   2   -0.28    5.42
   6   1   2   27.73    4.76
  -6  -1  -2   26.51    6.58
   6   1   2   41.40    8.99
   4   0   2  137.71    8.87
   4   0   2  156.55    5.90
   4   0   2  153.11    9.54
   4   0   2  139.47    5.97
   2  -1   2   58.09    3.74
  -2   1  -2   61.15    3.26
   2  -1   2   55.30    6.25
   2  -1   2   58.60    4.29
   0  -2   2 1295.41   31.72
   0   2  -2 1302.22   20.38
   0  -2   2 1259.42   25.51
   0   2  -2 1313.92   21.21
  -2  -3   2  244.79   14.50
  -2  -3   2  231.78   17.08
   2   3  -2  257.00    7.91
   2   3  -2  253.89    6.70
  -4  -4   2  197.33   22.31
  -4  -4   2  210.62   18.15
   4   4  -2  189.74    8.87
   6   5  -2   66.76    7.33
  -6  -5   2   79.02   20.89
  -8  -2  -3   43.60   13.65
  -6  -1  -3  195.96   12.03
   6   1   3  205.70    8.76
   6   1   3  186.02   12.93
   4   0   3 1034.47   19.98
   4   0   3  996.52   28.49
   4   0   3 1031.44   19.46
   4   0   3 1034.66   25.35
  -2   1  -3  466.99   10.28
   2  -1   3  465.90   16.13
   2  -1   3  477.40   11.15
   2  -1   3  475.89   11.72
   0  -2   3   47.95    4.47
   0  -2   3   41.67    9.04
   0   2  -3   46.80    3.72
   0   2  -3   53.35    3.65
  -2  -3   3  479.33   25.98
   2   3  -3  474.50   12.16
  -2  -3   3  469.86   18.48
   2   3  -3  470.60   10.54
  -4  -4   3   13.61   13.47
  -4  -4   3   32.91   15.00
   4   4  -3   18.60    4.22
  -6  -5   3  301.59   25.79
   6   5  -3  298.93   13.45
   8   2   4  266.27   12.39
  -8  -2  -4  304.25   20.56
  -6  -1  -4   81.94    8.22
   6   1   4   90.19    6.28
   6   1   4   87.29   10.96
   6   1   4   79.92    6.57
  -4   0  -4 1151.00   22.22
   4   0   4 1208.86   28.11
   4   0   4 1183.11   23.13
   4   0   4 1244.27   22.63
   4   0   4 1148.02   32.33
  -2   1  -4 1896.74   30.75
   2  -1   4 1926.48   35.84
   2  -1   4 1891.59   45.47
   0  -2   4  290.26    8.49
   0  -2   4  297.00    7.93
   0   2  -4  303.20    8.65
   0   2  -4  302.83    9.03
   0  -2   4  275.63   15.37
  -2  -3   4  856.34   35.84
   2   3  -4  927.90   17.26
  -2  -3   4  968.28   27.56
   2   3  -4  912.59   19.53
  -4  -4   4    2.67   14.09
  -4  -4   4  -35.42   15.35
   4   4  -4   -0.57    3.34
   6   5  -4    5.25    5.15
  -6  -5   4  -24.40   19.04
  -8  -2  -5  287.65   21.71
   8   2   5  284.67   12.91
  -6  -1  -5   50.51    9.60
   6   1   5   29.01    4.64
   6   1   5   30.61    5.54
   6   1   5   36.92    7.68
   4   0   5  271.42   10.12
   4   0   5  280.13   14.58
   4   0   5  285.19   12.39
  -4   0  -5  296.88   10.06
   2  -1   5  422.68   11.92
   2  -1   5  403.62   18.14
  -2   1  -5  423.50   11.54
   0  -2   5  301.81   18.91
   0   2  -5  284.74    9.77
   0  -2   5  285.87    9.09
   2   3  -5  372.15   12.14
  -2  -3   5  361.40   26.16
   2   3  -5  385.92   10.31
   4   4  -5  300.37   12.32
  -4  -4   5  260.87   30.47
   6   1   6  218.46   10.10
  -6  -1  -6  212.14   10.19
  -4   0  -6   82.18    6.66
   4   0   6   91.39   10.66
   4   0   6   94.59    6.82
   2  -1   6  223.47    8.97
  -2   1  -6  207.82    8.88
   2  -1   6  209.47   15.36
   0   2  -6    8.76    3.63
   0  -2   6    4.50    2.90
   0  -2   6   10.43    8.80
   2   3  -6   36.39    5.49
  -2  -3   6   38.88   13.99
   4   4  -6   26.60    5.57
  -4  -4   6  -43.05   18.42
  -6  -1  -7   41.34    6.58
   6   1   7   40.38    5.92
  -4   0  -7   37.36    5.58
   4   0   7   55.15   10.63
   4   0   7   41.21    5.50
   2  -1   7    3.64    7.61
  -2   1  -7    5.99    3.61
   2  -1   7    4.07    3.44
   0  -2   7   78.46   15.64
   0  -2   7   59.38    5.41
   0   2  -7   61.97    6.34
   2   3  -7  266.48   11.61
  -2  -3   7  240.43   25.90
   4   4  -7    2.32    4.40
  -6  -1  -8   87.96    8.99
   6   1   8   78.17    7.24
   4   0   8  304.68   12.59
  -4   0  -8  308.18   12.37
   4   0   8  342.08   18.76
  -2   1  -8  199.73    9.76
   2  -1   8  205.34   15.76
   2  -1   8  212.25   10.16
   0  -2   8    1.78    3.08
   0  -2   8    4.98    9.32
   0   2  -8    0.08    3.92
  -2  -3   8    1.31   12.96
   2   3  -8   15.60    5.51
   6   1   9   35.16    6.51
  -6  -1  -9   42.57    7.47
  -4   0  -9    2.52    4.88
   4   0   9    0.78    3.63
   4   0   9   12.73    7.36
   2  -1   9  359.28   13.61
  -2   1  -9  362.27   14.06
   2  -1   9  357.89   21.68
   0   2  -9   42.74    6.24
   0  -2   9   47.64   12.67
   0   2  -9   46.79    6.42
  -2  -3   9  180.21   26.81
  -4   0 -10  238.99   12.68
   4   0  10  296.28   20.05
   4   0  10  234.28   12.49
   2  -1  10    8.45    9.07
   2  -1  10   -3.16    3.83
  -2   1 -10    1.06    4.62
   0   2 -10  252.00   13.01
  -1  -3 -11  184.76   11.46
   3   4  11   14.46    5.16
  -3  -4 -11   19.68    6.54
  -1   2  10   74.87   26.70
   1   3  10  180.30    9.43
   1   3  10  120.41   22.38
  -1  -3 -10  205.60   11.04
  -3  -4 -10  142.94   10.24
   3   4  10  133.88    8.96
   5   5  10   -1.62    4.47
  -5  -5 -10    7.96    5.54
   3  -1  -9   37.64    6.99
   1  -2  -9    5.05    4.81
   1   3   9  484.46   14.55
  -1  -3  -9  490.68   16.14
   1   3   9  441.06   28.81
  -3  -4  -9  164.50    9.60
   3   4   9  164.32    9.40
  -5  -5  -9   55.63    7.78
   5   5   9   64.04    7.31
  -3   1   8   36.90   18.84
   1  -2  -8   14.29    4.82
  -1   2   8  -28.78   14.61
  -1  -3  -8  182.16    9.66
   1   3   8  145.79   22.85
   1   3   8  174.26    8.52
  -3  -4  -8  305.05   12.10
   3   4   8  276.36   11.10
   5   5   8   87.93    7.23
  -5  -5  -8   83.79    8.06
   7   6   8  243.90   11.88
   7   6   8  226.00   12.41
   5   0  -7   -3.91    4.20
   3  -1  -7  110.63    7.96
  -3   1   7   91.16   20.24
  -1   2   7    1.29   11.41
  -1   2   7    4.20    2.81
   1  -2  -7   -5.22    3.42
   1   3   7  134.45   20.35
  -1  -3  -7  147.57    8.29
  -1  -3  -7  138.72    8.18
   1   3   7  133.16    7.26
   3   4   7   41.87    5.67
  -3  -4  -7   34.63    5.33
  -3  -4  -7   47.25   10.07
  -5  -5  -7  168.29    9.50
   5   5   7  149.96    8.65
  -5  -5  -7  148.73   15.33
   7   6   7  302.42   12.52
  -7  -6  -7  290.29   24.21
   7   6   7  278.59   13.42
  -5   0   6   80.20   21.34
   5   0  -6  154.19   12.42
   5   0  -6  169.58    9.66
  -3   1   6   92.82   17.44
   3  -1  -6   96.92    6.97
   3  -1  -6  100.81    8.72
  -1   2   6  709.61   14.75
   1  -2  -6  664.53   16.78
  -1   2   6  678.75   29.14
   1  -2  -6  694.16   18.88
  -1  -3  -6   28.81    5.94
   1   3   6   25.28    3.83
   1   3   6   21.88   10.05
  -1  -3  -6   26.97    4.20
  -3  -4  -6  454.60   13.35
   3   4   6  471.64   13.48
  -3  -4  -6  471.34   17.85
   5   5   6   37.76    5.48
   5   5   6   40.51    5.59
  -5  -5  -6   42.18   14.98
  -7  -6  -6  201.79   24.25
   7   6   6  213.60   11.57
   7   6   6  194.87    9.78
   5   0  -5   56.66    6.41
   5   0  -5   62.19    9.24
  -5   0   5   39.90   14.66
   3  -1  -5  783.29   18.11
  -3   1   5  827.05   33.16
   3  -1  -5  773.67   22.72
   1  -2  -5   41.59    4.59
   1  -2  -5   31.72    5.45
  -1   2   5   34.29    3.75
  -1   2   5   33.83    8.95
   1   3   5 1044.91   19.88
  -1  -3  -5 1026.43   20.03
   1   3   5 1078.39   29.72
  -1  -3  -5 1026.58   24.94
   3   4   5   15.60    3.53
   3   4   5   16.30    3.58
  -3  -4  -5   25.27    9.55
   5   5   5  296.33   10.76
   5   5   5  301.18   11.46
  -5  -5  -5  280.43   21.60
   7   6   5   68.10    7.75
  -7  -6  -5   77.78   23.18
   5   0  -4   34.47    8.81
   5   0  -4   33.39    5.03
  -5   0   4   18.94   10.74
   3  -1  -4  125.38    8.91
  -3   1   4  121.49   13.14
   3  -1  -4  112.43    6.39
  -1   2   4 1397.53   22.42
   1  -2  -4 1300.34   23.40
  -1   2   4 1394.93   35.15
   1  -2  -4 1383.98   30.14
   1   3   4  338.52   13.50
  -1  -3  -4  346.72    9.16
  -1  -3  -4  355.38   12.49
   1   3   4  351.10    9.25
  -3  -4  -4 2792.54   58.03
   3   4   4 2792.21   43.23
   3   4   4 2775.71   43.75
  -5  -5  -4   92.88   19.37
   5   5   4   60.36    5.59
   5   5   4   66.09    6.46
  -7  -6  -4  130.13   23.84
   7   6   4  134.01    9.12
  -7  -1   3  211.48   21.65
   7   1  -3  227.68   16.44
   5   0  -3   77.70    5.90
   5   0  -3   61.88    8.53
  -5   0   3   60.53   11.84
   3  -1  -3  780.75   16.04
  -3   1   3  823.93   25.71
   3  -1  -3  812.60   22.28
   1  -2  -3  155.44    5.45
  -1   2   3  166.03    5.22
   1  -2  -3  160.80    7.84
  -1   2   3  151.20    8.15
   1   3   3   93.51    4.60
  -1  -3  -3   88.41    7.65
   1   3   3  104.68    5.36
  -1  -3  -3   90.63    4.27
  -3  -4  -3  422.12   17.98
   3   4   3  429.67   10.95
   3   4   3  419.36   10.91
   5   5   3  496.56   12.71
  -5  -5  -3  491.16   26.39
   5   5   3  488.83   13.99
  -7  -6  -3   52.87   23.24
   7   6   3   41.19    6.79
   7   1  -2   67.34   11.21
   7   1  -2   89.11    7.61
  -7  -1   2   68.37   13.61
   5   0  -2  239.50    9.09
   5   0  -2  235.33   13.22
  -5   0   2  220.34   15.08
   3  -1  -2   36.41    5.48
   3  -1  -2   32.00    3.26
  -3   1   2   31.63    2.61
  -3   1   2   36.53    6.66
  -1   2   2 1344.37   30.91
   1  -2  -2 1327.65   28.61
   1  -2  -2 1287.09   20.07
  -1   2   2 1376.65   21.10
   1   3   2  333.03    8.13
   1   3   2  328.44    7.16
   1   3   2  319.92    8.33
  -1  -3  -2  315.31   11.83
   3   4   2 1448.27   24.60
   3   4   2 1432.25   24.31
  -3  -4  -2 1469.42   31.81
  -3  -4  -2 1432.56   36.75
   5   5   2    1.52    3.87
  -5  -5  -2    4.10   16.91
   5   5   2    5.15    2.96
   7   6   2    2.47    5.10
  -7  -6  -2  -12.80   20.35
  -7  -1   1  196.83   16.80
   7   1  -1  190.72   14.79
   7   1  -1  213.04   10.45
  -5   0   1  133.98   11.51
   5   0  -1  108.42    6.31
   5   0  -1  114.28    9.88
   3  -1  -1 1334.62   30.93
  -3   1   1 1382.74   20.98
  -3   1   1 1351.08   34.16
   3  -1  -1 1354.31   21.87
   1  -2  -1  755.30   11.42
  -1   2   1  753.20   13.29
   1  -2  -1  764.29   19.57
   1  -2  -1  766.68   18.40
  -1  -3  -1   66.79    8.03
   1   3   1   78.94    3.27
  -1  -3  -1   79.11    4.86
   1   3   1   79.28    3.90
   3   4   1    0.20    2.07
  -3  -4  -1   -1.35    6.47
   3   4   1    0.96    2.30
  -3  -4  -1    5.63   10.76
   5   5   1   19.80    4.94
  -5  -5  -1   27.69   17.24
  -7  -6  -1  114.95   22.98
   7   6   1  114.88    9.10
   7   1   0   -0.92    4.07
   7   1   0    3.39    9.21
  -7  -1   0   -8.60    5.86
  -5   0   0    1.60    4.65
   5   0   0    6.59    6.68
   5   0   0    6.22    3.29
   3  -1   0  418.48    8.87
  -3   1   0  427.03   15.26
  -3   1   0  432.41    9.02
   3  -1   0  402.60   13.41
   1  -2   0 1460.35   30.36
   1  -2   0 1454.07   33.31
  -1   2   0 1494.88   23.24
  -1  -3   0    0.26    3.66
   1   3   0    4.95    1.67
   1   3   0    5.93    1.68
  -1  -3   0    1.46    6.09
  -3  -4   0  674.63   24.14
  -3  -4   0  706.07   24.88
   3   4   0  686.72   13.22
   3   4   0  680.93   14.58
   5   5   0   31.16    5.27
  -5  -5   0    5.42   13.70
  -5  -5   0   45.04   18.63
   7   6   0   -0.66    5.43
  -7  -6   0  -16.05   20.67
   7   1   1   76.92    7.13
  -7  -1  -1   64.77   10.29
   7   1   1   59.73   10.73
   5   0   1   40.15    7.86
   5   0   1   33.56    4.52
  -5   0  -1   25.45    6.51
  -3   1  -1    9.88    2.12
   3  -1   1    3.85    1.99
   3  -1   1    7.67    3.37
   3  -1   1    7.70    3.96
   1  -2   1 1192.76   29.30
  -1   2  -1 1211.43   20.30
  -1   2  -1 1276.99   18.12
   1  -2   1 1224.39   25.61
   1   3  -1  130.79    4.50
   1   3  -1  132.11    4.88
  -1  -3   1  121.45    8.86
  -1  -3   1  117.15    9.29
  -3  -4   1 1318.92   36.38
  -3  -4   1 1375.77   40.02
   3   4  -1 1370.69   24.43
   3   4  -1 1381.36   22.51
  -5  -5   1  395.42   28.27
  -5  -5   1  404.73   24.91
   5   5  -1  387.73   13.21
   7   6  -1   43.13    7.58
  -7  -6   1   50.50   24.54
   7   1   2   42.62   10.39
  -7  -1  -2   40.26    8.52
   7   1   2   38.43    5.77
   5   0   2  265.91    8.87
  -5   0  -2  263.63   13.60
  -5   0  -2  262.73    8.53
   5   0   2  265.20   13.16
   3  -1   2   53.27    3.65
   3  -1   2   58.40    5.31
   3  -1   2   45.88    6.52
   3  -1   2   56.77    3.98
   1  -2   2 1030.76   27.03
   1  -2   2 1067.00   22.13
  -1   2  -2 1069.31   18.92
  -1   2  -2 1086.00   17.17
  -1  -3   2  257.32   14.46
   1   3  -2  254.79    7.18
  -1  -3   2  250.07   11.08
   1   3  -2  262.10    7.29
   3   4  -2  443.04   10.12
   3   4  -2  445.29   12.09
  -3  -4   2  419.60   25.50
  -3  -4   2  444.46   21.78
   5   5  -2  608.79   17.12
  -5  -5   2  643.26   29.23
  -5  -5   2  500.54   32.30
   7   1   3  410.00   19.66
   7   1   3  455.02   14.10
   5   0   3    9.25    3.58
   5   0   3   15.97    7.10
   5   0   3   12.12    3.13
   5   0   3   11.18    5.12
   3  -1   3  101.59    8.70
   3  -1   3  110.64    6.56
   3  -1   3  105.92    5.58
  -3   1  -3  100.34    5.00
  -1   2  -3   72.35    4.32
   1  -2   3   69.47    8.70
  -1   2  -3   66.05    3.99
   1  -2   3   72.87    4.01
   1   3  -3  613.36   13.53
  -1  -3   3  645.02   24.44
  -1  -3   3  639.61   17.46
   1   3  -3  620.09   13.11
  -3  -4   3  148.63   18.54
   3   4  -3  134.47    6.93
  -3  -4   3  126.29   21.64
   5   5  -3  327.78   12.82
  -5  -5   3  354.02   24.93
   7   1   4  162.66    9.15
   7   1   4  164.64   14.34
   5   0   4 1095.85   21.62
   5   0   4 1045.87   31.66
   5   0   4 1014.88   27.61
   5   0   4 1064.70   22.10
   3  -1   4  335.14   15.38
  -3   1  -4  336.52    9.53
   3  -1   4  332.95   10.84
   3  -1   4  342.23   10.50
  -1   2  -4 2343.40   36.60
   1  -2   4 2353.27   55.44
   1  -2   4 2359.66   42.93
   1  -2   4 2326.94   37.65
   1   3  -4   31.41    3.75
   1   3  -4   41.50    4.21
  -1  -3   4   37.94    9.26
  -1  -3   4   27.78   10.29
  -3  -4   4  172.23   19.08
   3   4  -4  162.59    8.33
  -3  -4   4  173.00   23.94
   5   5  -4   60.86    7.45
  -5  -5   4   72.33   21.48
  -7  -1  -5  194.33   14.59
   7   1   5  161.51    9.72
   5   0   5    4.23    3.44
   5   0   5    9.45    5.40
   5   0   5   -2.47    7.40
  -5   0  -5    6.09    3.61
   3  -1   5  165.96    7.78
   3  -1   5  160.74   12.62
  -3   1  -5  155.37    7.12
  -1   2  -5  458.47   12.22
   1  -2   5  441.93   20.44
   1  -2   5  447.25   12.23
   1   3  -5  829.57   17.45
  -1  -3   5  811.31   32.69
   1   3  -5  845.35   19.05
  -3  -4   5  -10.37   13.61
   3   4  -5   -1.71    3.07
  -5  -5   5   66.35   24.67
   7   1   6    3.95    3.98
  -7  -1  -6   -0.57    4.75
   5   0   6  254.11   10.85
  -5   0  -6  252.01   10.58
   5   0   6  272.51   15.74
  -3   1  -6   63.77    5.69
   3  -1   6   61.52   11.15
   3  -1   6   72.24    6.34
  -1   2  -6  341.89   11.23
   1  -2   6  337.69   19.88
   1  -2   6  326.85   11.10
   1   3  -6  161.23    8.39
   1   3  -6  160.17    7.46
  -1  -3   6  165.81   17.76
  -3  -4   6   -3.80   14.45
   3   4  -6   -1.99    3.89
   7   1   7  169.59   10.01
   5   0   7    7.62    4.17
   5   0   7   13.70    6.28
  -5   0  -7   11.79    4.51
  -3   1  -7   13.42    4.35
   3  -1   7    7.13    6.90
   3  -1   7   14.18    3.99
   1  -2   7   58.11    5.81
  -1   2  -7   60.03    6.00
   1  -2   7   68.66   13.54
   1   3  -7   19.51    3.80
  -1  -3   7   21.97   11.16
   1   3  -7   20.96    5.25
   3   4  -7   73.66    7.84
  -3  -4   7   29.28   17.24
  -5   0  -8  175.88   10.08
   5   0   8  175.01   14.73
   5   0   8  149.96    9.37
   3  -1   8   26.01    5.14
   3  -1   8   31.40    8.66
  -3   1  -8   32.00    5.76
  -1   2  -8    9.14    4.50
   1  -2   8    0.40    3.37
   1  -2   8    8.68    8.71
   1   3  -8   93.31    8.22
  -1  -3   8  113.89   18.64
  -5   0  -9  315.00   13.56
   5   0   9  289.37   13.56
   3  -1   9   73.94    7.54
   3  -1   9  116.48   14.52
  -3   1  -9   99.69    8.42
   1  -2   9  268.55   11.81
   1  -2   9  251.82   20.13
  -1   2  -9  249.71   12.07
  -1  -3   9  126.40   20.26
   1   3  -9  137.25    9.79
   3  -1  10  197.27   11.50
   3  -1  10  199.00   17.91
  -3   1 -10  195.16   11.35
   1  -2  10   40.98   11.90
  -1   2 -10   56.60    7.47
  -1   2 -10   46.75    6.74
   2   4  11    8.25    4.48
  -2  -4 -11    4.59    5.61
  -4  -5 -11   44.13    7.91
   4   5  11   50.77    7.17
   2  -2 -10  117.28   10.11
   0   3  10  -52.96   20.49
   2   4  10   20.64    4.97
  -2  -4 -10   17.74    5.97
  -4  -5 -10   26.47    6.27
   4   5  10   21.29    5.34
   2  -2  -9  188.34   11.26
   0  -3  -9   30.25    5.81
   0   3   9  -36.33   15.79
   0   3   9   26.51    4.54
   2   4   9  145.94    8.39
  -2  -4  -9  131.92    8.98
  -4  -5  -9   -1.79    4.81
   4   5   9    1.29    3.65
  -6  -6  -9   37.79    7.62
   6   6   9   35.94    6.61
   4  -1  -8   11.40    5.30
  -2   2   8   86.46   21.67
   2  -2  -8   96.86    8.02
   0   3   8  269.32   10.07
   0  -3  -8  254.20   11.19
   0   3   8  219.80   25.10
   2   4   8  148.23    8.48
  -2  -4  -8  155.13    8.56
   4   5   8  562.37   16.99
  -4  -5  -8  575.65   17.27
  -6  -6  -8    0.60    5.13
   6   6   8   -0.49    4.41
   4  -1  -7   53.13    6.43
  -4   1   7   20.10   15.51
   2  -2  -7   78.82    7.84
  -2   2   7   80.57   17.90
   2  -2  -7   94.43    7.19
   0  -3  -7   10.56    4.24
   0  -3  -7    5.18    4.58
   0   3   7   -1.80   11.55
   0   3   7    4.37    3.08
  -2  -4  -7  235.17    9.93
  -2  -4  -7  237.16   12.74
   2   4   7  231.72    9.77
   2   4   7  229.74   17.27
  -4  -5  -7  567.57   16.58
   4   5   7  579.25   16.55
  -4  -5  -7  601.20   22.14
   6   6   7  428.13   15.40
   6   6   7  428.66   14.72
  -6  -6  -7  423.34   23.57
   4  -1  -6  619.89   17.06
   4  -1  -6  592.06   21.16
  -4   1   6  562.22   32.49
   2  -2  -6  171.56    9.90
   2  -2  -6  151.71    7.98
  -2   2   6  155.68   19.33
   0  -3  -6 1137.55   23.16
   0   3   6 1183.60   37.02
   0   3   6 1174.86   22.07
   0  -3  -6 1204.18   27.87
   2   4   6  284.52    9.98
  -2  -4  -6  285.19   13.70
   2   4   6  289.99   16.79
  -2  -4  -6  278.89   10.02
   4   5   6  642.31   16.76
   4   5   6  642.60   16.96
  -4  -5  -6  645.74   23.75
  -6  -6  -6    9.93   15.83
   6   6   6    2.53    3.86
   6   6   6    5.49    4.99
  -6   0   5  290.12   28.75
   6   0  -5  315.65   17.72
   6   0  -5  360.57   13.47
   4  -1  -5  319.02   14.71
  -4   1   5  303.46   22.12
   4  -1  -5  306.76   10.82
  -2   2   5 1830.00   49.35
   2  -2  -5 1765.58   31.22
   2  -2  -5 1786.34   40.06
  -2   2   5 1851.14   28.55
   0   3   5  277.17    8.50
   0  -3  -5  268.45   11.02
   0   3   5  271.70   15.35
   0  -3  -5  265.53    8.95
  -2  -4  -5  659.73   19.55
   2   4   5  631.02   20.06
  -2  -4  -5  636.35   14.62
   2   4   5  648.74   15.11
   4   5   5   18.64    4.59
   4   5   5   13.45    3.98
  -4  -5  -5   21.35   13.10
   6   6   5  199.03   10.35
   6   6   5  222.74    9.71
  -6  -6  -5  210.71   22.08
   6   0  -4   20.91    9.46
  -6   0   4   14.75   11.95
   6   0  -4   28.26    5.37
  -4   1   4  216.65   15.70
   4  -1  -4  210.95   12.08
   4  -1  -4  228.14    8.87
  -2   2   4   19.23    3.15
   2  -2  -4   18.63    3.48
   2  -2  -4   24.87    5.47
  -2   2   4   26.55    7.09
   0   3   4 2052.31   32.21
   0  -3  -4 2033.76   42.29
   0  -3  -4 2024.79   32.04
   0   3   4 2012.38   45.25
  -2  -4  -4  415.69   15.43
   2   4   4  408.49   10.40
   2   4   4  408.66   12.82
   2   4   4  417.57   10.97
   4   5   4  289.25    9.73
  -4  -5  -4  284.15   19.17
   4   5   4  274.04    9.69
  -6  -6  -4  187.59   22.57
   6   6   4  187.87    8.63
   6   6   4  197.66   10.17
   6   0  -3  215.07    9.93
   6   0  -3  185.57   13.47
  -6   0   3  181.83   17.54
  -4   1   3  603.95   23.55
   4  -1  -3  619.68   20.58
   4  -1  -3  630.71   14.54
   2  -2  -3   -0.06    3.82
  -2   2   3    0.99    3.49
  -2   2   3    0.75    1.73
   2  -2  -3    1.92    1.95
   0   3   3    9.51    2.77
   0  -3  -3   17.39    4.95
   0  -3  -3   15.36    2.45
   0   3   3   15.88    2.54
   2   4   3  291.61    8.65
   2   4   3  292.39    8.04
  -2  -4  -3  288.62   13.26
  -4  -5  -3  702.91   27.21
   4   5   3  697.74   16.30
   4   5   3  701.25   15.68
  -6  -6  -3   59.75   20.63
   6   6   3   40.64    6.17
   6   0  -2   23.48    5.17
  -6   0   2   26.08    8.46
   6   0  -2   34.43    9.70
   4  -1  -2  402.77   15.95
  -4   1   2  420.61   18.36
   4  -1  -2  434.24   10.98
  -2   2   2    6.43    2.94
   2  -2  -2    8.14    4.18
  -2   2   2    8.43    1.95
   2  -2  -2    6.84    1.90
   0   3   2   12.44    3.15
   0  -3  -2   19.84    2.38
   0   3   2   15.28    3.05
   0  -3  -2   16.94    5.16
   2   4   2    7.73    2.38
  -2  -4  -2    9.66    7.38
  -2  -4  -2    5.21    1.54
   2   4   2    8.89    2.31
  -4  -5  -2  109.31   17.73
   4   5   2   93.43    5.84
   4   5   2  103.92    5.92
  -6  -6  -2  395.21   27.07
   6   6   2  383.31   13.57
   6   0  -1  140.64   11.56
   6   0  -1  165.50    8.25
  -6   0   1  143.00   13.25
   4  -1  -1   68.33    7.49
   4  -1  -1   69.40    4.70
  -4   1   1   67.87    8.36
  -2   2   1  531.85   16.80
  -2   2   1  533.42   10.62
   2  -2  -1  528.87    9.25
   2  -2  -1  532.84   15.51
   0  -3  -1  275.79    9.56
   0  -3  -1  252.25   10.70
   0   3   1  273.10    5.06
   0   3   1  268.23    7.26
   2   4   1  493.42   10.68
  -2  -4  -1  487.87   17.10
   2   4   1  508.99   11.24
  -2  -4  -1  517.85   14.06
  -4  -5  -1   53.11   11.64
  -4  -5  -1   71.08   17.99
   4   5   1   58.14    4.73
   4   5   1   55.66    5.39
  -6  -6  -1   95.29   21.50
   6   6   1   71.63    7.36
  -6   0   0  168.03   13.07
   6   0   0  171.76   12.38
   6   0   0  182.68    8.36
   4  -1   0  641.85   19.73
  -4   1   0  652.83   12.86
  -4   1   0  650.92   21.95
   2  -2   0  116.65    6.71
   2  -2   0  116.49    7.70
  -2   2   0  118.93    4.73
   2  -2   0  116.44    3.33
   0   3   0 1841.78   28.99
   0  -3   0 1828.59   37.70
   0  -3   0 1867.34   40.57
   0   3   0 1875.60   25.91
  -2  -4   0  109.37   11.43
   2   4   0  111.41    5.12
  -2  -4   0  107.57    9.28
   2   4   0  105.81    4.74
  -4  -5   0  242.04   20.33
   4   5   0  229.18    7.44
   4   5   0  221.77    9.04
  -4  -5   0  194.05   20.15
   6   6   0  103.19    8.07
  -6  -6   0  126.02   22.87
   8   1   1   47.84   14.22
  -6   0  -1   50.99    8.43
   6   0   1   52.68    5.48
   6   0   1   54.26    8.83
  -4   1  -1  148.42    5.94
  -4   1  -1  142.34    9.56
   4  -1   1  146.98    5.80
   4  -1   1  145.54    9.10
   4  -1   1  161.59   10.29
  -2   2  -1  534.35   11.63
   2  -2   1  560.35   17.73
   2  -2   1  533.96   14.63
   2  -2   1  537.85    9.29
   0  -3   1 2160.60   48.49
   0   3  -1 2309.97   31.58
   0  -3   1 2166.29   43.56
   0   3  -1 2265.09   34.49
   2   4  -1 2413.69   36.85
  -2  -4   1 2430.47   51.18
  -2  -4   1 2406.48   55.71
   2   4  -1 2402.26   37.05
   4   5  -1   14.45    4.14
  -4  -5   1   32.16   17.58
  -4  -5   1   10.23   12.74
  -6  -6   1  159.28   24.40
   6   6  -1  186.18   10.17
   8   1   2  243.18   17.74
  -6   0  -2   59.04    8.27
   6   0   2   55.66    5.55
   6   0   2   58.65    9.15
   4  -1   2  961.95   17.57
   4  -1   2  954.36   28.28
   4  -1   2  918.92   24.26
  -4   1  -2  947.21   18.61
   2  -2   2  147.88    6.89
  -2   2  -2  153.64    4.81
  -2   2  -2  145.04    6.01
   2  -2   2  144.02    9.50
   0   3  -2  859.43   16.52
   0   3  -2  885.93   15.08
   0  -3   2  872.33   24.91
   0  -3   2  847.26   19.82
   2   4  -2  366.89    9.98
  -2  -4   2  407.51   20.14
   2   4  -2  381.62    9.82
  -2  -4   2  364.90   17.07
  -4  -5   2  338.62   24.63
  -4  -5   2  328.45   26.88
   4   5  -2  314.91   11.17
   6   6  -2  158.14    9.90
  -6  -6   2  172.74   25.28
   8   1   3   50.64   14.55
   6   0   3  896.97   27.23
  -6   0  -3  858.75   29.33
   6   0   3  959.58   20.22
   4  -1   3   13.09    3.49
   4  -1   3   13.12    5.23
   4  -1   3   23.30    6.19
   4  -1   3   19.46    3.46
  -2   2  -3 1352.10   24.37
  -2   2  -3 1338.58   22.04
   2  -2   3 1359.32   27.81
   2  -2   3 1317.37   34.61
   0   3  -3   42.05    3.81
   0  -3   3   41.76    9.57
   0  -3   3   46.51    5.45
   0   3  -3   37.60    3.41
  -2  -4   3  462.71   24.01
   2   4  -3  469.04   11.46
   2   4  -3  448.26   12.09
  -2  -4   3  483.94   20.24
  -4  -5   3    9.73   17.24
  -4  -5   3    9.02   14.35
   4   5  -3   11.61    3.97
   6   6  -3   20.48    6.38
  -6  -6   3  -23.81   21.45
   6   0   4   10.11    3.69
   6   0   4    1.96    8.21
   6   0   4    3.73    5.01
   6   0   4    9.93    4.20
   4  -1   4  818.40   26.53
  -4   1  -4  821.70   17.30
   4  -1   4  849.34   18.87
   4  -1   4  826.93   21.71
   2  -2   4  133.63    6.68
   2  -2   4  130.37   10.67
  -2   2  -4  137.39    6.11
   2  -2   4  136.71    5.85
   0  -3   4  426.56   11.60
   0  -3   4  412.33   19.48
   0   3  -4  415.26   11.25
   0   3  -4  415.28   10.95
  -2  -4   4    3.55   11.05
   2   4  -4    4.81    3.40
  -2  -4   4    6.23   12.07
   2   4  -4    4.33    2.54
  -4  -5   4   15.76   15.79
  -4  -5   4   75.65   20.06
   4   5  -4   53.69    6.23
  -6   0  -5   31.00    5.40
   6   0   5   34.46    8.26
   6   0   5   35.23    5.47
   4  -1   5   42.42    8.99
  -4   1  -5   29.15    4.68
   4  -1   5   34.49    4.65
   2  -2   5  617.71   15.72
  -2   2  -5  624.40   14.72
   2  -2   5  608.12   23.15
   0   3  -5   45.50    4.71
   0  -3   5   34.83    8.69
   0   3  -5   48.34    5.00
   2   4  -5  180.08    8.57
  -2  -4   5  191.12   18.87
   2   4  -5  196.98    7.99
   4   5  -5   -0.27    4.17
   6   0   6   71.11    6.82
  -6   0  -6   71.13    6.80
   6   0   6   68.55   10.50
   4  -1   6    5.48    5.82
   4  -1   6    5.65    3.65
  -4   1  -6    3.93    3.42
  -2   2  -6  190.97    8.59
   2  -2   6  178.33    8.52
   2  -2   6  170.53   14.21
   0   3  -6   17.33    4.28
   0  -3   6    0.92    7.68
   0   3  -6    9.89    3.45
   2   4  -6  537.39   15.99
  -2  -4   6  510.54   28.93
   4   5  -6  254.26   12.39
  -4  -5   6  175.06   27.61
   6   0   7  109.94    8.34
   4  -1   7    4.56    3.82
  -4   1  -7    2.46    3.68
   4  -1   7    4.34    6.16
  -2   2  -7  401.22   13.27
   2  -2   7  439.75   14.19
   2  -2   7  396.12   21.11
   0  -3   7   23.71    8.93
   0   3  -7   35.45    5.25
   0   3  -7   32.69    5.20
   2   4  -7    4.83    4.50
  -2  -4   7    1.20   11.40
   6   0   8    7.16    4.43
   4  -1   8  118.67    8.68
   4  -1   8  135.24   14.23
  -4   1  -8  119.56    8.43
   2  -2   8   73.69    7.07
  -2   2  -8   87.91    7.31
   2  -2   8   93.83   13.58
   0   3  -8   84.74    7.47
   0  -3   8  103.51   16.14
   0   3  -8  102.68    7.72
  -2  -4   8  115.97   20.74
   2   4  -8  112.08    8.94
   4  -1   9  170.12   10.36
  -4   1  -9  180.68   10.58
   4  -1   9  194.58   16.56
  -2   2  -9  654.33   18.97
   2  -2   9  620.66   28.81
   2  -2   9  673.64   19.85
   0   3  -9   32.26    5.68
   0  -3   9   20.30   11.22
   0   3  -9   32.63    6.35
  -2   2 -10  281.89   13.43
   2  -2  10  293.74   21.24
   2  -2  10  280.08   13.40
  -2   2 -10  279.50   13.34
  -1  -4 -11  111.93    9.61
   1   4  11  141.88    9.02
   3   5  11   10.94    5.11
  -3  -5 -11   11.33    6.37
   1  -3 -10   24.56    6.25
  -1  -4 -10   88.33    8.51
   1   4  10  100.26    7.71
   3   5  10  111.57    8.82
  -3  -5 -10  138.60    9.95
   5   6  10    4.22    4.96
  -5  -6 -10    0.17    5.72
   3  -2  -9   49.81    7.18
  -1   3   9  -41.10   16.69
  -1  -4  -9   26.38    5.93
   1   4   9   23.43    4.71
  -3  -5  -9  271.33   12.37
   3   5   9  262.45   11.82
  -5  -6  -9    4.18    5.28
   5   6   9    5.64    4.85
  -3   2   8   21.33   16.12
   1  -3  -8   17.11    4.95
  -1   3   8   -0.10   12.13
  -1  -4  -8  806.25   20.17
   1   4   8  789.82   34.34
   1   4   8  768.25   18.87
   3   5   8   48.82    5.78
  -3  -5  -8   56.32    6.61
  -5  -6  -8  297.08   13.11
   5   6   8  267.39   12.17
   7   7   8   17.42    7.12
   7   7   8   16.94    5.66
   3  -2  -7  181.85    9.30
  -3   2   7  161.79   20.82
   3  -2  -7  184.07   11.62
  -1   3   7    4.91    3.09
   1  -3  -7    5.38    5.11
  -1   3   7   13.58   11.71
   1  -3  -7    1.34    3.70
   1   4   7    0.92    3.19
   1   4   7   -4.41   10.91
  -1  -4  -7    3.17    5.44
  -1  -4  -7    6.95    3.66
   3   5   7  484.51   14.80
  -3  -5  -7  491.62   19.29
  -3  -5  -7  495.14   14.81
   5   6   7    0.34    3.45
  -5  -6  -7    8.06   11.78
  -5  -6  -7   -1.15    4.20
   5   6   7   -1.42    4.49
  -7  -7  -7  364.76   25.07
   7   7   7  322.19   14.79
   7   7   7  359.74   13.98
   5  -1  -6    6.65    8.32
   5  -1  -6   23.43    5.16
  -5   1   6  -11.05   13.50
   3  -2  -6  519.90   14.76
  -3   2   6  528.30   27.44
   3  -2  -6  551.17   19.31
  -1   3   6  372.51   10.40
   1  -3  -6  378.02   11.84
   1  -3  -6  355.86   14.00
  -1   3   6  349.22   20.54
  -1  -4  -6  292.48    9.79
   1   4   6  300.85   10.31
  -1  -4  -6  292.84   13.05
   1   4   6  301.64   18.21
  -3  -5  -6  138.64   13.58
  -3  -5  -6  147.66    7.69
   3   5   6  151.81    8.31
  -5  -6  -6   74.06   15.14
   5   6   6   63.02    6.86
   5   6   6   52.07    5.72
  -7  -7  -6   -8.85   17.70
   7   7   6    5.47    4.55
   7   7   6   -3.34    5.44
   5  -1  -5  234.09   10.01
  -5   1   5  203.67   21.30
   5  -1  -5  221.08   14.04
   3  -2  -5   83.77    8.47
  -3   2   5   98.71   12.71
   3  -2  -5   83.71    5.83
   1  -3  -5  710.67   15.86
  -1   3   5  754.52   15.26
  -1   3   5  707.04   24.52
   1  -3  -5  742.92   20.74
   1   4   5  446.52   11.96
  -1  -4  -5  429.23   11.30
   1   4   5  446.73   17.49
  -1  -4  -5  434.66   15.86
   3   5   5  553.02   14.07
  -3  -5  -5  553.63   20.55
   3   5   5  538.28   14.46
  -5  -6  -5  337.08   21.10
   5   6   5  340.51   11.72
   5   6   5  325.07   11.85
  -7  -7  -5    2.56   19.45
   7   7   5   22.76    6.30
   5  -1  -4   34.76    8.90
  -5   1   4   41.95   11.25
   5  -1  -4   45.38    5.24
   3  -2  -4  396.93   15.59
  -3   2   4  415.62   18.67
   3  -2  -4  385.22   10.66
  -1   3   4  478.65   16.98
  -1   3   4  480.18   11.02
   1  -3  -4  464.77   10.93
   1  -3  -4  483.34   15.63
  -1  -4  -4  481.19   16.27
  -1  -4  -4  480.92   11.10
   1   4   4  476.27   11.90
  -3  -5  -4  119.49   12.42
   3   5   4  123.51    6.47
   3   5   4  112.14    6.33
   5   6   4  198.47    8.97
  -5  -6  -4  193.47   20.39
   5   6   4  204.95    9.39
   7   7   4    3.09    5.11
  -7  -7  -4  -21.15   19.53
   7   0  -3  317.85   18.82
  -7   0   3  322.50   24.34
   5  -1  -3    2.18    3.42
   5  -1  -3    6.16    6.67
  -5   1   3    2.74    6.76
  -3   2   3   35.35    7.80
   3  -2  -3   36.33    6.54
   3  -2  -3   32.10    3.62
   1  -3  -3   85.54    3.99
  -1   3   3   88.42    6.95
  -1   3   3   89.85    4.46
   1  -3  -3   87.17    7.11
  -1  -4  -3   12.05    2.33
  -1  -4  -3    4.57    5.92
   1   4   3    7.23    2.58
   1   4   3    6.13    1.93
  -3  -5  -3  195.70   14.79
   3   5   3  201.94    7.61
   3   5   3  210.10    7.98
  -5  -6  -3  245.96   22.71
   5   6   3  239.69    9.19
   5   6   3  251.41   10.07
  -7  -7  -3   44.41   22.99
   7   7   3   29.89    6.93
  -7   0   2   98.58   14.91
   7   0  -2  113.12   12.77
   5  -1  -2  149.39    7.05
   5  -1  -2  140.44   11.01
  -5   1   2  146.47   12.90
  -3   2   2   14.30    2.35
  -3   2   2   12.70    4.51
   3  -2  -2   15.51    2.70
   3  -2  -2   23.20    6.02
  -1   3   2  751.70   20.82
   1  -3  -2  760.73   12.30
   1  -3  -2  789.00   20.72
  -1   3   2  780.61   14.67
  -1  -4  -2  135.45    5.93
  -1  -4  -2  142.52    9.28
   1   4   2  133.65    4.56
   1   4   2  140.29    5.72
   3   5   2  954.72   18.54
  -3  -5  -2  949.87   28.17
   3   5   2  968.70   18.80
  -3  -5  -2 1001.72   21.85
   5   6   2  117.63    6.65
  -5  -6  -2  100.49   20.37
   5   6   2  105.23    7.41
  -7  -7  -2  141.39   28.24
   7   7   2  131.03    9.81
  -7   0   1    0.99    7.51
   7   0  -1   10.38    9.53
   5  -1  -1  118.19    6.05
  -5   1   1  112.99   10.55
   5  -1  -1  106.11    9.76
   3  -2  -1   97.76    7.54
  -3   2   1  104.41    4.55
  -3   2   1  109.01    8.53
   3  -2  -1  100.34    4.10
   1  -3  -1 1077.07   25.87
   1  -3  -1 1128.79   27.54
  -1   3   1 1090.54   19.12
  -1  -4  -1   23.87    6.60
   1   4   1   17.99    2.39
   1   4   1   18.66    2.97
  -1  -4  -1   13.91    3.04
  -3  -5  -1  303.05   17.59
   3   5   1  298.18    8.83
   3   5   1  285.98    8.90
  -3  -5  -1  309.66   12.84
   5   6   1    2.11    4.07
  -5  -6  -1    8.83   18.77
   7   7   1   45.09    7.28
  -7  -7  -1   37.63   24.51
  -7   0   0  124.50   13.68
   7   0   0  144.68   13.20
   5  -1   0    3.65    3.13
  -5   1   0    4.78    4.86
   5  -1   0    8.54    6.63
  -3   2   0  665.82   13.62
   3  -2   0  676.25   19.27
   3  -2   0  667.03   21.60
   3  -2   0  650.39   11.82
   1  -3   0    6.00    4.12
   1  -3   0    3.25    3.13
  -1   3   0    0.64    1.84
   1   4   0 1262.46   19.53
   1   4   0 1258.04   21.83
  -1  -4   0 1249.93   29.66
  -1  -4   0 1204.65   28.30
  -3  -5   0  108.49   15.39
   3   5   0  103.78    5.70
  -3  -5   0  107.14   12.31
   3   5   0  104.13    5.87
   5   6   0  688.96   18.03
  -5  -6   0  710.23   32.55
   7   7   0   -2.79    5.04
  -7  -7   0   -5.69   23.46
   7   0   1   -4.33    8.42
  -7   0  -1   -1.34    5.63
   5  -1   1  203.49   11.97
   5  -1   1  216.76    7.81
  -5   1  -1  210.65   13.16
   3  -2   1  229.85    6.00
   3  -2   1  233.55   11.85
   3  -2   1  238.26   10.30
  -3   2  -1  234.96    7.54
   1  -3   1 1657.71   39.03
   1  -3   1 1542.46   34.31
  -1   3  -1 1729.98   23.55
  -1   3  -1 1677.56   27.46
  -1  -4   1   45.70    7.70
   1   4  -1   39.98    3.77
  -1  -4   1   35.28    7.54
   1   4  -1   36.12    3.00
   3   5  -1 1039.25   19.59
  -3  -5   1 1014.66   31.94
   3   5  -1 1035.56   20.40
  -3  -5   1 1046.23   33.31
  -5  -6   1  141.41   21.98
   5   6  -1  137.92    8.57
   7   7  -1  157.91   10.54
  -7  -7   1  160.09   28.02
   7   0   2  214.12   14.91
  -7   0  -2  212.36   15.26
   5  -1   2  346.77   17.13
   5  -1   2  358.13   10.18
  -5   1  -2  371.37   10.77
   5  -1   2  345.12   15.11
  -3   2  -2  350.59    8.17
   3  -2   2  356.74   15.20
   3  -2   2  347.16   12.18
  -3   2  -2  354.15   10.08
  -1   3  -2  276.92    6.50
  -1   3  -2  278.13    8.50
   1  -3   2  266.94   12.40
   1  -3   2  273.45    9.72
  -1  -4   2  371.05   13.53
   1   4  -2  370.06    9.24
   1   4  -2  379.04   10.12
  -1  -4   2  379.27   16.73
  -3  -5   2   87.56   17.41
   3   5  -2   74.10    5.77
   3   5  -2   66.52    5.12
  -3  -5   2   76.49   15.67
   5   6  -2  381.09   13.56
  -5  -6   2  427.08   28.04
  -5  -6   2  301.54   27.36
  -7   0  -3   67.43   10.26
   7   0   3   49.12   10.65
  -5   1  -3  719.75   17.29
   5  -1   3  758.90   16.52
   5  -1   3  777.25   26.66
   5  -1   3  774.86   22.97
  -3   2  -3  520.91   11.30
  -3   2  -3  533.51   13.45
   3  -2   3  504.00   14.86
   3  -2   3  474.88   19.07
   1  -3   3 1076.42   23.61
  -1   3  -3 1078.48   18.55
  -1   3  -3 1099.76   21.11
   1  -3   3 1102.03   30.95
  -1  -4   3  537.14   16.40
   1   4  -3  527.32   12.32
   1   4  -3  521.82   12.77
  -1  -4   3  519.27   21.86
   3   5  -3    0.49    3.24
  -3  -5   3   13.56   11.41
  -3  -5   3  -16.94   14.38
   5   6  -3   16.32    5.44
  -5  -6   3   21.52   20.43
  -7   0  -4  308.39   17.89
   7   0   4  272.88   16.80
   5  -1   4  140.23   11.61
  -5   1  -4  129.92    7.59
  -5   1  -4  142.41    7.07
   5  -1   4  144.13   10.46
   3  -2   4  304.75   10.68
   3  -2   4  304.64   15.94
  -3   2  -4  291.10    8.87
  -3   2  -4  284.72   10.19
   1  -3   4    7.86    5.81
  -1   3  -4   10.19    3.14
  -1   3  -4    7.02    2.61
   1   4  -4  342.32   10.28
   1   4  -4  312.30    9.83
  -1  -4   4  331.70   19.75
  -3  -5   4    0.14   11.02
   3   5  -4    5.20    3.60
   5   6  -4    9.81    5.27
   5  -1   5  159.22    8.54
  -5   1  -5  148.11    7.83
   5  -1   5  166.08   12.91
  -3   2  -5    1.09    3.05
   3  -2   5    2.86    3.26
  -3   2  -5    1.95    3.15
   3  -2   5   -1.40    5.19
  -1   3  -5  142.64    7.14
  -1   3  -5  142.13    7.59
   1  -3   5  149.90   13.58
   1   4  -5  133.64    7.35
  -1  -4   5  138.20   16.26
   1   4  -5  142.75    7.28
   3   5  -5   52.49    6.08
  -3  -5   5   60.49   15.30
  -5  -6   5   12.04   18.83
   5   6  -5  116.80    9.70
  -7   0  -6   -1.56    4.08
   5  -1   6   38.86    5.63
   5  -1   6   47.14    9.32
   3  -2   6    2.79    3.45
   3  -2   6    8.81    6.08
  -3   2  -6    3.36    3.36
  -1   3  -6  963.45   20.87
   1  -3   6  935.12   33.32
  -1   3  -6  989.30   22.09
  -1  -4   6   34.12    9.60
   1   4  -6   46.18    5.18
   1   4  -6   28.43    4.97
   3   5  -6  112.85    8.41
  -3  -5   6  113.17   18.31
   5  -1   7  120.36    8.61
   5  -1   7  117.40   12.85
   3  -2   7    2.51    3.36
   3  -2   7   -3.75    6.21
  -3   2  -7   -2.83    3.47
  -1   3  -7   76.99    6.62
  -1   3  -7   85.77    6.83
   1  -3   7   85.95   13.74
   1   4  -7  205.04    9.36
   1   4  -7  184.79    9.94
  -1  -4   7  199.96   19.19
   3   5  -7   89.05    7.93
  -3  -5   7   62.78   16.40
   5  -1   8  104.25   12.92
   5  -1   8   88.70    8.17
   3  -2   8  406.28   15.14
   3  -2   8  412.49   21.97
  -3   2  -8  436.33   14.47
   1  -3   8   32.98    9.35
  -1   3  -8   33.23    5.63
  -1   3  -8   32.65    5.74
   1   4  -8  258.00   12.20
  -1  -4   8  244.21   21.74
   5  -1   9  372.54   22.30
  -3   2  -9   26.46    6.11
   3  -2   9   35.09    9.79
   3  -2   9   26.78    5.95
  -3   2  -9   18.15    5.45
  -1   3  -9  347.91   14.11
   1  -3   9  335.21   23.00
  -1   3  -9  342.29   14.00
   0  -4 -11   36.67    7.20
   2   5  11   -2.23    3.90
  -2  -5 -11   -4.96    5.18
  -4  -6 -11  141.45   10.95
   4   6  11  152.10   10.77
   0   4  10   45.54   23.66
  -2  -5 -10   22.06    5.81
   2   5  10   25.49    5.20
  -4  -6 -10   46.40    7.87
   4   6  10   29.83    5.87
   2  -3  -9    9.25    5.04
   0   4   9  404.32   32.38
   0  -4  -9  495.57   16.15
   0   4   9  508.70   14.84
   2   5   9  118.11    8.30
  -2  -5  -9  115.57    8.66
  -4  -6  -9  474.94   16.65
   4   6   9  456.17   16.08
   6   7   9  135.29    9.98
  -6  -7  -9  132.30   10.53
  -4   2   8  -22.89   15.52
   4  -2  -8   29.93    6.08
  -2   3   8  201.50   24.91
   2  -3  -8  250.13   11.25
   0   4   8  108.02    7.34
   0  -4  -8   89.25    7.33
   0   4   8   52.14   15.84
  -2  -5  -8  387.63   13.21
   2   5   8  397.65   13.52
  -4  -6  -8  209.96   10.83
   4   6   8  206.17   10.57
  -4  -6  -8  219.64   15.12
  -6  -7  -8  503.11   24.47
   6   7   8  462.76   16.59
  -6  -7  -8  498.94   17.62
   4  -2  -7    8.57    4.41
   4  -2  -7    6.80    7.57
  -4   2   7  -15.70   13.53
   2  -3  -7  466.36   14.28
  -2   3   7  487.23   28.15
   2  -3  -7  450.25   17.37
   0  -4  -7  820.36   19.41
   0  -4  -7  817.34   23.23
   0   4   7  849.08   33.32
   0   4   7  805.47   18.25
  -2  -5  -7  151.18   12.06
   2   5   7  138.31    8.23
  -2  -5  -7  146.20    7.79
  -4  -6  -7  211.04   15.70
  -4  -6  -7  205.26   10.25
   4   6   7  214.74    9.96
  -6  -7  -7  268.74   20.54
   6   7   7  264.55   11.99
   6   7   7  267.14   12.43
   4  -2  -6  558.87   15.72
  -4   2   6  614.47   31.57
   4  -2  -6  562.94   21.40
  -2   3   6   17.30    8.41
   2  -3  -6    6.67    5.75
   2  -3  -6    8.53    3.54
   0  -4  -6 1590.07   28.98
   0  -4  -6 1559.41   36.77
   0   4   6 1582.74   43.89
   0   4   6 1622.86   28.66
  -2  -5  -6   21.76    4.44
   2   5   6   18.00    4.19
  -2  -5  -6   11.79    8.68
  -4  -6  -6   -1.33   11.11
   4   6   6   -0.60    4.05
   4   6   6    0.79    3.88
  -6  -7  -6  137.38   18.48
   6   7   6  124.72    9.20
   6   7   6  145.66    8.87
  -6   1   5  110.96   20.97
   6  -1  -5  137.19   13.15
   4  -2  -5   79.68    5.71
   4  -2  -5   75.32    8.86
  -4   2   5   72.80   12.30
  -2   3   5  195.74    7.29
   2  -3  -5  187.84   11.05
  -2   3   5  190.38   13.34
   2  -3  -5  193.33    7.66
   0  -4  -5  741.60   15.92
   0  -4  -5  726.41   21.38
   0   4   5  730.68   15.99
   0   4   5  725.95   22.51
   2   5   5  892.61   19.23
  -2  -5  -5  891.67   18.30
  -2  -5  -5  892.72   25.49
   4   6   5    2.42    3.75
   4   6   5   -0.69    3.85
  -4  -6  -5    8.55   12.20
   6   7   5   11.96    4.68
  -6  -7  -5   19.45   17.09
   6   7   5   16.80    5.51
   6  -1  -4   -1.48    8.60
  -6   1   4    5.23    8.97
   4  -2  -4  231.00   13.20
  -4   2   4  238.20   15.77
   4  -2  -4  247.34    8.94
  -2   3   4    7.83    2.72
   2  -3  -4   12.59    2.92
   2  -3  -4    9.53    5.58
  -2   3   4   10.62    5.12
   0   4   4   12.56    3.00
   0  -4  -4   16.30    5.87
   0   4   4   12.87    3.61
   0  -4  -4   16.57    3.04
   2   5   4  142.91    6.30
  -2  -5  -4  142.93   11.69
   2   5   4  132.11    6.68
   2   5   4  143.01    6.79
   4   6   4   11.03    4.07
   4   6   4    9.33    3.97
  -4  -6  -4   13.06   13.33
   6   7   4  630.58   18.37
  -6  -7  -4  616.33   30.41
   6   7   4  617.53   16.62
  -6   1   3   53.04   12.50
   6  -1  -3   56.67    9.56
  -4   2   3    5.33    5.85
   4  -2  -3   10.55    3.28
   4  -2  -3   13.23    6.83
   2  -3  -3   -2.83    4.34
  -2   3   3    1.01    3.15
  -2   3   3    1.58    2.16
   2  -3  -3    2.18    1.70
   0  -4  -3 1459.19   33.63
   0   4   3 1436.13   24.86
   0  -4  -3 1490.61   22.83
   0   4   3 1416.30   33.26
   2   5   3    8.10    2.74
   2   5   3    9.17    2.21
   2   5   3   11.17    2.71
  -2  -5  -3   10.54    7.85
   4   6   3  339.81   11.11
  -4  -6  -3  348.97   20.34
   4   6   3  342.13   11.11
  -6  -7  -3    1.15   18.40
   6   7   3   22.98    5.98
   6  -1  -2   36.43    9.88
  -6   1   2   14.68    7.16
   4  -2  -2  359.95   15.61
   4  -2  -2  357.98    9.56
  -4   2   2  360.19   17.50
  -2   3   2   -1.27    1.85
  -2   3   2    1.18    2.66
   2  -3  -2    1.61    1.37
   2  -3  -2    0.15    4.25
   0   4   2    4.59    2.29
   0  -4  -2   -2.09    4.70
   0  -4  -2    5.30    1.64
   0  -4  -2    4.69    2.62
   2   5   2  601.63   13.79
   2   5   2  611.86   12.52
  -2  -5  -2  609.96   15.19
  -2  -5  -2  598.91   19.91
   4   6   2   68.86    5.81
   4   6   2   62.60    5.49
  -4  -6  -2   80.59   16.83
  -6  -7  -2  539.28   30.13
   6   7   2  535.73   16.87
   6  -1  -1   34.98    9.51
  -6   1   1   26.71    7.19
   4  -2  -1 1165.36   19.96
  -4   2   1 1141.49   33.69
   4  -2  -1 1150.48   30.56
   2  -3  -1  389.02   13.87
   2  -3  -1  374.34   14.59
  -2   3   1  373.37    9.47
   0   4   1 1030.67   15.04
   0  -4  -1 1011.08   25.43
   0  -4  -1 1008.51   25.41
   0   4   1 1015.98   19.06
  -2  -5  -1  450.71   17.32
   2   5   1  496.22   10.91
  -2  -5  -1  490.80   14.73
   2   5   1  485.51   12.16
   4   6   1  187.83    7.78
  -4  -6  -1  192.69   19.06
   4   6   1  192.33    8.58
   6   7   1   30.35    6.35
  -6  -7  -1   39.96   21.75
  -6   1   0  115.34   11.88
   6  -1   0  112.60   10.74
  -4   2   0   62.75    8.41
  -4   2   0   71.92    4.61
   4  -2   0   73.50    8.00
   4  -2   0   72.56    4.33
   2  -3   0 1247.32   32.53
   2  -3   0 1220.90   29.10
  -2   3   0 1220.55   22.01
   2  -3   0 1263.50   17.80
   0   4   0  101.89    3.04
   0  -4   0   99.47    8.03
   0  -4   0   98.28    7.46
   0   4   0   96.37    5.16
   2   5   0 2114.71   32.40
  -2  -5   0 2065.28   45.44
  -2  -5   0 2039.22   46.78
   2   5   0 2083.90   33.91
   4   6   0  312.86    9.76
  -4  -6   0  326.47   18.51
  -4  -6   0  295.63   22.46
   4   6   0  317.38   10.92
   6   7   0  130.97    9.14
  -6  -7   0  146.46   24.08
   6  -1   1   48.30    8.80
  -6   1  -1   73.04    9.67
   4  -2   1 1111.89   19.07
   4  -2   1 1164.25   33.37
   4  -2   1 1083.22   28.67
  -4   2  -1 1108.06   21.05
  -2   3  -1  332.42    9.45
   2  -3   1  330.14   13.98
   2  -3   1  327.84   12.01
   0   4  -1  607.91   10.47
   0  -4   1  578.61   16.88
   0   4  -1  581.07   13.30
   0  -4   1  593.54   19.09
  -2  -5   1  352.46   16.44
  -2  -5   1  357.07   16.24
   2   5  -1  359.22    9.61
   2   5  -1  355.22   10.23
   4   6  -1  411.44   12.87
  -4  -6   1  405.16   22.10
  -4  -6   1  415.83   25.34
  -6  -7   1  -22.37   20.94
   6   7  -1    8.08    5.28
  -6   1  -2    7.14    4.98
   6  -1   2    0.62    7.38
   4  -2   2  590.12   18.92
  -4   2  -2  621.58   15.02
   4  -2   2  640.25   12.86
   4  -2   2  611.50   22.72
   2  -3   2   13.06    4.39
   2  -3   2   21.86    4.74
  -2   3  -2   14.12    2.18
  -2   3  -2   12.23    2.70
   0   4  -2   -1.50    1.71
   0  -4   2   -0.28    4.96
   0   4  -2    3.88    2.16
   0  -4   2   -0.93    4.77
  -2  -5   2  582.44   23.03
  -2  -5   2  558.76   20.43
   2   5  -2  558.68   13.68
   2   5  -2  558.60   13.35
  -4  -6   2   75.88   15.55
  -4  -6   2   61.10   18.69
   4   6  -2   49.71    5.85
  -6  -7   2   42.58   24.18
   6   7  -2   56.37    7.10
   6  -1   3  110.66   10.79
  -6   1  -3  122.01   11.15
   6  -1   3  125.60   11.94
   4  -2   3  295.72   12.46
  -4   2  -3  320.72   10.85
   4  -2   3  312.79   16.27
  -2   3  -3  668.27   15.70
   2  -3   3  621.16   22.22
  -2   3  -3  658.57   12.83
   2  -3   3  637.73   16.88
   0   4  -3   10.86    2.73
   0  -4   3    8.31    6.56
   0  -4   3    6.71    5.23
   0   4  -3    7.38    2.67
  -2  -5   3    9.08    8.78
   2   5  -3    0.37    2.69
  -2  -5   3    5.32   10.68
   2   5  -3    4.88    3.12
   4   6  -3   40.47    5.39
  -4  -6   3   32.05   12.63
  -4  -6   3   81.32   19.06
   6  -1   4   25.55    9.26
  -6   1  -4   30.28    5.40
   6  -1   4   42.48    9.18
   4  -2   4    0.73    5.17
  -4   2  -4    1.43    3.12
   4  -2   4    1.00    5.19
  -2   3  -4  368.87   11.77
  -2   3  -4  385.55   10.10
   2  -3   4  359.74   17.44
   0   4  -4   80.21    5.70
   0  -4   4   79.31   11.64
   0   4  -4   84.82    5.20
   2   5  -4  231.13    8.84
  -2  -5   4  207.65   17.96
   2   5  -4  213.47    9.07
   4   6  -4    1.05    4.11
  -4  -6   4   -4.45   11.58
   6  -1   5    9.19    6.51
  -6   1  -5    0.49    3.66
   4  -2   5  140.65   12.56
  -4   2  -5  163.33    8.49
   2  -3   5   21.06    7.01
  -2   3  -5   23.61    4.43
  -2   3  -5   22.55    3.87
   0   4  -5  552.66   14.96
   0  -4   5  534.78   24.48
   0   4  -5  528.85   13.88
  -2  -5   5   58.29   14.02
   2   5  -5   50.45    5.65
   2   5  -5   46.64    5.35
   4   6  -5  246.87   11.54
  -4  -6   5  238.83   24.23
   6  -1   6   22.32    7.29
  -6   1  -6   24.62    5.28
  -4   2  -6   36.02    5.72
   4  -2   6   55.09   10.34
   2  -3   6  192.54   15.86
  -2   3  -6  192.27    9.52
  -2   3  -6  187.57    8.32
   0   4  -6    4.24    3.45
   0   4  -6   12.71    3.70
   0  -4   6    8.97    8.28
   2   5  -6  329.05   12.62
  -2  -5   6  338.07   23.08
   6  -1   7  103.38   13.26
  -6   1  -7   79.77    8.04
  -4   2  -7   83.29    7.74
   4  -2   7  113.03   13.14
   2  -3   7   17.03    8.17
  -2   3  -7    4.29    3.57
  -2   3  -7   16.09    4.16
   0   4  -7  124.41    8.19
   0  -4   7  119.19   14.59
   0   4  -7  119.90    7.77
  -2  -5   7  142.53   18.88
   2   5  -7  126.07    8.90
  -4   2  -8    7.77    4.80
   4  -2   8    7.26    7.28
  -2   3  -8  461.88   16.02
   2  -3   8  416.62   23.63
  -2   3  -8  436.14   14.72
   0   4  -8  174.54    9.92
   0  -4   8  182.32   18.60
   0   4  -8  195.46   10.18
  -4   2  -9  282.62   13.85
   4  -2   9  274.71   19.86
   2  -3   9   19.62    9.32
  -2   3  -9    1.10    4.24
  -2   3  -9    0.68    4.29
   1   5  11   45.18    6.66
  -1  -5 -11   47.64    7.50
   3   6  11    5.49    4.40
  -3  -6 -11    1.71    5.47
   1  -4 -10    9.79    5.24
   1   5  10   98.49    8.02
  -1  -5 -10   99.23    8.80
   3   6  10    6.11    4.95
  -3  -6 -10   11.47    5.49
  -5  -7 -10   16.84    7.00
   5   7  10   17.62    5.98
  -3   3   9   -4.53   21.05
  -1   4   9   55.96   20.56
   1  -4  -9  129.28    8.95
   1   5   9  527.13   16.11
  -1  -5  -9  518.15   16.65
   3   6   9  704.66   20.21
  -3  -6  -9  732.95   20.42
  -5  -7  -9   11.74    5.72
   5   7   9   15.21    5.49
  -3   3   8  202.64   24.87
   3  -3  -8  266.89   11.54
  -1   4   8   12.13   13.19
  -1  -5  -8   21.90    4.92
   1   5   8   27.37    5.20
  -1  -5  -8   33.47    7.52
   3   6   8  277.86   11.91
  -3  -6  -8  302.75   12.11
  -3  -6  -8  297.21   16.08
  -5  -7  -8  212.78   11.68
  -5  -7  -8  230.91   17.27
   3  -3  -7   87.15    9.38
  -3   3   7   51.74   14.51
   3  -3  -7   67.80    6.21
  -1   4   7  256.28    9.69
   1  -4  -7  283.36   10.83
   1  -4  -7  254.02   12.96
  -1   4   7  258.97   21.07
  -1  -5  -7  189.63   11.55
   1   5   7  175.30   18.07
  -1  -5  -7  179.48    8.80
   1   5   7  180.69    8.69
   3   6   7  355.42   13.02
  -3  -6  -7  362.19   17.67
  -3  -6  -7  363.20   12.40
   5   7   7   57.34    6.97
   5   7   7   62.28    6.96
  -5  -7  -7   77.07   14.06
   7   8   7   36.11    6.79
  -7  -8  -7   51.87   18.27
   7   8   7   25.83    7.48
   5  -2  -6   24.82    9.51
  -5   2   6   14.28   13.27
   3  -3  -6 1041.22   29.87
   3  -3  -6 1032.46   21.67
  -3   3   6 1011.69   37.02
  -1   4   6   10.75    3.63
  -1   4   6    7.66    7.36
   1  -4  -6   14.63    3.72
   1  -4  -6   13.31    6.34
  -1  -5  -6  187.09   11.95
   1   5   6  189.54    8.45
   1   5   6  184.31   15.57
  -1  -5  -6  192.65    8.21
  -3  -6  -6    6.91    4.08
  -3  -6  -6    7.87   10.34
   3   6   6    6.40    3.73
   5   7   6   24.24    5.17
   5   7   6   22.21    5.17
  -5  -7  -6   20.93   13.50
  -7  -8  -6   41.17   19.07
   7   8   6   31.73    7.34
  -5   2   5   53.13   12.47
   5  -2  -5   69.40    9.88
   3  -3  -5  208.89    8.02
   3  -3  -5  222.54   12.78
  -3   3   5  204.66   14.85
   1  -4  -5  749.40   22.57
  -1   4   5  761.16   16.41
   1  -4  -5  772.21   16.05
  -1   4   5  749.68   24.56
   1   5   5   -1.52    3.88
  -1  -5  -5    4.87    6.94
   1   5   5   -2.45    3.02
  -1  -5  -5    2.17    2.97
  -3  -6  -5  312.96   17.42
   3   6   5  318.42   11.43
   3   6   5  306.54   10.36
   5   7   5    7.10    4.17
   5   7   5   11.64    4.68
  -5  -7  -5    9.84   13.95
   7   8   5    3.91    5.62
  -7  -8  -5   -3.96   18.10
  -5   2   4   31.74    9.45
   5  -2  -4   48.29    8.75
   3  -3  -4   13.77    3.22
   3  -3  -4   11.52    6.65
  -3   3   4   10.97    5.50
   1  -4  -4  214.28   11.68
  -1   4   4  196.29   11.04
  -1   4   4  216.75    7.80
   1  -4  -4  195.56    6.60
   1   5   4   19.18    3.40
   1   5   4   13.16    2.96
  -1  -5  -4   15.57    7.39
  -1  -5  -4   18.27    3.07
   3   6   4  562.84   13.84
  -3  -6  -4  525.49   21.24
   3   6   4  580.22   15.00
  -5  -7  -4   19.43   14.87
   5   7   4    8.09    4.29
   5   7   4   10.89    4.30
  -7  -8  -4    3.77   19.54
   7   8   4   -3.13    5.21
  -5   2   3   28.61    7.61
   5  -2  -3   41.93    9.48
   3  -3  -3  177.38    6.24
  -3   3   3  187.95    6.88
  -3   3   3  182.85   12.55
   3  -3  -3  170.20   11.15
   1  -4  -3   10.01    1.88
  -1   4   3   13.29    2.94
   1  -4  -3   13.26    5.79
  -1   4   3    8.75    3.43
  -1  -5  -3  120.67    4.82
   1   5   3  113.38    5.91
  -1  -5  -3  117.23    9.97
   1   5   3  113.08    5.96
   3   6   3   17.01    3.75
  -3  -6  -3   14.02   11.63
   3   6   3   16.60    3.99
   5   7   3 1011.22   21.55
  -5  -7  -3  984.87   34.58
   5   7   3 1006.71   22.63
  -7  -8  -3  -19.44   19.42
   7   8   3    2.12    5.63
   7  -1  -2  253.40   17.31
  -7   1   2  245.69   19.98
  -5   2   2    9.03    5.67
   5  -2  -2   13.35    7.52
   3  -3  -2   72.20    8.00
  -3   3   2   71.88    4.81
  -3   3   2   69.61    8.41
   3  -3  -2   71.98    3.87
   1  -4  -2  784.85   11.97
  -1   4   2  781.47   22.48
   1  -4  -2  773.13   22.12
  -1   4   2  796.32   16.18
   1   5   2    3.54    1.91
  -1  -5  -2    3.90    2.50
   1   5   2    4.85    2.72
  -1  -5  -2   -7.01    6.09
   3   6   2  920.67   18.24
  -3  -6  -2  910.87   28.48
   3   6   2  906.31   19.09
   5   7   2   69.39    6.10
   5   7   2   66.69    6.50
  -5  -7  -2   81.98   17.87
   7   8   2   97.37    9.17
  -7  -8  -2  108.07   23.50
   7  -1  -1  200.41   15.42
  -7   1   1  208.60   17.64
   5  -2  -1  257.06   14.08
  -5   2   1  256.02   15.84
  -3   3   1  923.06   28.16
   3  -3  -1  906.71   25.55
  -3   3   1  921.40   17.72
  -1   4   1 1085.73   20.31
   1  -4  -1 1067.00   27.24
   1  -4  -1 1094.92   28.67
   1   5   1  127.78    4.51
  -1  -5  -1  115.43    9.82
   1   5   1  125.03    6.01
  -1  -5  -1  121.33    7.35
  -3  -6  -1   64.89   14.19
  -3  -6  -1   67.76    8.76
   3   6   1   72.54    5.35
   3   6   1   72.01    5.67
  -5  -7  -1  388.88   24.28
   5   7   1  376.42   13.33
  -7  -8  -1   35.59   24.88
   7   8   1   28.09    6.59
   7  -1   0   74.94   11.43
  -7   1   0   72.80   12.04
  -5   2   0  249.20   15.15
   5  -2   0  256.05   13.89
   3  -3   0  150.15   10.81
  -3   3   0  149.28    6.39
   3  -3   0  139.14    9.43
   1  -4   0 2221.63   47.49
   1  -4   0 2291.84   51.71
  -1   4   0 2286.82   36.61
  -1  -5   0  834.17   23.20
  -1  -5   0  843.78   23.67
   1   5   0  902.80   15.13
   1   5   0  880.29   17.98
   3   6   0  197.60    7.91
  -3  -6   0  179.98   16.75
   3   6   0  198.29    8.55
  -3  -6   0  201.81   13.24
  -5  -7   0  264.91   22.88
   5   7   0  264.74   11.13
   7  -1   1  144.39   13.36
  -7   1  -1  141.98   14.03
   5  -2   1  199.47   12.13
  -5   2  -1  204.86   13.66
   3  -3   1   89.71    8.81
   3  -3   1  101.60    8.08
  -3   3  -1   91.82    5.52
   1  -4   1  512.12   16.28
  -1   4  -1  511.83   12.93
   1  -4   1  537.07   18.54
  -1   4  -1  558.91    8.74
   1   5  -1 1008.77   17.46
  -1  -5   1  973.59   25.73
   1   5  -1 1016.77   20.16
  -1  -5   1 1008.94   28.41
  -3  -6   1   56.22   15.12
  -3  -6   1   49.46   12.43
   3   6  -1   46.44    4.93
   3   6  -1   49.81    5.13
   5   7  -1  251.60   11.13
  -5  -7   1  268.65   23.69
   7  -1   2  537.33   22.52
  -7   1  -2  539.15   24.99
   5  -2   2  233.25   14.52
   5  -2   2  233.09   12.59
  -5   2  -2  244.63    9.34
   3  -3   2  214.26   10.69
   3  -3   2  223.31   13.08
  -3   3  -2  220.82    8.60
   1  -4   2   30.95    7.96
   1  -4   2   35.85    6.03
  -1   4  -2   36.41    3.84
  -1   4  -2   36.24    2.70
   1   5  -2  209.00    8.17
   1   5  -2  236.44    7.33
  -1  -5   2  224.52   13.68
  -1  -5   2  210.22   12.22
   3   6  -2   24.38    4.33
  -3  -6   2   14.29   13.88
  -3  -6   2   24.54    9.06
   3   6  -2   27.82    5.05
  -5  -7   2   15.64   18.90
   5   7  -2   -3.48    4.13
  -7   1  -3    7.28    5.69
   7  -1   3    1.26    9.35
   5  -2   3  679.60   21.71
  -5   2  -3  693.26   17.42
   5  -2   3  674.72   25.97
  -3   3  -3   21.76    3.99
   3  -3   3   28.04    7.35
   3  -3   3   32.21    6.27
   1  -4   3   31.36    5.80
  -1   4  -3   39.36    4.55
   1  -4   3   37.46    9.91
  -1   4  -3   41.17    3.63
   1   5  -3   33.97    4.49
  -1  -5   3   50.86    9.57
  -1  -5   3   27.03    7.77
   1   5  -3   39.89    4.49
   3   6  -3   54.77    5.63
  -3  -6   3   56.44   13.37
  -3  -6   3   78.65   15.42
  -5  -7   3  162.15   22.66
   5   7  -3  168.85    9.86
   7  -1   4  -15.46    8.84
  -7   1  -4    3.31    5.62
   5  -2   4  328.71   17.95
   5  -2   4  317.15   14.40
  -5   2  -4  303.09   11.79
  -3   3  -4   87.73    6.67
   3  -3   4   90.66   11.12
  -1   4  -4  406.38   12.57
  -1   4  -4  386.82   10.29
   1  -4   4  385.68   18.86
   1   5  -4   14.75    3.61
   1   5  -4   17.25    3.90
  -1  -5   4   16.57    7.83
   3   6  -4   32.58    5.30
  -3  -6   4   23.31    9.80
   5   7  -4   39.91    7.11
   7  -1   5    3.99    6.48
   5  -2   5   27.46    7.33
  -5   2  -5   18.86    4.69
   3  -3   5  134.83   13.19
  -3   3  -5  119.74    7.89
  -1   4  -5   64.43    6.07
  -1   4  -5   81.76    5.69
   1  -4   5   74.83   11.53
   1   5  -5 1569.24   29.67
   1   5  -5 1685.16   31.14
  -1  -5   5 1564.79   47.28
  -3  -6   5   15.82    9.51
   3   6  -5   14.52    4.79
  -5   2  -6  400.42   14.74
   5  -2   6  410.96   21.29
   3  -3   6    5.58    6.55
  -3   3  -6    7.54    3.70
   1  -4   6  499.93   23.61
  -1   4  -6  505.69   14.05
  -1   4  -6  512.34   15.76
   1   5  -6   12.85    3.86
  -1  -5   6   14.31    9.36
   1   5  -6   12.92    4.51
   3   6  -6  284.90   12.37
  -3  -6   6  278.70   23.15
   5  -2   7  143.23   14.33
  -5   2  -7  132.64    9.47
   3  -3   7  197.50   16.51
  -3   3  -7  194.33   10.42
  -1   4  -7    0.74    3.55
  -1   4  -7    1.33    3.55
   1  -4   7    6.49    7.36
   1   5  -7  334.60   12.80
   1   5  -7  329.13   12.83
  -1  -5   7  328.04   22.12
  -5   2  -8  407.41   16.58
   5  -2   8  442.04   23.88
   3  -3   8  373.16   22.11
  -3   3  -8  357.46   14.75
  -1   4  -8  109.92    8.52
   1  -4   8  100.58   15.01
  -1   4  -8  118.69    8.13
   1   5  -8   59.03    7.10
  -1  -5   8   61.56   15.82
   3  -3   9  366.33   22.88
  -3   3  -9  350.48   15.52
  -2  -6 -11   12.64    6.11
   2   6  11   10.09    5.02
   0  -5 -10   -0.11    4.52
   2   6  10  272.02   12.54
  -2  -6 -10  257.89   12.70
  -4  -7 -10   37.16    7.45
   4   7  10   25.56    6.14
   2  -4  -9  188.14   10.51
   0   5   9  802.56   39.29
   0  -5  -9  859.65   21.89
   0   5   9  872.48   21.31
   2   6   9   12.66    4.84
  -2  -6  -9   12.90    5.17
  -4  -7  -9  390.75   15.26
   4   7   9  382.75   15.12
  -6  -8  -9   44.90    8.21
   6   8   9   37.13    6.85
   2  -4  -8   58.19    8.67
  -2   4   8   19.88   14.28
   2  -4  -8   58.41    6.29
   0  -5  -8   23.32    6.74
   0   5   8   -3.81   11.38
   0   5   8   21.18    4.37
   0  -5  -8   27.75    5.35
  -2  -6  -8  725.03   23.79
   2   6   8  731.32   19.32
  -2  -6  -8  731.66   19.03
  -4  -7  -8  111.38   13.20
   4   7   8   76.20    7.46
  -4  -7  -8   73.76    7.62
   6   8   8  214.66   11.86
  -6  -8  -8  214.72   12.18
  -6  -8  -8  248.41   19.51
  -4   3   7  388.39   27.98
   4  -3  -7  424.22   19.51
  -2   4   7    9.78   10.40
   2  -4  -7   31.65    7.99
   2  -4  -7   29.75    4.96
   0  -5  -7   16.29    6.88
   0   5   7   14.07    4.02
   0  -5  -7    6.96    4.06
   0   5   7   14.80    9.66
  -2  -6  -7  102.20    7.12
  -2  -6  -7  102.29   11.40
   2   6   7  107.52    7.79
   4   7   7    5.05    4.44
  -4  -7  -7    0.42   10.44
  -4  -7  -7    4.14    4.15
   6   8   7  105.17    9.11
   6   8   7  104.31    8.58
  -6  -8  -7  116.06   17.05
  -4   3   6  106.19   16.60
   4  -3  -6   95.77   10.53
   2  -4  -6  139.40   10.69
   2  -4  -6  158.91    7.42
  -2   4   6  136.09   14.22
   0   5   6    1.84    3.32
   0  -5  -6    6.49    3.66
   0   5   6   -0.24    6.23
   0  -5  -6    5.14    6.29
  -2  -6  -6  198.39    8.56
   2   6   6  197.58    9.54
  -2  -6  -6  198.37   14.11
   4   7   6   12.23    4.67
   4   7   6    8.51    4.44
  -4  -7  -6   22.51   12.02
   6   8   6   11.95    4.88
  -6  -8  -6   15.86   15.28
   6   8   6   25.86    6.50
   4  -3  -5  209.95   13.57
  -4   3   5  221.57   16.77
   2  -4  -5   15.83    3.30
  -2   4   5    7.88    3.23
   2  -4  -5   10.23    6.45
  -2   4   5    9.74    6.11
   0   5   5  332.61   14.37
   0  -5  -5  318.57    9.62
   0   5   5  322.72   10.62
   0  -5  -5  325.47   14.64
  -2  -6  -5   10.71    3.59
  -2  -6  -5   16.32    9.56
   2   6   5    2.06    3.75
  -4  -7  -5   -7.55   11.71
   4   7   5    2.44    3.75
   4   7   5    1.77    3.56
  -6  -8  -5  101.88   18.38
   6   8   5  116.63    8.90
   6   8   5  109.21    8.19
  -6   2   4   -5.13    7.85
   6  -2  -4   -6.01    7.94
   4  -3  -4   32.48    7.46
  -4   3   4   31.73    8.05
  -2   4   4    5.59    2.87
  -2   4   4    5.32    4.35
   2  -4  -4    9.12    2.53
   2  -4  -4    2.69    5.94
   0   5   4  873.08   18.42
   0  -5  -4  861.29   25.13
   0  -5  -4  923.19   16.65
   0   5   4  866.62   24.17
  -2  -6  -4 1343.94   34.88
   2   6   4 1381.81   26.27
   2   6   4 1340.79   23.80
   4   7   4  166.14    8.70
  -4  -7  -4  158.45   16.01
   4   7   4  155.35    8.01
  -6  -8  -4  140.54   19.67
   6   8   4  112.83    8.94
   6   8   4  127.73    8.19
  -6   2   3   62.22   12.93
   6  -2  -3   64.33   10.43
  -4   3   3  139.06   12.65
   4  -3  -3  122.10   10.45
   2  -4  -3   11.77    6.55
  -2   4   3   14.47    3.30
  -2   4   3    3.24    3.75
   0   5   3   -0.32    2.69
   0  -5  -3    0.51    1.85
   0  -5  -3    4.69    5.97
   0   5   3    1.42    2.53
   2   6   3  455.98   10.90
  -2  -6  -3  441.67   18.72
   2   6   3  456.21   12.84
  -4  -7  -3  109.77   15.60
   4   7   3  105.44    6.92
   4   7   3  116.79    7.49
   6   8   3  434.71   15.39
  -6   2   2  166.51   15.70
   6  -2  -2  144.70   13.06
  -4   3   2  201.53   13.97
   4  -3  -2  207.95   12.53
  -2   4   2  652.42   21.85
   2  -4  -2  657.80   21.07
  -2   4   2  627.45   14.32
   0   5   2  322.44    9.93
   0  -5  -2  311.36    6.43
   0  -5  -2  306.37   13.78
   0  -5  -2  302.81   12.05
   2   6   2  457.68   10.73
   2   6   2  440.02   12.55
  -2  -6  -2  466.23   13.88
  -2  -6  -2  441.18   18.63
   4   7   2   64.44    6.03
  -4  -7  -2   72.37   17.13
   4   7   2   57.22    5.66
   6   8   2   74.38    7.74
  -6  -8  -2  108.53   22.81
  -6   2   1  110.12   12.96
   6  -2  -1  134.37   12.21
   4  -3  -1  797.12   24.86
  -4   3   1  748.74   26.92
   2  -4  -1    1.00    3.50
  -2   4   1    1.93    2.40
   2  -4  -1   -3.20    4.89
   0  -5  -1  684.70   20.39
   0  -5  -1  631.74   20.17
   0   5   1  677.51   15.54
   0   5   1  673.02   10.61
   2   6   1   83.33    6.07
   2   6   1   83.70    4.82
  -2  -6  -1   83.98    7.64
  -2  -6  -1   70.54   11.61
   4   7   1  233.70    9.67
   4   7   1  232.95    9.55
  -4  -7  -1  246.55   19.11
  -6  -8  -1   57.72   21.72
   6   8   1   67.14    7.48
   6  -2   0   74.98   10.20
  -6   2   0   72.98   10.88
  -4   3   0  309.88    9.72
   4  -3   0  319.50   14.69
  -4   3   0  298.39   15.71
  -2   4   0 1658.64   28.96
   2  -4   0 1625.03   38.03
   2  -4   0 1673.02   42.27
   0  -5   0   93.77    8.96
   0   5   0   95.44    5.85
   0  -5   0   94.18    8.29
   0   5   0   99.28    3.23
  -2  -6   0  660.65   22.71
   2   6   0  697.08   16.36
   2   6   0  699.67   14.41
  -2  -6   0  691.97   21.74
  -4  -7   0   61.41   16.46
   4   7   0   51.43    5.83
   4   7   0   52.30    5.57
  -6  -8   0   25.23   20.82
   6   8   0   19.34    6.19
  -6   2  -1   49.18    9.35
   6  -2   1   46.96    9.24
   4  -3   1    4.98    5.95
   4  -3   1    8.47    4.90
  -4   3  -1    0.91    2.88
  -2   4  -1    4.28    2.60
   2  -4   1    2.08    4.37
   2  -4   1   -0.83    4.94
   0   5  -1   12.24    3.12
   0   5  -1   15.32    2.43
   0  -5   1    7.75    4.81
   0  -5   1    7.24    6.13
  -2  -6   1  508.87   20.39
   2   6  -1  541.82   14.35
  -2  -6   1  563.50   21.50
   2   6  -1  541.50   12.77
  -4  -7   1  262.49   19.85
   4   7  -1  241.07   10.17
  -6  -8   1    6.94   20.24
   6   8  -1   13.51    5.80
  -6   2  -2   66.20    9.28
   6  -2   2   56.77    9.57
   4  -3   2   56.82    7.38
  -4   3  -2   50.17    5.41
   4  -3   2   67.47    9.46
  -2   4  -2  233.75    9.03
   2  -4   2  231.41   13.36
   2  -4   2  239.04   11.09
   0  -5   2    9.83    6.74
   0   5  -2   17.27    3.00
   0   5  -2   12.54    3.08
   0  -5   2   13.04    6.32
  -2  -6   2    4.86    7.36
  -2  -6   2    2.28   10.41
   2   6  -2    9.50    3.16
   2   6  -2    6.86    3.32
  -4  -7   2  124.44   17.32
  -4  -7   2  123.85   14.97
   4   7  -2  114.50    7.65
   6  -2   3    2.47    5.84
   6  -2   3   -9.17    7.02
   4  -3   3   98.28    8.19
   4  -3   3   86.86   10.53
  -4   3  -3   75.87    6.34
   2  -4   3   67.87    7.05
   2  -4   3   48.32    9.90
  -2   4  -3   68.90    5.78
   0  -5   3    4.85    6.33
   0   5  -3    2.49    2.70
   0  -5   3    6.50    7.10
   0   5  -3    0.90    2.32
   2   6  -3  211.41    9.07
  -2  -6   3  213.02   14.81
   2   6  -3  210.79    8.56
  -2  -6   3  211.33   16.54
   4   7  -3   24.51    5.46
  -4  -7   3   22.16   15.76
  -4  -7   3    9.76    9.84
   6  -2   4    3.99    6.18
  -6   2  -4    8.74    4.17
   4  -3   4  367.08   18.72
  -4   3  -4  347.84   12.70
   2  -4   4  403.85   19.92
  -2   4  -4  416.99   13.50
   0   5  -4   75.16    6.07
   0   5  -4   72.18    5.12
   0  -5   4   71.39   11.53
   2   6  -4   82.53    6.38
  -2  -6   4  103.38   14.00
   2   6  -4   83.99    6.15
  -4  -7   4  111.77   17.07
   4   7  -4  113.45    8.68
  -6   2  -5   33.12    5.75
   6  -2   5   52.35   10.13
  -4   3  -5   -2.61    2.90
   4  -3   5    7.10    6.19
  -2   4  -5  843.64   21.09
   2  -4   5  839.99   30.38
   0  -5   5   30.44    8.14
   0   5  -5   28.97    4.31
   0   5  -5   26.78    4.63
  -2  -6   5  116.76   15.55
   2   6  -5  157.68    8.38
   2   6  -5  142.45    8.17
  -4  -7   5  104.85   18.15
   4   7  -5  131.71    9.43
  -6   2  -6   60.23    7.32
   6  -2   6   74.99   11.69
   4  -3   6   67.48   11.34
  -4   3  -6   58.47    6.43
   2  -4   6   26.24    7.75
  -2   4  -6   27.37    5.13
   0  -5   6  371.95   22.14
   0   5  -6  374.22   13.34
   0   5  -6  378.81   12.64
   2   6  -6   11.34    4.72
  -2  -6   6   18.38    9.42
   4  -3   7  152.89   15.18
  -4   3  -7  139.58    9.73
  -2   4  -7  147.83    9.59
   2  -4   7  160.01   16.11
   0   5  -7   68.15    6.92
   0   5  -7   66.91    6.86
   0  -5   7   88.73   14.74
  -2  -6   7   13.11   10.85
   2   6  -7   14.53    5.41
   4  -3   8   21.01    8.46
  -4   3  -8   24.90    5.74
  -2   4  -8  166.06   10.34
   2  -4   8  204.73   18.14
   0  -5   8   19.13   10.17
   0   5  -8   15.50    4.86
   1  -5 -10  327.98   14.08
   1   6  10    1.35    4.35
  -1  -6 -10   -0.53    4.49
  -3  -7 -10  457.77   16.53
   3   7  10  417.56   16.26
  -1   5   9  -34.48   15.67
   1   6   9  480.06   15.73
  -1  -6  -9  489.04   15.97
  -3  -7  -9    5.29    5.13
   3   7   9    0.61    4.30
   5   8   9  132.14   10.13
  -5  -8  -9  153.06   10.63
   3  -4  -8   -3.79    6.69
  -3   4   8  -27.01   12.40
  -1   5   8  282.26   23.88
   1  -5  -8  303.18   15.15
   1  -5  -8  308.83   11.95
   1   6   8   54.70    6.64
  -1  -6  -8   60.56    8.55
  -1  -6  -8   71.09    6.90
  -3  -7  -8  661.70   24.50
  -3  -7  -8  682.70   18.61
   3   7   8  650.35   19.13
   5   8   8   62.87    7.05
  -5  -8  -8   65.19    7.91
  -5  -8  -8   66.19   14.31
   3  -4  -7  227.64   14.26
  -3   4   7  231.16   21.30
  -1   5   7  572.15   26.20
   1  -5  -7  589.27   15.40
   1  -5  -7  556.07   20.55
  -1   5   7  551.93   15.07
   1   6   7   -2.57    3.67
  -1  -6  -7   -1.20    6.59
  -1  -6  -7   -1.06    3.53
   3   7   7   55.41    6.75
  -3  -7  -7   57.80    6.19
  -3  -7  -7   60.24   11.53
   5   8   7   23.45    6.13
   5   8   7   38.56    6.75
  -5  -8  -7   34.85   14.02
  -5   3   6   35.24   13.17
   5  -3  -6   52.18   11.67
   3  -4  -6   10.23    7.41
  -3   4   6   -5.56    7.37
   1  -5  -6  293.04    9.63
   1  -5  -6  259.25   14.00
  -1   5   6  293.13   16.35
  -1   5   6  266.95   10.24
  -1  -6  -6    6.75    3.67
  -1  -6  -6    2.10    7.44
   1   6   6    7.58    3.69
  -3  -7  -6   54.43   12.12
  -3  -7  -6   39.23    5.34
   3   7   6   32.68    5.57
  -5  -8  -6    8.36   12.77
   5   8   6   10.45    4.99
   5   8   6    2.62    4.26
   5  -3  -5   -5.76    7.08
  -5   3   5   -9.88    8.15
   3  -4  -5  123.43   10.79
  -3   4   5  119.00   12.75
  -1   5   5    7.15    5.00
   1  -5  -5   -1.62    2.51
   1  -5  -5   10.34    6.84
  -1   5   5    1.59    3.32
  -1  -6  -5  142.77    6.69
   1   6   5  151.68    8.37
   1   6   5  158.13    9.50
  -1  -6  -5  146.54   12.12
   3   7   5  142.55    7.41
  -3  -7  -5  156.89   14.62
   3   7   5  159.50    8.56
   5   8   5  175.51    9.53
   5   8   5  167.63    9.56
  -5  -8  -5  189.58   17.99
   7   9   5  241.77   12.95
  -7  -9  -5  245.67   23.94
   5  -3  -4   24.07    9.65
  -5   3   4   14.12    7.81
   3  -4  -4  398.46   17.66
  -3   4   4  398.19   19.29
  -1   5   4  922.50   27.44
  -1   5   4  952.36   19.61
   1  -5  -4  929.74   27.44
  -1  -6  -4  568.22   21.01
  -1  -6  -4  593.13   12.69
   1   6   4  602.87   15.17
   1   6   4  608.74   17.55
   3   7   4  482.06   12.89
   3   7   4  483.03   14.59
  -3  -7  -4  490.85   21.82
   5   8   4   38.73    5.88
   5   8   4   39.76    6.11
  -5  -8  -4   59.99   16.52
   7   9   4  248.35   13.24
  -7  -9  -4  224.65   23.99
  -5   3   3   69.21   11.89
   5  -3  -3   77.83   10.21
   3  -4  -3   74.54    9.37
  -3   4   3   85.03    5.72
  -3   4   3   86.51   10.01
  -1   5   3  197.76    8.20
   1  -5  -3  186.23   11.76
  -1   5   3  194.67   10.90
  -1  -6  -3  674.61   12.97
   1   6   3  674.21   16.42
  -1  -6  -3  675.15   19.11
  -1  -6  -3  649.01   22.25
   3   7   3  693.51   15.69
   3   7   3  674.48   17.12
  -3  -7  -3  667.23   25.04
   5   8   3  771.55   19.69
   5   8   3  775.25   19.33
  -5  -8  -3  772.08   30.86
   7   9   3   -5.24    5.43
  -7  -9  -3  -26.15   18.36
  -5   3   2  509.47   23.96
   5  -3  -2  518.95   21.61
   3  -4  -2   22.39    7.66
  -3   4   2    8.05    4.45
  -3   4   2   14.15    3.42
   1  -5  -2 1373.99   35.42
  -1   5   2 1396.76   25.66
   1  -5  -2 1323.64   34.05
  -1  -6  -2   32.16    9.31
   1   6   2   22.40    4.14
   1   6   2   19.62    2.77
  -1  -6  -2   22.25    5.16
   3   7   2  137.03    7.85
  -3  -7  -2  106.45   14.93
   3   7   2  103.59    6.07
   5   8   2  107.45    7.68
  -5  -8  -2  113.56   17.83
   5   8   2   98.54    7.49
  -7   2   1  367.86   23.01
   7  -2  -1  377.83   20.72
   5  -3  -1   17.45    8.03
  -5   3   1   15.69    6.25
  -3   4   1  726.65   16.43
   3  -4  -1  750.38   23.74
  -3   4   1  720.42   25.36
  -1   5   1    3.36    2.89
   1  -5  -1    3.50    5.81
   1  -5  -1    4.68    3.90
  -1  -6  -1 1109.35   30.07
   1   6   1 1158.38   18.62
   1   6   1 1150.22   22.99
  -1  -6  -1 1129.88   29.41
  -3  -7  -1   21.05   13.01
   3   7   1   16.83    4.34
   3   7   1    9.02    3.45
  -5  -8  -1   88.04   17.80
   5   8   1  115.66    8.01
   7  -2   0   14.94   10.49
  -7   2   0   14.32    7.77
   5  -3   0  643.03   23.24
  -5   3   0  611.53   25.46
   3  -4   0   95.95    9.00
   3  -4   0   79.00    8.97
  -3   4   0   84.70    5.73
   1  -5   0  852.36   26.06
  -1   5   0  870.76   18.84
   1  -5   0  906.07   24.94
   1   6   0  216.34    6.34
  -1  -6   0  204.87   13.22
  -1  -6   0  222.28   12.60
   1   6   0  218.99    9.07
   3   7   0  250.52   10.32
  -3  -7   0  290.19   14.97
  -3  -7   0  262.69   18.28
   3   7   0  273.86    9.36
   5   8   0   29.32    5.91
  -5  -8   0   58.71   18.68
  -7   2  -1   30.40    8.54
   7  -2   1   40.48   11.82
  -5   3  -1  372.46   18.93
   5  -3   1  385.62   17.26
   3  -4   1  189.19   11.22
  -3   4  -1  176.48    8.07
   3  -4   1  180.25   12.81
   1  -5   1  277.35   12.98
  -1   5  -1  284.11    9.95
   1  -5   1  288.75   14.75
   1   6  -1  146.60    7.63
  -1  -6   1  121.09   11.63
  -1  -6   1  128.57   11.50
   1   6  -1  140.77    5.64
  -3  -7   1   70.82   14.96
   3   7  -1   50.70    5.85
  -3  -7   1   61.45   10.90
   3   7  -1   56.65    5.31
   5   8  -1   39.61    6.28
  -5  -8   1   58.04   18.41
  -7   2  -2    5.60    6.26
   7  -2   2  -11.99    8.62
   5  -3   2   33.43    7.44
   5  -3   2   34.61    8.68
  -5   3  -2   29.43    4.62
   3  -4   2  111.56    8.94
  -3   4  -2  100.27    6.68
   3  -4   2  110.04   11.21
   1  -5   2   25.33    6.81
   1  -5   2   35.19    7.29
  -1   5  -2   23.97    4.12
   1   6  -2  218.46    9.27
  -1  -6   2  211.90   15.13
   1   6  -2  223.19    7.46
  -1  -6   2  208.95   13.14
  -3  -7   2   13.34    7.68
   3   7  -2   -3.54    3.36
  -3  -7   2   13.12   12.31
   3   7  -2    0.85    3.28
  -5  -8   2  426.87   25.97
   5   8  -2  375.78   14.67
   7  -2   3    2.14    9.77
  -7   2  -3   20.14    7.10
   5  -3   3   67.50   10.25
  -5   3  -3   68.22    6.28
   5  -3   3   71.28    8.66
  -3   4  -3  194.69    9.26
   3  -4   3  215.24   11.03
   3  -4   3  208.62   14.34
   1  -5   3  142.92   12.29
   1  -5   3  142.48    9.29
  -1   5  -3  135.34    7.43
  -1  -6   3  169.85   14.95
   1   6  -3  179.41    8.51
  -1  -6   3  168.49   12.02
   1   6  -3  165.01    7.08
  -3  -7   3  245.63   18.64
   3   7  -3  238.11   10.16
   5   8  -3   19.15    6.12
  -5   3  -4  199.25   10.10
   5  -3   4  209.06   15.59
   3  -4   4  274.67   16.79
  -3   4  -4  274.39   11.37
   1  -5   4  162.30   13.64
  -1   5  -4  146.61    8.22
   1   6  -4  256.34    9.30
   1   6  -4  228.05   10.05
  -1  -6   4  258.25   17.80
  -3  -7   4  464.21   25.00
   3   7  -4  444.00   14.41
  -5   3  -5  300.13   12.88
   5  -3   5  293.01   18.63
  -3   4  -5  532.63   16.84
   3  -4   5  541.28   24.30
   1  -5   5  466.03   22.88
  -1   5  -5  455.84   14.95
   1   6  -5  688.82   18.48
  -1  -6   5  631.80   28.09
   1   6  -5  674.21   17.05
   3   7  -5    1.44    4.16
  -3  -7   5   11.56    9.95
   5  -3   6  142.88   14.48
  -5   3  -6  150.74   10.01
   3  -4   6    3.64    7.05
  -3   4  -6   10.72    4.34
   1  -5   6   80.55   13.20
  -1   5  -6   65.48    6.79
  -1  -6   6  261.46   20.23
   1   6  -6  291.57   11.65
   1   6  -6  306.02   12.36
   5  -3   7   21.66    8.02
  -5   3  -7   10.79    5.28
  -3   4  -7  331.69   14.52
   3  -4   7  350.85   20.94
   1  -5   7    5.30    7.65
  -1   5  -7   14.53    4.91
  -1  -6   7   41.94   11.70
   3  -4   8   11.41    8.07
  -3   4  -8    4.72    4.70
  -1   5  -8   91.80    8.48
   1  -5   8  118.05   15.01
   0  -6 -10  466.65   16.08
   2   7  10  282.65   13.24
  -2  -7 -10  279.78   13.05
   4   8  10   67.67    7.89
  -4  -8 -10   93.02    9.06
  -2   5   9   33.18   17.94
   0  -6  -9   22.54    5.28
   0   6   9   16.85    5.08
  -2  -7  -9    7.22    4.95
   2   7   9    8.68    4.86
   4   8   9  129.41    9.63
  -4  -8  -9  124.40    9.51
   2  -5  -8    8.45    7.66
  -2   5   8   -9.19   11.53
   0   6   8  297.09   12.16
   0  -6  -8  281.20   15.02
   0  -6  -8  304.71   11.70
  -2  -7  -8   68.71   10.03
  -2  -7  -8   41.41    5.98
   2   7   8   50.07    6.85
  -4  -8  -8   40.40    6.68
  -4  -8  -8   83.95   13.64
   4   8   8   50.20    7.30
  -6  -9  -8   31.41   14.69
  -6  -9  -8   -2.29    5.54
   6   9   8    6.16    5.52
  -4   4   7   50.88   14.41
   4  -4  -7   69.98   10.72
   2  -5  -7   24.27    8.29
  -2   5   7    6.70    8.83
   0   6   7    8.27    4.05
   0   6   7    0.28    7.93
   0  -6  -7   18.58    4.25
   0  -6  -7   18.54    7.51
  -2  -7  -7   71.28   10.78
   2   7   7   68.78    7.15
  -2  -7  -7   69.01    6.08
   4   8   7   89.99    8.18
  -4  -8  -7  119.65   14.57
  -4  -8  -7   90.93    7.63
   6   9   7  162.39   10.70
  -6  -9  -7  188.82   18.85
   6   9   7  162.90   10.52
   4  -4  -6  310.88   17.60
  -4   4   6  328.53   22.54
   2  -5  -6   41.35    9.13
  -2   5   6   27.06    7.89
   0   6   6  180.79    9.02
   0   6   6  198.58   12.76
   0  -6  -6  182.25    7.90
   0  -6  -6  193.60   12.83
  -2  -7  -6    7.90    3.75
   2   7   6    4.05    4.35
  -2  -7  -6   18.04   10.11
  -4  -8  -6   25.96   12.67
   4   8   6   15.36    4.89
   4   8   6   12.72    5.08
  -6  -9  -6  227.36   20.74
   6   9   6  200.36   11.31
   6   9   6  203.33   11.49
  -4   4   5   18.84    8.52
   4  -4  -5   17.72    8.48
  -2   5   5  310.20   10.56
  -2   5   5  277.18   16.11
   2  -5  -5  296.80   15.61
   0   6   5  120.23    9.42
   0   6   5  109.25    7.38
   0  -6  -5  117.07   10.87
  -2  -7  -5  741.06   16.37
   2   7   5  734.42   18.59
  -2  -7  -5  709.78   25.51
   4   8   5   59.00    6.41
  -4  -8  -5   57.92   12.89
   4   8   5   65.90    6.61
   6   9   5  126.94    9.11
  -6  -9  -5  131.24   18.13
   6   9   5  121.29    9.29
  -4   4   4  600.33   25.99
   4  -4  -4  624.21   24.09
  -2   5   4   33.35    5.20
  -2   5   4   42.56    8.35
   2  -5  -4   46.39    9.52
   0  -6  -4  625.72   21.99
   0   6   4  670.65   20.82
   0   6   4  659.39   16.35
   2   7   4   39.48    4.43
   2   7   4   33.57    5.86
  -2  -7  -4   54.61   12.20
   4   8   4  268.18   10.32
  -4  -8  -4  271.42   18.30
   4   8   4  283.82   11.59
   6   9   4   45.72    6.69
   6   9   4   45.34    7.33
  -6  -9  -4   47.28   18.57
   6  -3  -3  112.42   12.87
  -6   3   3   85.61   14.42
   4  -4  -3   22.80    8.61
  -4   4   3   16.56    6.78
   2  -5  -3  294.55   15.13
  -2   5   3  312.19   15.48
  -2   5   3  318.51   10.62
   0   6   3  134.29    9.05
   0   6   3  129.00    7.57
   0  -6  -3  133.11   11.29
   2   7   3 1137.29   20.60
   2   7   3 1143.56   24.20
  -2  -7  -3 1120.76   32.14
   4   8   3   -3.20    3.28
  -4  -8  -3   18.22   13.36
   4   8   3   -0.86    3.93
  -6  -9  -3  172.79   20.63
   6   9   3  162.54   10.32
  -6   3   2   40.16   10.39
   6  -3  -2   41.71   10.21
  -4   4   2  766.88   28.54
   4  -4  -2  752.09   26.15
  -2   5   2  309.97   10.33
  -2   5   2  295.39   15.00
   2  -5  -2  290.94   14.74
   0  -6  -2   51.27    9.15
   0  -6  -2   53.22    6.69
   0   6   2   52.86    5.18
  -2  -7  -2  -10.38    9.37
   2   7   2    2.23    2.55
   2   7   2    2.07    3.66
   4   8   2   69.17    6.61
   4   8   2   72.72    6.10
  -4  -8  -2   74.45   14.99
   6   9   2   49.54    7.17
  -6  -9  -2   64.23   20.71
   6  -3  -1  134.02   12.90
  -6   3   1  149.36   14.82
  -4   4   1   -0.36    3.91
  -4   4   1    0.59    2.70
   4  -4  -1    5.07    6.89
  -2   5   1  701.76   16.65
   2  -5  -1  690.63   22.66
   2  -5  -1  690.54   24.15
   0  -6  -1  204.25   12.85
   0   6   1  225.56    9.07
   0  -6  -1  192.42   11.25
   2   7   1  219.19    7.38
  -2  -7  -1  226.97   11.83
   2   7   1  219.35    9.77
  -2  -7  -1  206.73   15.61
   4   8   1   33.85    5.74
  -4  -8  -1   69.92   14.92
   4   8   1   32.10    5.05
   6   9   1   17.18    5.98
  -6  -9  -1   40.36   19.56
  -6   3   0   37.91    9.65
   6  -3   0   40.50   10.76
  -4   4   0  180.63    8.27
   4  -4   0  166.44   12.88
  -4   4   0  162.32   12.33
   4  -4   0  189.95   12.54
   2  -5   0   44.13    7.83
   2  -5   0   42.06    8.15
  -2   5   0   43.60    5.07
   0  -6   0  127.37   10.26
   0   6   0  135.82    7.22
   0  -6   0   96.77   10.46
  -2  -7   0  165.69   14.71
  -2  -7   0  171.66   12.34
   2   7   0  161.93    6.65
   2   7   0  183.08    8.95
   4   8   0  154.40    8.47
   4   8   0  148.54    9.18
  -4  -8   0  164.86   17.21
  -6  -9   0   39.38   20.25
   6   9   0   19.39    6.60
  -6   3  -1   24.04    7.34
   6  -3   1   20.84    9.41
   4  -4   1  191.13   13.86
  -4   4  -1  169.78    8.28
   4  -4   1  183.76   12.10
   2  -5   1  381.36   17.49
   2  -5   1  379.61   15.40
  -2   5  -1  354.19   11.85
   0  -6   1   59.48    9.26
   0  -6   1   58.57    9.62
   0   6  -1   58.61    5.38
  -2  -7   1  298.46   16.30
  -2  -7   1  274.09   16.57
   2   7  -1  264.69   10.93
   2   7  -1  281.17    9.11
   4   8  -1   34.57    5.50
  -4  -8   1   59.39   16.34
   6  -3   2  110.87   11.45
  -6   3  -2  106.04   12.07
   4  -4   2   38.54    8.49
  -4   4  -2   27.44    4.73
   4  -4   2   26.54    6.92
  -2   5  -2   40.56    4.87
   2  -5   2   32.34    7.10
   2  -5   2   39.61    8.17
   0  -6   2   13.37    6.72
   0  -6   2   23.77    7.98
   0   6  -2   11.04    3.72
   2   7  -2  757.97   18.79
  -2  -7   2  710.11   26.74
  -2  -7   2  726.14   24.62
   2   7  -2  740.29   16.55
  -4  -8   2  308.48   20.90
   4   8  -2  275.13   11.58
   6  -3   3  279.95   18.76
   6  -3   3  284.89   16.13
  -4   4  -3  136.86    7.92
   4  -4   3  136.07    9.98
   4  -4   3  136.72   12.75
   2  -5   3  564.26   23.34
   2  -5   3  593.70   18.53
   0   6  -3    1.87    3.34
   0  -6   3   -1.34    5.78
   2   7  -3   21.48    4.50
   2   7  -3   14.41    3.94
  -2  -7   3   17.29    7.97
   4   8  -3   44.09    6.36
   6  -3   4   29.75    8.47
  -6   3  -4   29.86    5.57
  -4   4  -4  261.34   11.65
   4  -4   4  248.36   16.27
  -2   5  -4  142.57    8.19
   2  -5   4  119.74   12.15
   0  -6   4  577.71   25.29
   0   6  -4  567.26   16.61
   2   7  -4  228.94    9.93
   2   7  -4  240.44   10.70
  -2  -7   4  230.11   17.99
   4   8  -4   67.16    7.55
  -6   3  -5  257.08   12.58
   6  -3   5  284.87   19.28
  -4   4  -5  167.16   10.00
   4  -4   5  154.79   14.32
  -2   5  -5  472.27   16.02
   2  -5   5  473.53   23.24
   0   6  -5   20.12    4.66
   0  -6   5   47.73   12.13
  -2  -7   5  311.24   21.43
   4  -4   6   92.65   12.82
  -4   4  -6   81.22    8.06
  -2   5  -6   70.93    7.41
   2  -5   6   70.74   12.60
   0  -6   6  213.40   18.43
   0   6  -6  213.60   11.01
  -2  -7   6   73.98   14.90
  -4   4  -7   51.37    7.40
   4  -4   7   57.02   11.24
   2  -5   7   10.51    7.53
  -2   5  -7   16.41    5.23
   0  -6   7    6.47    8.90
   0   6  -7    4.38    4.34
   1   7  10   39.24    6.58
  -3  -8 -10  247.70   12.33
   3   8  10  198.09   11.94
   1   7   9  156.46    9.89
  -3  -8  -9  235.38   11.67
   3   8   9  234.90   12.37
  -3  -8  -9  275.09   17.18
  -5  -9  -9  201.85   17.41
   5   9   9  133.63   10.36
  -5  -9  -9  127.50   10.26
   3  -5  -8   33.99   10.10
  -3   5   8   -7.96   12.71
   1  -6  -8   46.22    9.88
  -1   6   8   15.59   11.76
  -1  -7  -8   35.44    9.12
   1   7   8   17.47    5.27
   3   8   8   13.84    4.98
  -3  -8  -8    6.80    5.08
  -3  -8  -8   22.79   10.65
  -5  -9  -8  139.13   16.24
   5   9   8  112.32    9.60
  -5  -9  -8  118.23    9.44
  -3   5   7   -5.21    8.97
   3  -5  -7    9.78    8.45
  -1   6   7   31.54    5.63
   1  -6  -7   39.28    9.28
  -1   6   7   13.64    8.00
   1   7   7   47.12    5.92
  -1  -7  -7   53.46    9.20
   3   8   7  319.19   13.17
  -3  -8  -7  358.86   19.35
  -3  -8  -7  353.02   12.60
   5   9   7    8.50    5.37
  -5  -9  -7   36.20   14.55
   5   9   7   12.00    5.77
  -3   5   6  240.70   18.22
   3  -5  -6  235.55   15.13
   1  -6  -6   85.17    9.71
  -1   6   6   82.62   10.72
  -1   6   6   83.04    6.79
  -1  -7  -6   33.68    9.66
   1   7   6   28.27    5.31
   3   8   6   50.50    6.82
  -3  -8  -6   63.24    6.03
  -3  -8  -6   69.74   12.47
  -5  -9  -6  247.77   19.27
   5   9   6  233.01   11.41
   5   9   6  233.76   11.96
   5  -4  -5   95.94   12.09
  -5   4   5   84.86   15.49
  -3   5   5    8.62    6.69
   3  -5  -5   14.44    8.23
  -1   6   5 1327.36   36.37
   1  -6  -5 1219.39   34.95
  -1   6   5 1248.85   25.47
   1   7   5  246.50   10.73
  -1  -7  -5  239.74   15.25
  -3  -8  -5  842.34   28.87
   3   8   5  882.65   21.64
   3   8   5  817.80   18.77
   5   9   5   51.24    6.84
  -5  -9  -5   77.36   15.48
   5   9   5   59.94    7.34
   5  -4  -4   25.47   10.38
  -5   4   4    3.80    8.22
   3  -5  -4  169.33   12.98
  -3   5   4  184.55   14.14
  -1   6   4    8.28    4.48
  -1   6   4    4.17    3.65
   1  -6  -4   26.73    8.69
   1   7   4  558.20   15.67
   1   7   4  568.22   17.77
  -1  -7  -4  516.32   21.37
   3   8   4   66.33    5.97
  -3  -8  -4   73.32   12.77
   3   8   4   76.87    7.30
  -5  -9  -4  510.07   25.94
   5   9   4  507.98   15.87
   5   9   4  513.88   16.43
   5  -4  -3  289.57   17.49
  -5   4   3  273.19   19.14
   3  -5  -3   39.63    9.32
  -3   5   3   26.52    4.47
  -3   5   3   22.37    6.48
  -1   6   3  654.42   16.96
  -1   6   3  665.16   22.68
   1  -6  -3  648.34   22.65
   1   7   3  177.18    9.19
  -1  -7  -3  161.32    9.41
  -1  -7  -3  171.58   13.72
   3   8   3  225.09   10.47
   3   8   3  212.59    8.53
  -3  -8  -3  230.92   16.95
   5   9   3    8.49    5.07
  -5  -9  -3   31.39   16.16
   5   9   3   15.04    5.47
   5  -4  -2  532.65   23.06
  -5   4   2  530.78   25.44
  -3   5   2   11.23    5.05
  -3   5   2   11.10    3.54
   3  -5  -2   18.19    7.95
  -1   6   2  160.32    8.20
   1  -6  -2  151.17   11.75
   1  -6  -2  147.24   10.60
  -1  -7  -2   39.17   10.66
   1   7   2   38.29    5.71
  -1  -7  -2   33.49    5.96
   3   8   2   -0.50    3.94
   3   8   2   -4.18    3.00
  -3  -8  -2   -1.90   11.91
   5   9   2  180.05    9.94
  -5  -9  -2  217.15   19.35
   5   9   2  214.70   10.38
   5  -4  -1  286.33   16.77
  -5   4   1  283.44   17.72
   3  -5  -1  285.44   16.34
   3  -5  -1  294.59   15.36
  -3   5   1  289.48   10.67
   1  -6  -1  590.59   21.55
   1  -6  -1  578.04   20.68
  -1   6   1  607.01   15.86
  -1  -7  -1  243.52   12.66
  -1  -7  -1  232.53   15.07
   1   7   1  238.42    9.98
   3   8   1  114.32    8.16
  -3  -8  -1  105.34   14.64
   3   8   1  117.46    6.57
   5   9   1   17.13    5.24
  -5  -9  -1   13.20   16.05
  -5   4   0    3.30    4.94
   5  -4   0   -1.25    7.27
  -3   5   0   98.16    6.68
   3  -5   0  103.56   10.27
   3  -5   0   94.39    9.87
   1  -6   0    6.33    5.15
   1  -6   0    1.33    7.07
  -1   6   0    6.01    3.48
  -1  -7   0  483.71   18.95
   1   7   0  478.14   14.49
  -1  -7   0  462.50   19.38
   3   8   0   36.51    4.93
  -3  -8   0   62.12   13.88
   3   8   0   31.22    5.79
   5   9   0   87.25    8.07
  -5  -9   0  117.53   18.34
   5  -4   1  116.34   12.71
   5  -4   1  119.55   11.36
  -5   4  -1  116.05   11.89
  -3   5  -1  218.97    9.52
   3  -5   1  211.12   12.60
   3  -5   1  196.68   14.12
   1  -6   1  173.02   12.73
   1  -6   1  162.39   11.23
  -1   6  -1  162.76    8.53
  -1  -7   1  144.03   12.31
   1   7  -1  157.26    8.64
  -1  -7   1  147.78   12.59
   3   8  -1  231.12   11.02
  -3  -8   1  237.19   17.01
   3   8  -1  213.47    9.08
   5   9  -1   85.66    7.88
  -5  -9   1  108.61   18.31
   5  -4   2    4.58    6.13
  -5   4  -2   -2.27    3.26
   5  -4   2   -8.53    6.58
   3  -5   2   72.35   10.16
   3  -5   2   80.20    8.73
  -3   5  -2   77.29    6.56
   1  -6   2  199.88   11.79
  -1   6  -2  194.57    9.33
   1  -6   2  192.49   14.20
   1   7  -2  491.50   15.01
  -1  -7   2  496.41   19.00
  -1  -7   2  484.35   21.72
  -3  -8   2   56.15   13.10
   3   8  -2   37.60    5.58
  -3  -8   2   63.69   11.60
   3   8  -2   48.49    6.95
   5  -4   3  617.48   22.44
   5  -4   3  626.33   27.09
  -5   4  -3  579.82   17.81
  -3   5  -3   58.70    6.33
   3  -5   3   66.83    9.40
  -1   6  -3  388.17   13.57
   1  -6   3  381.89   19.79
  -1  -7   3   21.55    8.07
   1   7  -3   25.58    4.85
  -3  -8   3  127.04   14.74
   5  -4   4   23.45    7.85
  -5   4  -4   26.57    5.26
  -3   5  -4  656.40   19.19
   3  -5   4  669.01   27.19
  -1   6  -4   78.54    6.72
   1  -6   4   83.70   12.11
  -1  -7   4  490.96   24.51
   1   7  -4  490.77   15.66
  -3  -8   4  119.70   15.32
   5  -4   5  186.87   16.19
  -5   4  -5  164.98   10.40
   3  -5   5    2.35    6.15
  -3   5  -5    4.02    3.87
  -1   6  -5  104.30    8.23
   1  -6   5  120.14   13.34
   1   7  -5    5.77    4.22
  -1  -7   5   22.69    9.39
  -5   4  -6   19.62    5.75
   5  -4   6   24.05    8.49
   3  -5   6   78.26   12.80
  -3   5  -6   75.10    7.53
  -1   6  -6    0.55    3.56
   1  -6   6    9.58    8.19
  -1  -7   6   53.67   13.76
   1   7  -6   46.55    6.62
   3  -5   7   32.37    9.58
  -3   5  -7   25.76    6.26
  -1   6  -7   23.18    5.70
   1  -6   7   33.34   10.11
   2   8  10    2.21    4.84
   0   7   9  226.63   11.85
   0  -7  -9  217.20   14.21
   2   8   9  274.92   12.93
  -2  -8  -9  296.28   17.00
   4   9   9  171.08   10.93
  -4  -9  -9  192.99   16.56
  -4  -9  -9  175.17   10.86
  -2   6   8    4.44   11.67
   2  -6  -8   27.62    9.40
   0   7   8    9.23    4.70
   0  -7  -8   19.76    8.81
  -2  -8  -8  218.81   15.16
   2   8   8  203.83   11.24
   4   9   8   -1.09    4.99
  -4  -9  -8   27.70   12.32
  -4  -9  -8   -2.64    4.81
   2  -6  -7   47.12    9.32
  -2   6   7   40.69    9.98
   0   7   7  190.19   10.02
   0  -7  -7  199.97   13.56
  -2  -8  -7   29.19   10.49
   4   9   7  174.25   10.49
  -4  -9  -7  194.88   16.52
  -4  -9  -7  162.42    9.60
   4  -5  -6  179.01   14.62
  -4   5   6  168.79   18.33
   2  -6  -6  100.84   11.19
  -2   6   6   89.63   12.31
   0  -7  -6   54.32    9.13
   0   7   6   45.67    8.35
   0   7   6   37.62    6.15
  -2  -8  -6  324.77   17.74
   2   8   6  289.17   12.48
   4   9   6    7.63    5.31
   4   9   6    8.64    4.53
  -4  -9  -6   24.77   12.56
   6  10   6  116.74    9.66
  -6 -10  -6  130.56   18.25
   6  10   6  101.36    9.20
  -4   5   5  583.17   27.76
   4  -5  -5  567.15   24.81
  -2   6   5  473.43   14.19
   2  -6  -5  468.59   20.58
  -2   6   5  491.63   21.39
   0   7   5  653.16   17.55
   0   7   5  660.67   22.35
   0  -7  -5  623.18   23.27
   2   8   5  375.39   13.70
  -2  -8  -5  361.71   19.03
   4   9   5   68.15    7.70
   4   9   5   64.78    6.53
  -4  -9  -5   82.92   14.00
  -6 -10  -5    8.81   15.35
   6  10   5    2.15    5.78
   6  10   5    2.54    5.17
  -4   5   4   89.52   12.67
   4  -5  -4   88.66   11.17
  -2   6   4  149.82   12.11
  -2   6   4  152.43    8.23
   2  -6  -4  138.42   11.86
   0   7   4   49.92    7.29
   0  -7  -4   39.15    9.12
   0   7   4   49.73    6.24
   2   8   4  783.31   20.19
  -2  -8  -4  758.21   27.27
   4   9   4  341.28   12.01
   4   9   4  336.00   13.58
  -4  -9  -4  347.27   20.55
   6  10   4   53.04    7.47
   6  10   4   45.72    7.52
  -6 -10  -4   61.08   18.73
  -4   5   3   91.24   11.18
   4  -5  -3   92.63   11.43
   2  -6  -3  342.22   16.90
  -2   6   3  332.63   11.88
  -2   6   3  352.50   17.05
   0   7   3   77.75    7.07
   0   7   3   83.80    8.00
   0  -7  -3   80.11    8.00
   0  -7  -3   65.41    9.71
   2   8   3    3.56    4.08
  -2  -8  -3    3.23   10.71
   4   9   3   81.74    6.49
   4   9   3   86.06    7.82
  -4  -9  -3   97.74   14.67
  -6 -10  -3   28.64   17.77
   6  -4  -2   15.12   10.18
  -6   4   2    8.04    8.03
  -4   5   2  183.88   14.13
   4  -5  -2  180.76   13.88
  -2   6   2   35.00    7.56
   2  -6  -2   35.12    9.10
  -2   6   2   26.86    4.99
   0  -7  -2    7.47    8.20
   0  -7  -2    6.19    4.68
   0   7   2    4.67    3.56
   2   8   2  102.94    7.74
  -2  -8  -2   99.87   13.50
   4   9   2    5.25    4.73
  -4  -9  -2   14.10   13.44
   4   9   2   -3.46    3.65
  -6 -10  -2   37.72   18.79
   6  10   2   24.95    6.69
   6  -4  -1   17.51   10.43
  -6   4   1   24.14    8.50
  -4   5   1  200.54    9.36
   4  -5  -1  195.72   14.06
  -4   5   1  204.18   14.90
  -2   6   1  250.59   10.41
   2  -6  -1  244.15   14.12
   2  -6  -1  249.39   14.79
   0  -7  -1  105.49    9.73
   0   7   1   92.74    6.89
   0  -7  -1   99.72   10.70
   2   8   1    0.96    3.74
  -2  -8  -1    1.62   10.46
   4   9   1  139.75    9.65
   4   9   1  143.36    8.08
  -4  -9  -1  135.82   16.59
  -6   4   0    3.19    6.40
   6  -4   0   19.82   10.33
  -4   5   0    2.74    3.47
   4  -5   0    1.26    5.18
   4  -5   0   -0.38    7.34
   2  -6   0  839.34   28.99
  -2   6   0  864.48   20.52
   2  -6   0  861.03   26.48
   0  -7   0   36.16    8.10
   0  -7   0   43.04    9.31
   0   7   0   43.78    5.46
   2   8   0  312.45   12.37
  -2  -8   0  310.14   15.31
  -2  -8   0  287.75   17.05
  -4  -9   0   45.56   15.77
   4   9   0   32.62    6.39
  -6   4  -1   39.58    9.89
   6  -4   1   41.82   11.65
  -4   5  -1   19.07    4.35
   4  -5   1   30.84    9.10
   4  -5   1   17.78    6.42
   2  -6   1   26.06    7.74
   2  -6   1   18.20    6.32
  -2   6  -1   19.14    4.48
   0   7  -1  328.27   12.08
   0  -7   1  337.63   15.73
   0  -7   1  341.11   17.26
  -2  -8   1   87.38   10.86
   2   8  -1   79.60    7.37
  -2  -8   1   83.96   12.04
  -4  -9   1  705.79   28.83
   6  -4   2   85.32   11.35
  -6   4  -2   91.36   12.01
   4  -5   2    6.08    5.48
   4  -5   2    7.97    7.34
  -4   5  -2    9.45    4.16
  -2   6  -2  623.52   17.52
   2  -6   2  563.81   23.73
   2  -6   2  641.54   20.90
   0   7  -2   11.98    4.21
   0  -7   2   18.30    6.82
   0  -7   2   21.09    7.56
   2   8  -2  240.23   11.27
  -2  -8   2  236.87   16.45
  -2  -8   2  248.00   15.79
   6  -4   3  115.25   13.97
  -4   5  -3  217.90   11.03
   4  -5   3  226.92   16.49
   2  -6   3   63.77   10.54
  -2   6  -3   59.62    6.49
   0   7  -3  141.77    8.65
   0  -7   3  157.06   14.34
   2   8  -3    7.36    4.47
  -2  -8   3   14.44    8.93
  -4   5  -4  102.26    8.27
   4  -5   4   94.45   12.47
   2  -6   4  813.58   31.35
   0   7  -4  245.98   11.48
   0  -7   4  258.42   18.27
   2   8  -4   21.72    5.23
  -2  -8   4   46.95   12.68
  -4   5  -5   29.88    5.87
   4  -5   5   41.14   10.53
   2  -6   5    2.77    7.17
  -2   6  -5   -2.60    3.73
   0  -7   5  233.24   18.82
   0   7  -5  247.04   12.09
  -2  -8   5   31.78   10.31
   4  -5   6   49.08   11.38
  -4   5  -6   46.96    6.76
  -2   6  -6   28.84    5.82
   2  -6   6   45.07   10.62
   0   7  -6   22.75    5.59
   0  -7   6   31.43   10.22
   1  -7  -9   81.10   11.03
  -1  -8  -9  113.43   11.65
   1   8   9   82.53    8.56
   3   9   9    3.24    5.31
  -3  -9  -9   16.34   10.05
   1  -7  -8  143.90   12.67
  -1  -8  -8   13.66    8.46
   1   8   8    0.54    4.71
  -3  -9  -8  572.95   25.10
   3   9   8  529.57   18.22
  -3   6   7   75.36   15.50
   3  -6  -7   91.65   11.64
  -1   7   7  201.20   16.72
   1  -7  -7  178.83   13.50
  -1   7   7  190.04   10.10
  -1  -8  -7   86.53   10.84
   1   8   7   78.31    7.96
  -3  -9  -7   21.43   11.52
   3   9   7    1.44    4.81
  -5 -10  -7  297.39   12.98
   5  10   7  267.34   13.67
   5  10   7  253.40   12.31
  -5 -10  -7  306.14   21.23
  -3   6   6  120.70   14.99
   3  -6  -6  129.03   12.76
  -1   7   6  172.01   14.04
   1  -7  -6  172.21   13.23
  -1   7   6  160.46    9.69
   1   8   6  386.01   14.38
  -1  -8  -6  374.42   18.39
   3   9   6   60.05    7.59
  -3  -9  -6   59.79   12.45
   5  10   6  280.33   12.77
   5  10   6  285.24   13.85
  -5 -10  -6  280.66   21.13
   3  -6  -5  297.44   17.62
  -3   6   5  326.33   19.68
  -1   7   5  497.08   20.83
  -1   7   5  499.37   15.27
   1  -7  -5  490.51   21.16
   1   8   5   15.11    5.02
  -1  -8  -5   27.18    9.53
  -3  -9  -5  100.76   13.57
   3   9   5   97.74    8.17
   5  10   5   -0.38    5.19
  -5 -10  -5   28.15   15.37
   5  10   5    9.40    5.27
  -5   5   4   -8.83    7.28
   5  -5  -4    0.43    8.80
   3  -6  -4  153.87   13.36
  -3   6   4  157.37   14.08
   1  -7  -4  338.66   17.17
  -1   7   4  351.20   16.72
  -1   7   4  329.88   12.51
   1   8   4  431.28   14.97
  -1  -8  -4  471.94   20.74
  -3  -9  -4   54.53   12.02
   3   9   4   42.11    6.79
   5  10   4   98.07    9.03
  -5 -10  -4  129.47   17.11
  -5   5   3  324.22   21.00
   5  -5  -3  311.68   19.26
   3  -6  -3   61.15    9.98
  -3   6   3   71.27   10.14
  -3   6   3   59.98    6.16
  -1   7   3   -1.13    3.65
  -1   7   3   -0.02    3.79
   1  -7  -3   -3.01    6.70
   1   8   3   42.02    6.42
  -1  -8  -3   47.48   11.32
   3   9   3   27.74    5.61
  -3  -9  -3   23.32   12.37
   5  10   3  135.42    9.92
  -5 -10  -3  169.08   18.72
   5  -5  -2   10.23    9.32
  -5   5   2    4.26    6.59
  -3   6   2   72.63    6.32
  -3   6   2   76.26    9.55
   3  -6  -2   75.03   10.24
  -1   7   2    4.93    3.97
   1  -7  -2    4.42    4.82
   1  -7  -2    4.46    7.55
  -1  -8  -2  111.74   12.60
  -1  -8  -2  115.25    9.46
   1   8   2  110.72    8.34
   3   9   2   31.80    5.84
  -3  -9  -2   47.19   13.69
   5  10   2  128.27    9.56
  -5 -10  -2  165.59   18.77
   5  -5  -1  130.35   13.15
  -5   5   1  126.28   12.94
  -3   6   1  112.98    7.62
   3  -6  -1  115.12   11.38
   3  -6  -1  116.89   11.08
  -1   7   1  179.52    9.50
   1  -7  -1  181.08   12.51
   1  -7  -1  196.92   13.22
  -1  -8  -1   77.97   11.45
   1   8   1   77.57    6.87
  -1  -8  -1   86.79    8.68
  -3  -9  -1   18.13   12.32
   3   9   1    5.99    5.08
  -5 -10  -1  322.70   22.34
   5  -5   0  298.24   17.67
  -5   5   0  295.77   19.06
   3  -6   0   53.76    8.86
  -3   6   0   58.16    6.12
   3  -6   0   63.95    9.15
   1  -7   0 1244.39   37.25
  -1   7   0 1263.67   27.22
   1  -7   0 1303.61   34.55
   1   8   0  198.10   10.00
  -1  -8   0  196.96   14.02
  -1  -8   0  196.27   12.89
   3   9   0  167.08   10.32
  -3  -9   0  178.54   16.70
  -5 -10   0   18.80   16.54
   5  -5   1   24.22    9.75
   5  -5   1   11.64    6.55
   3  -6   1  197.94   12.99
  -3   6  -1  185.29    9.70
   3  -6   1  189.46   14.06
  -1   7  -1   13.38    4.23
   1  -7   1   10.85    5.86
   1  -7   1   16.84    7.41
  -1  -8   1  892.00   30.32
  -1  -8   1  929.84   28.40
   1   8  -1  962.82   23.24
  -3  -9   1  113.39   14.79
   3   9  -1  103.05    8.73
   5  -5   2  294.65   16.70
   5  -5   2  286.92   18.77
  -5   5  -2  277.33   12.22
  -3   6  -2  252.15   11.44
   3  -6   2  239.28   16.06
   3  -6   2  264.07   14.21
  -1   7  -2  105.16    7.48
   1  -7   2  127.23   10.22
   1  -7   2  100.32   10.90
  -1  -8   2  137.41   12.04
   1   8  -2  103.66    8.22
  -1  -8   2  104.87   12.48
   3   9  -2  136.53    9.64
   5  -5   3  135.71   13.79
  -5   5  -3  153.20    9.82
  -3   6  -3   93.00    7.60
   3  -6   3   95.68   12.04
   1  -7   3  108.99   12.70
  -1   7  -3   83.50    7.37
   1   8  -3   31.34    5.65
  -1  -8   3   27.54    8.63
   5  -5   4  269.03   18.78
  -5   5  -4  258.81   13.04
   3  -6   4  233.09   16.66
  -3   6  -4  202.66   11.41
   1  -7   4   44.21   11.15
  -1   7  -4   26.30    5.31
  -1  -8   4   23.69    9.14
   1   8  -4    9.48    4.80
  -3   6  -5   95.12    8.38
   3  -6   5  114.61   13.87
  -1   7  -5    8.57    4.57
   1  -7   5    5.07    7.94
   1   8  -5  158.82   10.29
  -1  -8   5  165.68   16.52
  -1   7  -6   19.38    5.66
   1  -7   6   28.77    9.61
   0   8   9  195.25   11.34
   0  -8  -9  198.52   14.42
   2   9   9   34.32    6.91
  -2  -9  -9   57.56   11.04
   0   8   8  235.60   12.00
   0  -8  -8  233.66   15.72
  -2  -9  -8  341.03   19.36
   4  10   8   92.12    9.45
  -4 -10  -8  130.85   15.99
   2  -7  -7   -0.48    7.97
  -2   7   7    2.45    8.80
   0  -8  -7   59.17   10.02
   0   8   7   62.44    7.60
  -2  -9  -7   93.03   12.63
   2   9   7   94.86    8.96
  -4 -10  -7  137.05   16.16
   4  10   7  102.45    9.66
  -2   7   6  527.96   24.65
   2  -7  -6  534.41   23.47
   0  -8  -6   10.13    8.39
   0   8   6   -1.49    4.52
   2   9   6  431.45   15.78
  -2  -9  -6  440.38   21.50
  -4 -10  -6   21.30   13.12
   4  10   6    8.08    5.77
   4  -6  -5  337.38   20.07
  -4   6   5  324.73   22.09
  -2   7   5    0.42    5.67
  -2   7   5    3.52    4.46
   2  -7  -5   -1.86    7.45
   0  -8  -5  190.81   13.62
   0   8   5  171.59    9.93
  -2  -9  -5   14.06   10.64
   2   9   5   14.31    5.61
   4  10   5  181.22   10.88
  -4 -10  -5  211.01   18.16
   4  -6  -4   88.25   12.10
  -4   6   4   78.86   11.96
   2  -7  -4  216.66   14.66
  -2   7   4  216.59   10.81
  -2   7   4  218.79   14.97
   0   8   4   23.83    5.10
   0  -8  -4   27.38    9.19
   0   8   4   24.30    6.51
   2   9   4  233.09   11.90
  -2  -9  -4  254.71   17.14
   4  10   4   15.00    5.95
  -4 -10  -4   25.16   14.06
  -4   6   3   28.21    8.21
   4  -6  -3   29.56   10.55
  -2   7   3    0.70    3.92
   2  -7  -3    5.24    7.48
  -2   7   3    2.35    4.18
   0   8   3   14.92    5.07
   0  -8  -3   22.89    8.78
   0  -8  -3   10.79    4.92
   2   9   3  424.49   15.63
  -2  -9  -3  422.46   21.06
  -4 -10  -3  100.18   15.69
   4  10   3   71.85    8.22
  -4   6   2   65.32    9.93
   4  -6  -2   52.35   10.53
  -2   7   2  199.76   10.04
  -2   7   2  230.61   14.56
   2  -7  -2  216.33   14.49
   0   8   2   -3.72    3.83
   0  -8  -2    4.74    4.61
   0  -8  -2    1.09    7.25
   2   9   2    5.26    4.61
  -2  -9  -2   27.56   11.71
  -4 -10  -2  127.43   16.16
   4  10   2  112.70    9.50
  -4   6   1   49.11    9.00
   4  -6  -1   38.78    9.24
  -2   7   1   52.47    6.39
   2  -7  -1   56.39    8.72
   2  -7  -1   53.50    8.96
   0  -8  -1  241.75   14.28
   0   8   1  245.63   11.27
   0  -8  -1  227.01   13.70
  -2  -9  -1  174.17   15.34
   2   9   1  170.59   10.46
  -4 -10  -1   64.48   16.70
   4  10   1   48.31    8.17
   4  -6   0  306.56   19.30
   4  -6   0  330.92   18.01
  -4   6   0  305.54   12.45
   2  -7   0  118.61   11.21
   2  -7   0  123.92   10.82
  -2   7   0  116.34    8.15
   0  -8   0  204.70   13.54
   0   8   0  209.39   10.35
   0  -8   0  217.18   13.64
  -2  -9   0  137.42   14.07
   2   9   0  101.83    8.62
   4  10   0  138.38   11.06
  -4 -10   0  200.60   18.36
  -4   6  -1    5.93    4.24
   4  -6   1    4.57    6.31
   4  -6   1    8.82    8.54
   2  -7   1  341.70   18.88
  -2   7  -1  352.19   13.35
   2  -7   1  368.73   16.72
   0   8  -1  377.37   14.13
   0  -8   1  383.92   17.09
   0  -8   1  374.08   18.88
  -2  -9   1  265.68   17.08
   2   9  -1  273.33   12.66
  -4 -10   1  250.65   20.24
   4  -6   2    7.67    6.58
  -4   6  -2    2.05    4.21
   4  -6   2   -1.85    7.46
   2  -7   2  129.00   10.69
  -2   7  -2  117.12    8.24
   2  -7   2  114.20   11.75
   0  -8   2   49.78   10.44
   0   8  -2   35.20    5.47
   2   9  -2    3.25    4.63
  -2  -9   2   15.67    7.27
   4  -6   3  190.52   16.25
  -4   6  -3  207.61   11.50
   2  -7   3    2.27    6.22
  -2   7  -3    8.92    4.55
   0  -8   3  384.94   21.38
   0   8  -3  365.99   14.56
  -2  -9   3   19.81    8.30
   2   9  -3    1.33    4.78
   4  -6   4   12.08    7.04
  -4   6  -4   18.19    5.46
   2  -7   4   41.67    9.96
  -2   7  -4   39.24    6.20
   0   8  -4    6.39    4.46
   0  -8   4    8.81    7.67
   2  -7   5  128.81   15.06
  -2   7  -5  112.53    9.57
   0   8  -5   28.49    6.23
   0  -8   5   63.95   13.28
   1  -8  -8  367.57   19.83
   1   9   8    9.08    5.64
  -1  -9  -8   26.22    9.91
   3  10   8  277.66   14.41
  -3 -10  -8  326.86   20.18
  -1   8   7    8.25    5.15
   1  -8  -7    7.79    8.19
  -1  -9  -7  123.57   12.80
   1   9   7   82.10    8.80
   3  10   7   29.44    7.06
  -3 -10  -7   58.00   12.86
  -3   7   6   26.62    9.55
   3  -7  -6   38.59   11.29
  -1   8   6  656.60   19.33
   1  -8  -6  662.22   26.03
   1   9   6   99.97    9.16
  -1  -9  -6  108.49   12.35
   3  10   6    1.26    5.44
  -3 -10  -6   20.16   12.58
   3  -7  -5   58.71   10.84
  -3   7   5   55.90   11.79
  -1   8   5    5.03    4.84
  -1   8   5    0.30    4.94
   1  -8  -5   16.83    9.38
   1   9   5  270.68   12.80
  -1  -9  -5  261.76   16.50
  -3 -10  -5   16.19   13.12
   3  10   5   11.52    6.11
  -3   7   4    6.21    5.97
   3  -7  -4    1.24    8.28
   1  -8  -4   51.08    9.92
  -1   8   4   52.85    8.60
  -1   8   4   42.56    6.75
  -1  -9  -4   80.87   11.50
   1   9   4   55.72    7.57
   3  10   4   21.51    6.34
  -3 -10  -4   46.22   14.41
  -3   7   3    0.63    5.28
   3  -7  -3    1.92    8.23
  -3   7   3   -0.11    4.17
  -1   8   3  265.34   12.33
   1  -8  -3  275.20   16.37
  -1   8   3  263.84   15.37
  -1  -9  -3   32.66   10.91
   1   9   3   35.81    6.68
  -3 -10  -3  109.85   14.57
   3  10   3   97.68    9.17
   3  -7  -2    8.52    8.58
  -3   7   2    2.41    4.20
  -3   7   2    2.43    5.21
   1  -8  -2  121.51   11.71
   1  -8  -2  109.14   10.60
  -1   8   2  105.40    8.30
  -1  -9  -2  626.18   24.80
   1   9   2  663.76   20.18
   3  10   2    0.66    5.51
  -3 -10  -2   22.16   13.21
   5  -6  -1  355.97   20.72
  -5   6   1  390.42   22.85
   3  -7  -1  428.81   21.97
   3  -7  -1  405.95   19.97
  -3   7   1  436.55   15.20
   1  -8  -1   58.05    8.93
   1  -8  -1   55.59    9.58
  -1   8   1   59.46    6.47
  -1  -9  -1  922.92   30.18
   1   9   1  931.13   24.24
  -3 -10  -1   30.07   13.34
   3  10   1   -2.53    5.48
   5  -6   0  394.84   21.00
  -5   6   0  390.37   22.84
   3  -7   0   47.06    9.05
   3  -7   0   61.48    9.74
  -3   7   0   41.29    6.18
   1  -8   0  309.02   15.81
  -1   8   0  261.11   11.88
   1  -8   0  267.35   16.34
  -1  -9   0  165.20   13.72
   1   9   0  154.28    9.95
  -1  -9   0  148.41   12.21
   3  10   0  311.18   14.77
  -3 -10   0  385.35   21.47
   5  -6   1   24.84   10.78
   5  -6   1   25.82    8.12
  -3   7  -1  310.28   13.28
   3  -7   1  328.09   19.17
   3  -7   1  334.52   17.27
   1  -8   1   60.95    9.25
   1  -8   1   59.57    9.88
  -1   8  -1   63.73    7.04
  -1  -9   1  280.01   16.91
   1   9  -1  272.52   13.00
  -1  -9   1  288.29   16.45
   3  10  -1   12.30    5.94
  -3 -10   1   24.81   12.64
   3  -7   2   20.70    7.74
  -3   7  -2   16.28    4.99
   1  -8   2    6.47    6.47
  -1   8  -2   -0.02    3.53
   1   9  -2  126.13    9.47
  -1  -9   2  140.01   13.96
  -3   7  -3  320.26   14.12
   3  -7   3  306.70   19.53
  -1   8  -3   11.93    5.07
   1  -8   3   18.72    7.88
  -1  -9   3   18.50    8.26
   1   9  -3    6.12    4.94
   3  -7   4   68.26   11.05
  -3   7  -4   89.41    8.84
  -1   8  -4   40.59    6.76
   1  -8   4   53.77   11.81
   0  -9  -8  129.16   13.44
   0   9   8  134.80   10.44
   2  10   8   -2.78    5.19
  -2 -10  -8   10.66   10.04
   0   9   7    4.73    5.68
   0  -9  -7    5.06    9.05
  -2 -10  -7  111.71   13.69
   2  10   7   82.91    9.35
  -2   8   6  198.69   16.74
   2  -8  -6  204.66   15.89
   0  -9  -6    1.83    8.46
   0   9   6   -2.15    5.12
  -2 -10  -6    8.32   10.28
   2  10   6    0.85    5.58
   4  11   6   -3.43    5.88
  -4 -11  -6   26.42   13.89
  -2   8   5  356.44   20.41
   2  -8  -5  329.37   18.95
  -2   8   5  350.74   14.22
   0  -9  -5   17.33    9.44
   0   9   5    9.40    5.64
  -2 -10  -5  103.99   13.57
   2  10   5  114.17    9.80
  -4 -11  -5   63.40   15.97
   4  11   5   23.39    6.88
  -2   8   4    8.82    5.21
   2  -8  -4   10.32    8.69
  -2   8   4   12.03    6.34
   0   9   4   25.99    6.38
   0  -9  -4   36.10   10.51
   2  10   4  172.93   10.96
  -2 -10  -4  185.52   16.16
   4  11   4  230.06   13.39
  -4 -11  -4  262.69   20.23
   4  -7  -3   44.63   12.52
  -4   7   3   25.50    8.53
   2  -8  -3  209.08   15.05
  -2   8   3  211.58   11.46
  -2   8   3  216.84   15.39
   0   9   3   21.02    6.28
   0  -9  -3   47.01   11.09
  -2 -10  -3  132.15   14.75
   2  10   3  154.15   10.99
   4  11   3   48.81    8.31
  -4 -11  -3   92.16   15.42
   4  -7  -2   81.24   12.02
  -4   7   2   70.22   11.50
  -2   8   2   33.28    8.03
  -2   8   2   16.48    5.50
   2  -8  -2   14.32    6.79
   2  -8  -2   28.09    9.81
   0  -9  -2    9.59    8.26
   0  -9  -2    0.71    4.46
   0   9   2    1.40    4.74
  -2 -10  -2  131.11   14.05
   2  10   2  104.57    9.81
   4  11   2  216.70   13.04
  -4 -11  -2  276.50   20.59
   4  -7  -1   54.27   12.75
  -4   7   1   48.98   10.27
   2  -8  -1  812.27   30.62
  -2   8   1  830.05   22.38
   0  -9  -1    1.32    4.97
   0   9   1    1.80    4.06
   0  -9  -1   10.90    8.16
  -2 -10  -1  134.97   14.76
   2  10   1  132.35   10.50
  -4   7   0  170.62   10.58
   4  -7   0  183.11   14.69
   2  -8   0   70.12   10.41
  -2   8   0   63.52    6.98
   2  -8   0   74.12    9.84
   0  -9   0  459.22   19.96
   0   9   0  459.19   16.64
   0  -9   0  442.09   20.88
   2  10   0    6.49    5.60
  -2 -10   0   24.75   11.73
   4  -7   1   24.71    7.89
  -4   7  -1   27.22    5.95
   4  -7   1   25.32   10.32
  -2   8  -1  165.80   10.37
   2  -8   1  169.92   14.67
   2  -8   1  187.35   13.08
   0   9  -1   -0.44    4.44
   0  -9   1    9.36    6.35
   0  -9   1   17.32    7.99
  -2 -10   1  114.38   13.16
   2  10  -1   69.48    8.33
  -4   7  -2   -1.56    4.44
   4  -7   2   13.10    6.84
  -2   8  -2    8.43    4.56
   2  -8   2    9.34    6.24
   0  -9   2   17.52    7.53
   0   9  -2    8.65    4.75
   2  -8   3   17.03    7.16
  -2   8  -3    5.94    4.52
   0   9  -3    3.57    4.86
   0  -9   3   19.06    8.01
  -1 -10  -7  169.50   14.66
   1  10   7  163.16   11.59
  -1   9   6   -2.33    5.16
   1  -9  -6   16.12    9.53
  -1 -10  -6   13.20    9.44
   1  10   6   -2.16    5.40
  -3 -11  -6   11.01   11.60
   3  11   6    9.84    6.58
   1  -9  -5  236.76   16.39
  -1   9   5  222.76   12.38
  -1 -10  -5   50.09   12.30
   1  10   5   23.55    6.32
   3  11   5   31.81    7.95
  -3 -11  -5   58.19   13.18
  -3   8   4   43.81    9.86
   3  -8  -4   49.88   10.95
  -1   9   4  145.31   13.10
  -1   9   4  158.44   10.84
   1  -9  -4  149.79   13.89
  -1 -10  -4  542.44   24.16
   1  10   4  566.40   19.60
  -3 -11  -4   63.16   15.61
  -3   8   3   -4.59    5.78
   3  -8  -3   -1.62    8.41
   1  -9  -3  126.44   12.67
  -1   9   3  126.67   11.78
  -1   9   3  106.70    9.55
  -1 -10  -3   18.79    9.84
   1  10   3   -1.34    5.38
  -3 -11  -3  607.35   27.81
   3  11   3  567.56   20.49
  -3   8   2  401.19   15.59
   3  -8  -2  396.80   20.95
  -3   8   2  415.67   22.44
   1  -9  -2    6.19    5.80
   1  -9  -2   19.99    9.46
  -1   9   2    3.71    5.04
   1  10   2  186.81   11.71
  -1 -10  -2  216.57   15.68
   3  11   2   80.93    9.78
  -3 -11  -2  108.75   15.35
   3  -8  -1  255.11   18.12
  -3   8   1  243.19   12.38
   3  -8  -1  258.38   16.77
   1  -9  -1  123.10   12.34
   1  -9  -1  116.81   11.94
  -1   9   1  113.04    9.25
  -1 -10  -1   57.85   10.99
  -3 -11  -1  101.81   15.12
   3  11   1   63.22    9.27
  -3   8   0  200.62   11.49
   3  -8   0  191.11   15.59
   3  -8   0  244.59   15.88
  -1   9   0   29.52    6.45
   1  -9   0   37.05    9.10
   1  -9   0   41.24   10.16
  -1 -10   0  283.14   17.06
   1  10   0  271.82   13.70
   3  -8   1   27.31    7.85
   3  -8   1   39.56    8.91
  -3   8  -1   27.20    6.22
  -1   9  -1    2.10    4.25
   1  -9   1    9.61    6.05
   1  -9   1   28.55    9.13
   1  10  -1   59.00    8.18
  -1   9  -2    1.22    4.70
   1  -9   2   12.67    6.82
   0 -10  -6   63.07   10.97
   0  10   6   42.46    8.02
   0 -10  -5   96.00   12.44
   0  10   5   81.88    9.40
  -2 -11  -5   38.76   12.21
   2  11   5   10.69    6.64
  -2   9   4  362.49   15.79
   2  -9  -4  385.57   21.06
  -2   9   4  395.30   21.80
   0 -10  -4   45.41   10.13
   0  10   4   16.27    6.82
   2  11   4  295.67   14.92
  -2 -11  -4  338.25   20.29
  -2   9   3    0.99    5.38
  -2   9   3    0.74    5.25
   2  -9  -3    5.37    8.72
   0  10   3  236.10   13.58
   0 -10  -3  228.38   15.99
  -2 -11  -3  155.07   15.73
   2  11   3  131.20   11.27
   2  -9  -2  262.02   17.75
  -2   9   2  299.00   18.26
  -2   9   2  269.66   13.43
   2  -9  -2  275.80   17.18
   0  10   2  336.88   15.55
   0 -10  -2  321.61   18.40
  -2 -11  -2  132.01   14.59
   2  11   2   96.10    9.89
   2  -9  -1  127.08   12.35
   2  -9  -1  119.25   13.03
  -2   9   1  119.07    9.64
   0  10   1   73.37    8.61
   0 -10  -1   90.79   11.72
   2  11   1    5.04    6.45
  -2 -11  -1   48.89   13.27
   2  -9   0  148.70   14.14
  -2   9   0  129.90    9.82
   2  -9   0  126.15   12.17
   0 -10   0  141.50   12.77
   0  10   0  119.57    9.96
   2  -9   1   87.53   12.40
   0  10  -1  117.76   10.07
   0 -10   1  140.64   13.55
  -1 -11  -4  157.31   15.02
  -1  10   3   55.47    8.71
   1 -10  -3   53.49   10.51
  -1 -11  -3  188.46   15.23
   1  11   3  160.08   11.94
   1 -10  -2   30.00   10.51
  -1  10   2   12.91    6.36
  -1 -11  -2   18.50   10.38
   1 -10  -1   53.49   10.57
   1 -10  -1   36.78    9.15
   0   0   0    0.00    0.00
;
_shelx_hkl_checksum              61961
loop_
_space_group_symop_operation_xyz
'x, y, z'
'-x, -y, -z'
loop_
_atom_site_label
_atom_site_type_symbol
_atom_site_fract_x
_atom_site_fract_y
_atom_site_fract_z
_atom_site_U_iso_or_equiv
_atom_site_adp_type
_atom_site_occupancy
_atom_site_site_symmetry_order
_atom_site_calc_flag
_atom_site_refinement_flags_posn
_atom_site_refinement_flags_adp
Ga1 Ga 0.20249(5) 0.32782(4) 0.75919(3) 0.01419(10) Uani 1 1 d . .
Cl3 Cl 0.10893(11) 0.57067(8) 0.62185(8) 0.01725(16) Uani 1 1 d . .
Cl2 Cl 0.26328(12) 0.33116(9) 0.96782(8) 0.02490(19) Uani 1 1 d . .
Cl1 Cl -0.07320(11) 0.24364(8) 0.80764(8) 0.02172(17) Uani 1 1 d . .
N1 N 0.4160(4) 0.3522(3) 0.4005(3) 0.0145(5) Uani 1 1 d . .
C9 C 0.5149(4) 0.2188(3) 0.4956(3) 0.0132(6) Uani 1 1 d . .
C10 C 0.6835(4) 0.1097(3) 0.4278(3) 0.0143(6) Uani 1 1 d . .
C7 C 0.5623(4) 0.0587(3) 0.7363(3) 0.0157(6) Uani 1 1 d . .
H7 H 0.5277 0.0404 0.8395 0.019 Uiso 1 1 calc R U
C5 C 0.7869(4) -0.0301(3) 0.5219(3) 0.0150(6) Uani 1 1 d . .
H5 H 0.8946 -0.1056 0.4806 0.018 Uiso 1 1 calc R U
C6 C 0.7289(4) -0.0538(3) 0.6724(3) 0.0156(6) Uani 1 1 d . .
H6 H 0.7992 -0.1446 0.7337 0.019 Uiso 1 1 calc R U
C4 C 0.7420(4) 0.1434(3) 0.2717(3) 0.0162(6) Uani 1 1 d . .
H4 H 0.8533 0.0725 0.2270 0.019 Uiso 1 1 calc R U
C2 C 0.4704(4) 0.3830(3) 0.2539(3) 0.0186(6) Uani 1 1 d . .
H2 H 0.3963 0.4751 0.1964 0.022 Uiso 1 1 calc R U
C8 C 0.4487(4) 0.1945(3) 0.6521(3) 0.0138(6) Uani 1 1 d . .
C3 C 0.6375(4) 0.2791(3) 0.1849(3) 0.0186(6) Uani 1 1 d . .
H3 H 0.6773 0.3015 0.0817 0.022 Uiso 1 1 calc R U
H99 H 0.319(4) 0.415(3) 0.440(3) 0.008(8) Uiso 1 1 d . .
loop_
_atom_site_aniso_label
_atom_site_aniso_U_11
_atom_site_aniso_U_22
_atom_site_aniso_U_33
_atom_site_aniso_U_23
_atom_site_aniso_U_13
_atom_site_aniso_U_12
Ga1 0.01526(17) 0.01366(17) 0.01203(17) -0.00372(12) -0.00225(13) -0.00205(12)
Cl3 0.0195(4) 0.0133(3) 0.0174(4) -0.0037(3) -0.0055(3) -0.0013(3)
Cl2 0.0345(4) 0.0254(4) 0.0144(4) -0.0054(3) -0.0082(3) -0.0050(3)
Cl1 0.0175(4) 0.0198(4) 0.0267(4) -0.0094(3) 0.0024(3) -0.0057(3)
N1 0.0130(13) 0.0142(13) 0.0138(13) -0.0064(10) -0.0004(10) 0.0001(11)
C9 0.0123(14) 0.0118(14) 0.0172(15) -0.0021(12) -0.0064(12) -0.0040(11)
C10 0.0126(14) 0.0153(15) 0.0194(15) -0.0050(12) -0.0056(12) -0.0066(12)
C7 0.0146(15) 0.0203(15) 0.0122(14) -0.0036(12) -0.0007(12) -0.0068(12)
C5 0.0102(14) 0.0138(14) 0.0215(16) -0.0054(12) -0.0035(12) -0.0028(11)
C6 0.0155(14) 0.0119(14) 0.0195(16) -0.0024(12) -0.0074(13) -0.0024(12)
C4 0.0137(14) 0.0155(15) 0.0206(16) -0.0084(12) 0.0004(12) -0.0049(12)
C2 0.0200(16) 0.0175(15) 0.0157(15) 0.0016(12) -0.0070(13) -0.0046(12)
C8 0.0113(14) 0.0142(14) 0.0172(15) -0.0043(12) -0.0036(12) -0.0041(11)
C3 0.0204(16) 0.0209(16) 0.0143(15) -0.0045(12) -0.0006(13) -0.0075(13)
loop_
_atom_type_symbol
_atom_type_description
_atom_type_scat_dispersion_real
_atom_type_scat_dispersion_imag
_atom_type_scat_source
C C 0.0033 0.0016 'International Tables Vol C Tables 4.2.6.8 and 6.1.1.4'
H H 0.0000 0.0000 'International Tables Vol C Tables 4.2.6.8 and 6.1.1.4'
N N 0.0061 0.0033 'International Tables Vol C Tables 4.2.6.8 and 6.1.1.4'
Cl Cl 0.1484 0.1585 'International Tables Vol C Tables 4.2.6.8 and 6.1.1.4'
Ga Ga 0.2307 1.6083 'International Tables Vol C Tables 4.2.6.8 and 6.1.1.4'
loop_
_geom_angle_atom_site_label_1
_geom_angle_atom_site_label_2
_geom_angle_atom_site_label_3
_geom_angle
C8 Ga1 Cl2 110.98(8)
C8 Ga1 Cl1 110.73(8)
Cl2 Ga1 Cl1 108.91(3)
C8 Ga1 Cl3 111.73(8)
Cl2 Ga1 Cl3 109.25(3)
Cl1 Ga1 Cl3 105.03(3)
C2 N1 C9 124.2(3)
C2 N1 H99 120(2)
C9 N1 H99 116(2)
N1 C9 C8 120.9(2)
N1 C9 C10 116.3(2)
C8 C9 C10 122.8(2)
C4 C10 C9 119.4(2)
C4 C10 C5 122.7(3)
C9 C10 C5 118.0(3)
C8 C7 C6 122.9(3)
C8 C7 H7 118.6
C6 C7 H7 118.6
C6 C5 C10 120.1(3)
C6 C5 H5 119.9
C10 C5 H5 119.9
C5 C6 C7 120.4(3)
C5 C6 H6 119.8
C7 C6 H6 119.8
C3 C4 C10 120.9(3)
C3 C4 H4 119.6
C10 C4 H4 119.6
N1 C2 C3 120.6(3)
N1 C2 H2 119.7
C3 C2 H2 119.7
C7 C8 C9 115.8(2)
C7 C8 Ga1 117.5(2)
C9 C8 Ga1 126.58(19)
C4 C3 C2 118.7(3)
C4 C3 H3 120.7
C2 C3 H3 120.7
loop_
_geom_bond_atom_site_label_1
_geom_bond_atom_site_label_2
_geom_bond_distance
Ga1 C8 1.975(3)
Ga1 Cl2 2.1794(8)
Ga1 Cl1 2.2065(8)
Ga1 Cl3 2.2205(8)
N1 C2 1.321(4)
N1 C9 1.379(3)
N1 H99 0.82(3)
C9 C8 1.418(4)
C9 C10 1.418(4)
C10 C4 1.406(4)
C10 C5 1.419(4)
C7 C8 1.380(4)
C7 C6 1.414(4)
C7 H7 0.9300
C5 C6 1.360(4)
C5 H5 0.9300
C6 H6 0.9300
C4 C3 1.367(4)
C4 H4 0.9300
C2 C3 1.391(4)
C2 H2 0.9300
C3 H3 0.9300
