#------------------------------------------------------------------------------
#$Date: 2017-02-04 04:20:46 +0200 (Sat, 04 Feb 2017) $
#$Revision: 191369 $
#$URL: file:///home/coder/svn-repositories/cod/cif/4/08/68/4086883.cif $
#------------------------------------------------------------------------------
#
# This file is available in the Crystallography Open Database (COD),
# http://www.crystallography.net/
#
# All data on this site have been placed in the public domain by the
# contributors.
#
data_4086883
loop_
_publ_author_name
'Quir\'os, M. Teresa'
'Mu\~noz, Mar\'ia Paz'
'Christensen, Jeppe'
'Coles, Simon J.'
_publ_section_title
;
 Twists and Turns of Platinum-Allene Complexes: NMR Techniques for the
 Study of the Dynamic Behavior in Solution
;
_journal_issue                   2
_journal_name_full               Organometallics
_journal_page_first              318
_journal_paper_doi               10.1021/acs.organomet.6b00778
_journal_volume                  36
_journal_year                    2017
_chemical_formula_moiety         'C12 H17 Cl2 N Pt'
_chemical_formula_sum            'C12 H17 Cl2 N Pt'
_chemical_formula_weight         441.25
_space_group_crystal_system      triclinic
_space_group_IT_number           2
_space_group_name_Hall           '-P 1'
_space_group_name_H-M_alt        'P -1'
_symmetry_space_group_name_Hall  '-P 1'
_symmetry_space_group_name_H-M   'P -1'
_atom_sites_solution_hydrogens   geom
_audit_creation_method           SHELXL-2014/7
_cell_angle_alpha                101.272(2)
_cell_angle_beta                 104.328(2)
_cell_angle_gamma                91.438(2)
_cell_formula_units_Z            2
_cell_length_a                   7.7902(2)
_cell_length_b                   7.8501(2)
_cell_length_c                   11.5978(3)
_cell_measurement_reflns_used    10899
_cell_measurement_temperature    100(2)
_cell_measurement_theta_max      29.8980
_cell_measurement_theta_min      2.7100
_cell_volume                     671.92(3)
_computing_cell_refinement
'CrysalisPRO 171.38.43(Rigaku Oxford Diffraction 2015)'
_computing_data_collection       'CrystalClear-SM Expert 2.0 r7 (Rigaku,2011)'
_computing_data_reduction
'CrysalisPRO 171.38.43(Rigaku Oxford Diffraction 2015)'
_computing_structure_refinement  'SHELXL-2014/7 (Sheldrick, 2014)'
_computing_structure_solution    'SHELXT (G. M. Sheldrick, Acta Cryst. (2008)'
_diffrn_ambient_temperature      100(2)
_diffrn_detector                 'CCD area detector'
_diffrn_detector_area_resol_mean 14.286
_diffrn_detector_type            'Rigaku HG Saturn724+ (2x2 bin mode)'
_diffrn_measured_fraction_theta_full 0.996
_diffrn_measured_fraction_theta_max 0.997
_diffrn_measurement_device       'four-circle \k diffractometer'
_diffrn_measurement_device_type  'Rigaku AFC12'
_diffrn_measurement_method       'profile data from \w scans'
_diffrn_measurement_specimen_support 'MiTeGen MicroMesh'
_diffrn_radiation_collimation    '0.07 mm Confocal mirrors, HF Varimax'
_diffrn_radiation_monochromator  'Confocal mirrors, HF Varimax'
_diffrn_radiation_probe          x-ray
_diffrn_radiation_type           MoK\a
_diffrn_radiation_wavelength     0.71073
_diffrn_radiation_xray_symbol    K-L~3~
_diffrn_reflns_av_R_equivalents  0.0337
_diffrn_reflns_av_unetI/netI     0.0170
_diffrn_reflns_Laue_measured_fraction_full 0.996
_diffrn_reflns_Laue_measured_fraction_max 0.997
_diffrn_reflns_limit_h_max       10
_diffrn_reflns_limit_h_min       -10
_diffrn_reflns_limit_k_max       10
_diffrn_reflns_limit_k_min       -9
_diffrn_reflns_limit_l_max       15
_diffrn_reflns_limit_l_min       -14
_diffrn_reflns_number            13057
_diffrn_reflns_point_group_measured_fraction_full 0.996
_diffrn_reflns_point_group_measured_fraction_max 0.997
_diffrn_reflns_theta_full        25.242
_diffrn_reflns_theta_max         27.481
_diffrn_reflns_theta_min         2.903
_diffrn_source                   'rotating anode'
_diffrn_source_current           55.0
_diffrn_source_power             2.475
_diffrn_source_target            Mo
_diffrn_source_type              'FR-E+ SuperBright rotating anode'
_diffrn_source_voltage           45.0
_exptl_absorpt_coefficient_mu    10.812
_exptl_absorpt_correction_T_max  0.60091
_exptl_absorpt_correction_T_min  0.59247
_exptl_absorpt_correction_type   sphere
_exptl_absorpt_process_details
;
CrysAlisPro 1.171.38.43 (Rigaku Oxford Diffraction, 2015)
Spherical absorption correction
 using equivalent radius and absorption coefficient.
Empirical absorption correction using spherical harmonics,
 implemented in SCALE3 ABSPACK scaling algorithm.
;
_exptl_crystal_colour            yellow
_exptl_crystal_density_diffrn    2.181
_exptl_crystal_description       plate
_exptl_crystal_F_000             416
_exptl_crystal_size_max          0.150
_exptl_crystal_size_mid          0.090
_exptl_crystal_size_min          0.010
_exptl_crystal_size_rad          0.03243
_refine_diff_density_max         1.667
_refine_diff_density_min         -0.759
_refine_diff_density_rms         0.143
_refine_ls_extinction_method     none
_refine_ls_goodness_of_fit_ref   1.064
_refine_ls_hydrogen_treatment    constr
_refine_ls_matrix_type           full
_refine_ls_number_parameters     149
_refine_ls_number_reflns         3064
_refine_ls_number_restraints     0
_refine_ls_restrained_S_all      1.064
_refine_ls_R_factor_all          0.0192
_refine_ls_R_factor_gt           0.0189
_refine_ls_shift/su_max          0.001
_refine_ls_shift/su_mean         0.000
_refine_ls_structure_factor_coef Fsqd
_refine_ls_weighting_details
'w=1/[\s^2^(Fo^2^)+(0.0368P)^2^+0.2789P] where P=(Fo^2^+2Fc^2^)/3'
_refine_ls_weighting_scheme      calc
_refine_ls_wR_factor_gt          0.0491
_refine_ls_wR_factor_ref         0.0493
_reflns_Friedel_coverage         0.000
_reflns_number_gt                3005
_reflns_number_total             3064
_reflns_threshold_expression     'I > 2\s(I)'
_cod_data_source_file            om6b00778_si_002.cif
_cod_data_source_block           2016NCS0183
_cod_depositor_comments
'Adding full bibliography for 4086882--4086883.cif.'
_cod_database_code               4086883
_shelx_space_group_comment
;
The symmetry employed for this shelxl refinement is uniquely defined
by the following loop, which should always be used as a source of
symmetry information in preference to the above space-group names.
They are only intended as comments.
;
_shelx_res_file
;

    shelx.res created by SHELXL-2014/7

TITL shelxt_a.res in P-1
CELL  0.71073   7.7902   7.8501  11.5978  101.272  104.328   91.438
ZERR     2.00   0.0002   0.0002   0.0003    0.002    0.002    0.002
LATT   1
SFAC  C    H    N    CL   PT
UNIT  24 34 2 4 2
MERG   2
OMIT     1   0   0
OMIT     0   1   0
OMIT     0   0   1
acta
FMAP   2
PLAN   20
BOND   $H
LIST   6
L.S.  40
WGHT    0.036800    0.278900
FVAR       4.90243
PT1   5    0.433187    0.589915    0.771696    11.00000    0.01327    0.01564 =
         0.01438    0.00293    0.00507    0.00134
CL1   4    0.624922    0.423915    0.687145    11.00000    0.01853    0.02147 =
         0.02028    0.00354    0.00845    0.00603
CL2   4    0.219628    0.746849    0.837579    11.00000    0.01616    0.02447 =
         0.01957   -0.00058    0.00568    0.00478
N1    3    0.230327    0.425271    0.647265    11.00000    0.01640    0.01541 =
         0.01698    0.00373    0.00437    0.00242
C2    1   -0.034419    0.240704    0.594999    11.00000    0.01660    0.01858 =
         0.02807    0.00653    0.00736    0.00202
AFIX  43
H2    2   -0.122319    0.185706    0.619454    11.00000   -1.20000
AFIX   0
C9    1    0.622668    0.798905    0.839293    11.00000    0.01579    0.01752 =
         0.01903    0.00115    0.00498    0.00118
C7    1    0.808178    1.054915    0.845500    11.00000    0.01988    0.02111 =
         0.02400    0.00552    0.00579   -0.00362
AFIX 137
H7A   2    0.850599    1.046794    0.929178    11.00000   -1.50000
H7B   2    0.767577    1.168527    0.841224    11.00000   -1.50000
H7C   2    0.902790    1.036224    0.805951    11.00000   -1.50000
AFIX   0
C1    1    0.098897    0.349204    0.679731    11.00000    0.01784    0.02069 =
         0.01853    0.00509    0.00771    0.00374
AFIX  43
H1    2    0.097746    0.370181    0.761271    11.00000   -1.20000
AFIX   0
C3    1   -0.036651    0.214174    0.473563    11.00000    0.01747    0.02022 =
         0.02442    0.00035    0.00269    0.00469
AFIX  43
H3    2   -0.126469    0.142350    0.414909    11.00000   -1.20000
AFIX   0
C8    1    0.657109    0.918938    0.783070    11.00000    0.01468    0.01774 =
         0.01965    0.00292    0.00659    0.00167
C6    1    0.554588    0.933393    0.658717    11.00000    0.02272    0.02224 =
         0.02059    0.00826    0.00582    0.00082
AFIX 137
H6A   2    0.476571    0.830077    0.621656    11.00000   -1.50000
H6B   2    0.635448    0.946363    0.610013    11.00000   -1.50000
H6C   2    0.485825    1.033034    0.664525    11.00000   -1.50000
AFIX   0
C10   1    0.653049    0.715324    0.934985    11.00000    0.01712    0.02078 =
         0.01683    0.00219    0.00270   -0.00227
C5    1    0.228331    0.398323    0.529244    11.00000    0.01908    0.02232 =
         0.02036    0.00543    0.00800    0.00439
AFIX  43
H5    2    0.319718    0.451042    0.506801    11.00000   -1.20000
AFIX   0
C4    1    0.096823    0.296190    0.440869    11.00000    0.01883    0.02455 =
         0.01770    0.00355    0.00421    0.00553
AFIX  43
H4    2    0.097296    0.282103    0.359447    11.00000   -1.20000
AFIX   0
C12   1    0.808326    0.605212    0.958591    11.00000    0.01886    0.02526 =
         0.01913    0.00611    0.00282    0.00320
AFIX 137
H12A  2    0.853063    0.579106    0.887570    11.00000   -1.50000
H12B  2    0.770581    0.498681    0.977159    11.00000   -1.50000
H12C  2    0.900350    0.667634    1.026097    11.00000   -1.50000
AFIX   0
C11   1    0.584646    0.776518    1.045493    11.00000    0.02293    0.02360 =
         0.01539    0.00258    0.00636    0.00014
AFIX 137
H11A  2    0.677550    0.845509    1.109138    11.00000   -1.50000
H11B  2    0.546791    0.677486    1.072721    11.00000   -1.50000
H11C  2    0.485991    0.845569    1.025072    11.00000   -1.50000
AFIX   0
HKLF    4

REM  shelxt_a.res in P-1
REM R1 =  0.0189 for    3005 Fo > 4sig(Fo)  and  0.0192 for all    3064 data
REM    149 parameters refined using      0 restraints

END

WGHT      0.0368      0.2763

REM Highest difference peak  1.667,  deepest hole -0.759,  1-sigma level  0.143
Q1    1   0.4266  0.7018  0.7709  11.00000  0.05    1.67
Q2    1   0.4420  0.4833  0.7776  11.00000  0.05    1.63
Q3    1   0.4252  0.5700  0.6981  11.00000  0.05    1.47
Q4    1   0.4476  0.6065  0.8468  11.00000  0.05    1.41
Q5    1   0.7043  0.2321  0.6807  11.00000  0.05    0.88
Q6    1   0.6166  0.7516  0.9963  11.00000  0.05    0.62
Q7    1   0.6144  0.3071  0.6785  11.00000  0.05    0.62
Q8    1   0.4638  0.5593  0.9417  11.00000  0.05    0.55
Q9    1   0.6217  0.4365  0.7594  11.00000  0.05    0.51
Q10   1   0.6133  0.8885  0.8229  11.00000  0.05    0.49
Q11   1   0.5219  0.7437  0.7779  11.00000  0.05    0.46
Q12   1   0.0620  0.2245  0.4573  11.00000  0.05    0.46
Q13   1   0.5525  0.7725  0.8053  11.00000  0.05    0.46
Q14   1   0.2283  0.8749  0.8586  11.00000  0.05    0.45
Q15   1   0.2309  0.7495  0.7733  11.00000  0.05    0.44
Q16   1   0.5751  1.0227  0.6442  11.00000  0.05    0.44
Q17   1   0.1730  0.3190  0.4989  11.00000  0.05    0.42
Q18   1   0.7274  0.6304  0.9287  11.00000  0.05    0.42
Q19   1   0.3938  0.6217  0.6014  11.00000  0.05    0.41
Q20   1   0.2065  0.4242  0.5995  11.00000  0.05    0.40
;
_shelx_res_checksum              7246
_shelx_hkl_file
;
   0   0   1-4.47793 9.88500   8
   0   0  -1-11.7647 14.5630   3
   0   0   1 44.7420 32.6600   6
   0   0   1-2.75053 10.5598   2
   0   0  -1-4.14212 14.2315   2
   0   0  -1-12.5864 17.4703   8
   0   0  -1-1.80765 31.7585   6
   0   0   1 4.06571 12.9048  11
   0   0  -1-21.6918 13.0451  11
   0   0   1-18.8779 20.7088   3
   0   0  -3 66063.9 488.528  11
   0   0   3 66319.8 351.520   1
   0   0  -3 57466.1 532.753   4
   0   0  -3 64471.7 451.643   8
   0   0  -3 61416.7 668.787   6
   0   0   3 61064.1 521.441   4
   0   0   3 57250.2 454.483   2
   0   0   3 64041.9 428.219   8
   0   0  -3 56050.7 461.815   2
   0   0   3 64381.1 441.385  11
   0   0   3 59901.6 670.229   6
   0   0   4 170051. 895.081   2
   0   0   4 180122. 810.069   8
   0   0   4 188113. 885.792  11
   0   0  -4 181408. 1299.22   6
   0   0   4 165393. 932.126   3
   0   0  -4 185745. 1154.52   4
   0   0  -4 181816. 865.029   8
   0   0   4 176433. 998.318   4
   0   0   4 186779. 1359.55   6
   0   0  -4 174023. 948.932   2
   0   0   5 111758. 819.115   2
   0   0  -5 103443. 803.828   2
   0   0  -5 112852. 1008.08   4
   0   0   5 106485. 855.432   3
   0   0   5 120171. 937.295   4
   0   0   5 117457. 561.473   1
   0   0  -5 114098. 1145.88   6
   0   0   5 115576. 1177.88   6
   0   0  -5 118916. 816.358   8
   0   0   5 115456. 752.772  11
   0   0   5 110558. 734.415   8
   0   0   6 22909.3 270.156   1
   0   0  -6 20553.5 391.019   8
   0   0   6 20595.7 364.920   8
   0   0  -6 18781.1 489.100   4
   0   0  -6 21202.7 601.244   6
   0   0   6 19250.0 586.945   6
   0   0   6 20174.9 398.895   2
   0   0   6 20670.0 426.086   4
   0   0   6 21423.3 365.458  11
   0   0   7 146357. 1002.80   8
   0   0   7 158052. 1238.84   4
   0   0  -7 153210. 1626.88   6
   0   0   7 155699. 707.413   1
   0   0   7 150665. 1146.87   2
   0   0   8 5142.89 251.837   8
   0   0  -8 4752.04 425.793   6
   0   0   8 5112.03 292.917   4
   0   0   8 5231.46 275.969   2
   0   0   8 4762.68 147.122   1
   0   0   9 114947. 655.413   1
   0   0   9 114315. 1014.13   8
   0   0  -9 118900. 1599.26   6
   0   0   9 119991. 1128.42   2
   0   0 -10 22127.4 820.879   6
   0   0  10 20320.2 479.935   8
   0   0  10 22653.5 556.247   2
   0   0 -11 162949. 2087.97   6
   0   0  11 161542. 1434.77   2
   0   0  12 398.319 250.674   2
   0   0  12 474.271 243.983   8
   0   0 -12 650.005 494.351   6
   0   0 -13 124328. 2072.68   6
   0   0  13 123932. 1424.82   2
   0   0  14 2462.51 343.871   8
   0   0  14 2757.74 365.999   2
   0   0 -14 3618.50 723.374   6
   0  -1  14 15268.7 565.368   8
   0   1 -14 14947.0 965.817   6
   0  -1  13 70504.7 1037.38   8
   0  -1  13 91708.5 1259.49   2
   0   1 -13 79077.0 1676.62   6
   0  -1  13 95295.5 1331.93   4
   0   1 -12 15824.2 850.223   6
   0  -1  12 16630.4 599.620   4
   0  -1  12 16708.6 558.816   2
   0  -1  11 60999.5 1034.28   4
   0  -1  11 58211.4 933.277   2
   0   1 -10 25371.0 920.541   6
   0  -1  10 26858.5 607.943   2
   0  -1  10 26032.2 556.362   8
   0  -1   9 58196.6 821.582   2
   0   1  -9 57366.3 1208.20   6
   0  -1   9 59637.0 932.806   4
   0  -1   8 82879.7 920.441   2
   0   1  -8 84116.3 1376.69   6
   0   1  -7 50791.7 984.746   6
   0  -1   7 49391.4 660.508   2
   0  -1   7 46438.3 578.879   8
   0  -1   7 47202.4 504.359  11
   0  -1   7 50942.8 805.423   4
   0   1  -6 233102. 1456.79   3
   0  -1   6 232320. 1636.88   4
   0  -1   6 218171. 1831.76   6
   0  -1   6 220739. 997.899  11
   0   1  -6 208642. 1284.98   8
   0  -1   6 205579. 1131.33   8
   0  -1   6 216725. 1270.87   2
   0   1  -6 214155. 1157.44  11
   0  -1   5 2125.42 161.375   8
   0  -1   5 2069.86 309.582   6
   0   1  -5 2226.38 344.605   6
   0   1  -5 2475.32 147.032  11
   0  -1   5 1784.01 152.553   3
   0  -1   5 1800.39 169.609   2
   0   1  -5 2143.36 182.428   8
   0  -1   5 2357.01 128.413  11
   0  -1   5 2478.03 256.657   4
   0   1  -5 1994.10 186.685   3
   0   1  -4 847625. 3076.16   6
   0  -1   4 839564. 2971.94   6
   0  -1   3 72856.9 369.717  11
   0   1  -3 69456.1 545.320   3
   0  -1   3 74117.0 829.463   6
   0   1  -3 66459.9 516.037   8
   0   1  -3 75826.7 411.261  11
   0  -1   3 66723.7 525.037   3
   0   1  -3 76687.8 907.998   6
   0  -1   3 66589.6 494.432   8
   0  -1   1 200377. 1104.86   6
   0   1  -1 200048. 702.966   7
   0   1   0 26660.0 407.604   6
   0   1   0 3716.19 72.3470   2
   0  -1  -1 186834. 777.283   6
   0   1   1 182101. 791.849   6
   0   1   2 38565.4 370.154  11
   0   1   2 34703.1 301.139   2
   0  -1  -2 35935.1 435.379   6
   0   1   2 35772.4 464.855   6
   0  -1  -2 31691.7 295.363   2
   0  -1  -2 39333.7 260.615   8
   0   1   2 35643.5 365.057   1
   0   1   3 93602.7 844.343   6
   0  -1  -3 93930.5 615.096   2
   0   1   3 103348. 671.770  11
   0  -1  -3 93036.5 625.931   4
   0   1   3 93776.7 586.309   2
   0  -1  -3 94938.7 818.954   6
   0   1   3 100261. 646.762   1
   0   1   3 97081.7 484.654   8
   0  -1  -3 104817. 521.604   8
   0   1   4 13680.0 295.226  11
   0  -1  -4 10402.3 244.491   2
   0  -1  -4 11741.4 373.527   6
   0  -1  -4 12046.2 294.749   4
   0   1   4 12603.2 407.715   6
   0   1   4 12173.2 251.493   1
   0   1   4 11260.1 203.867   8
   0   1   4 8894.40 217.806   2
   0  -1  -4 13975.6 246.761   8
   0  -1  -5 148908. 1126.07   4
   0  -1  -5 154806. 892.050   8
   0   1   5 142522. 830.017   1
   0   1   5 135289. 740.675   8
   0   1   5 144549. 949.039  11
   0  -1  -5 126397. 908.752   2
   0   1   5 138280. 899.877   2
   0  -1  -5 145879. 1302.91   6
   0   1   5 149076. 1363.47   6
   0   1   6 2822.98 161.638   1
   0   1   6 2414.52 174.171   2
   0  -1  -6 2841.94 172.867   8
   0  -1  -6 2211.63 292.293   6
   0  -1  -6 2310.07 221.361   4
   0   1   6 3000.19 314.764   6
   0   1   6 2379.05 150.678   8
   0   1   7 171471. 1177.39   2
   0  -1  -7 175993. 1682.45   6
   0  -1  -7 157400. 1412.43   4
   0   1   7 166406. 1022.80   8
   0   1   7 181103. 973.305   1
   0  -1  -8 3409.97 393.715   6
   0   1   8 3083.30 220.819   2
   0   1   8 3161.13 176.069   1
   0   1   8 2977.41 207.643   8
   0   1   9 198994. 1403.74   2
   0   1   9 195256. 1281.39   8
   0   1   9 196950. 1101.82   1
   0   1  10 6077.49 310.917   8
   0  -1 -10 5522.13 538.080   6
   0   1  10 5874.96 326.518   2
   0   1  11 159197. 1461.01   2
   0  -1 -11 158389. 1997.70   6
   0   1  12 32404.2 730.461   2
   0  -1 -12 29892.5 1030.63   6
   0   1  13 46310.1 883.384   2
   0  -1 -13 48310.3 1344.89   6
   0   2 -14 24826.4 1198.54   6
   0  -2  14 22019.6 645.676   8
   0  -2  13 34586.7 818.043   2
   0  -2  13 28683.6 708.847   8
   0  -2  13 36525.0 948.506   4
   0   2 -13 31294.5 1226.15   6
   0  -2  12 39971.3 948.749   4
   0  -2  12 38359.0 815.315   2
   0   2 -11 13919.2 836.112   6
   0  -2  11 12491.9 455.212   8
   0  -2  11 14917.2 509.593   2
   0   2 -10 76129.3 1510.81   6
   0   2 -10 79446.3 1135.96   3
   0  -2  10 77635.4 1017.70   2
   0  -2   9 14592.4 461.957   2
   0  -2   9 15228.1 606.540   4
   0   2  -9 13054.8 727.341   6
   0  -2   9 13399.5 394.659   8
   0  -2   8 131291. 1074.64   8
   0   2  -8 151547. 1931.13   6
   0  -2   8 142341. 1536.46   4
   0  -2   8 129650. 820.477  11
   0   2  -8 152481. 1385.13   3
   0  -2   8 143741. 1239.62   2
   0  -2   7 10749.6 357.806   2
   0   2  -7 10267.2 589.473   6
   0  -2   7 9461.07 299.098   8
   0   2  -7 9184.03 260.447  11
   0  -2   7 10443.9 481.564   4
   0  -2   7 10856.5 236.796  11
   0   2  -7 11477.1 394.691   3
   0  -2   6 314498. 1057.74  11
   0  -2   6 309320. 2392.02   6
   0   2  -6 308210. 1638.99   3
   0   2  -6 309108. 2422.42   6
   0  -2   5 189603. 1132.84   3
   0  -2   5 196686. 1836.25   6
   0   2  -5 206350. 1930.66   6
   0  -2   5 196529. 1650.06   7
   0   2  -5 202704. 1250.49   3
   0   2  -5 201109. 1252.08   8
   0  -2   5 198596. 767.312  11
   0   2  -5 189571. 828.005  11
   0   2  -4 407095. 1661.17   8
   0  -2   4 398254. 2465.07   6
   0   2  -4 368075. 1110.14   5
   0  -2   4 397519. 1511.92   3
   0  -2   4 400795. 1836.30   7
   0  -2   4 376468. 1436.70   8
   0   2  -4 396847. 1600.66   3
   0   2  -4 394814. 2476.20   6
   0  -2   3 265404. 1161.75   3
   0   2  -3 252441. 1187.66   3
   0   2  -3 271927. 1978.11   6
   0  -2   3 265974. 1959.62   6
   0  -2   3 255433. 1082.14   8
   0   2  -3 268143. 1182.60   8
   0  -2   3 279296. 1301.35   7
   0  -2   2 600110. 2785.59   6
   0   2  -2 642225. 2878.47   6
   0   2  -1 219794. 864.051   7
   0  -2   1 207400. 807.187   9
   0  -2   1 206110. 829.603   7
   0  -2   1 210730. 736.577   8
   0  -2   1 207102. 834.202   3
   0  -2   1 217534. 1625.23   6
   0   2  -1 213990. 850.220   3
   0   2  -1 206191. 775.641   8
   0   2  -1 224142. 1644.67   6
   0   2  -1 202304. 860.818   1
   0   2   0 16547.2 199.867   9
   0   2   0 16668.6 237.987   3
   0   2   0 17173.1 505.062   6
   0  -2   0 16617.1 196.825   9
   0   2   0 17333.6 227.042   2
   0  -2   0 16718.7 527.008   6
   0   2   0 15736.7 246.636   7
   0   2   0 16238.2 280.284   1
   0   2   1 113623. 770.844   1
   0  -2  -1 122183. 596.229   2
   0  -2  -1 129776. 631.957  10
   0   2   1 113024. 563.792   2
   0   2   1 118799. 480.897   9
   0   2   1 125370. 867.454   6
   0  -2  -1 129266. 491.597   9
   0   2   1 121263. 1234.84   6
   0   2   2 371.178 72.1417   2
   0   2   2 538.189 84.4403  10
   0   2   2 514.976 128.479   1
   0   2   2 459.332 169.131   6
   0   2   2 543.584 65.8985   9
   0  -2  -2 396.689 151.598   6
   0  -2  -2 571.138 84.9511   2
   0   2   3 105333. 839.295   1
   0  -2  -3 119655. 552.649   8
   0   2   3 104180. 568.369   9
   0  -2  -3 113960. 984.459   6
   0   2   3 94911.0 643.857   2
   0   2   3 102509. 652.643  10
   0   2   3 109455. 1035.79   6
   0  -2  -3 105566. 708.791   2
   0   2   3 112779. 832.293  11
   0   2   4 5817.65 173.902   9
   0   2   4 5740.59 188.960   2
   0   2   4 5789.45 231.420  11
   0  -2  -4 5511.87 294.989   6
   0  -2  -4 5624.95 208.459   2
   0   2   4 5846.24 338.448   6
   0   2   4 5968.55 236.905   1
   0  -2  -4 5927.44 214.025   4
   0   2   5 267821. 1902.40   6
   0  -2  -5 252744. 1432.27   4
   0   2   5 250342. 1227.32   2
   0   2   5 252231. 1309.92   1
   0   2   5 267368. 1146.33   9
   0  -2  -5 258443. 1682.05   6
   0   2   6 60867.6 682.021   1
   0  -2  -6 56419.2 869.558   6
   0  -2  -6 59493.3 612.979   8
   0   2   6 54853.5 582.921   9
   0   2   6 50223.0 606.062   2
   0  -2  -6 50888.0 727.292   4
   0   2   7 261131. 1462.92   2
   0   2   7 260224. 1379.41   9
   0   2   8 20385.1 442.333   9
   0   2   8 20973.5 469.878   2
   0   2   9 155553. 1285.10   2
   0  -2  -9 157201. 1738.93   6
   0   2  10 92467.3 1048.56   2
   0  -2 -10 95021.5 1458.09   6
   0  -2 -11 37296.8 996.306   6
   0   2  11 39086.8 737.045   2
   0  -2 -12 67218.7 1352.99   6
   0   2  12 66842.2 1001.75   2
   0  -2 -13 667.766 508.007   6
   0   2  13 201.840 267.650   9
   0   2  13 475.460 272.136   2
   0  -3  14 31976.5 831.194   2
   0  -3  14 28207.0 752.673   8
   0   3 -14 29438.7 1317.15   6
   0  -3  14 31958.3 990.122   4
   0  -3  13 2781.89 469.400   4
   0   3 -13 2976.30 730.956   6
   0  -3  13 4383.38 375.694   2
   0  -3  13 3538.49 367.476   8
   0  -3  12 58472.6 1260.16   4
   0  -3  12 59440.6 1030.40   2
   0   3 -11 338.068 348.314   3
   0  -3  11 397.698 243.211   2
   0   3 -11-132.850 552.607   6
   0  -3  11 571.091 384.631   4
   0  -3  11 448.421 229.309   8
   0   3 -10 162171. 1671.14   3
   0  -3  10 141797. 1800.65   4
   0  -3  10 145604. 1450.45   2
   0   3 -10 145428. 2211.26   6
   0  -3  10 126655. 1187.41   8
   0  -3   9 38536.3 650.028   8
   0  -3   9 39657.7 488.351  11
   0   3  -9 41193.0 1196.22   6
   0   3  -9 47012.0 874.848   3
   0  -3   9 45083.5 792.799   2
   0  -3   9 44852.0 1074.44   4
   0   3  -8 150210. 1002.48  11
   0  -3   8 166032. 928.092  11
   0  -3   8 146369. 1216.86   8
   0   3  -8 171946. 1479.16   3
   0   3  -8 162976. 2115.08   6
   0  -3   7 230954. 1417.10   8
   0   3  -7 240246. 1643.37   3
   0  -3   7 235155. 945.957  11
   0   3  -7 244978. 2498.35   6
   0  -3   6 226479. 1589.21   7
   0   3  -6 219292. 1472.16   3
   0  -3   6 209456. 1247.04   8
   0   3  -6 220462. 2283.67   6
   0  -3   6 207749. 816.507  11
   0   3  -5 318599. 832.384   1
   0  -3   5 332846. 2745.48   6
   0   3  -5 327286. 1726.47   3
   0  -3   5 353978. 1039.60  11
   0   3  -5 322961. 991.851  11
   0   3  -5 328290. 2649.00   6
   0  -3   5 336590. 1494.34   8
   0   3  -5 343196. 1683.34   8
   0  -3   5 358306. 1858.71   7
   0   3  -4 37076.1 573.104   3
   0   3  -4 39670.0 537.175   8
   0   3  -4 33713.4 272.737  11
   0  -3   4 44165.5 621.463   3
   0  -3   4 38825.6 954.368   6
   0  -3   4 42223.0 614.791   7
   0   3  -4 40363.8 1014.36   6
   0   3  -4 40034.7 346.538   1
   0  -3   4 41551.9 512.134   8
   0   3  -3 282523. 2336.00   6
   0  -3   3 268983. 1244.83   7
   0  -3   3 277520. 1307.77   3
   0  -3   3 283434. 1230.68   8
   0   3  -3 276597. 1384.77   3
   0   3  -3 276724. 1451.03   7
   0  -3   3 268762. 2328.05   6
   0   3  -3 281205. 787.045  11
   0   3  -3 290565. 1058.22   1
   0   3  -3 273924. 1359.26   8
   0  -3   2 4595.03 444.283   6
   0   3  -2 4251.01 446.240   6
   0  -3   2 4050.52 173.827   9
   0   3  -2 4037.66 188.640   8
   0   3  -2 4824.58 210.941   7
   0  -3   2 4818.54 183.874   7
   0  -3   2 5164.91 188.173   8
   0  -3   2 4244.80 182.922   3
   0   3  -2 5000.39 220.070   3
   0   3  -2 4821.93 184.157   1
   0  -3   1 156863. 922.125   7
   0  -3   1 166948. 923.061   3
   0   3  -1 173764. 1788.47   6
   0  -3   1 166607. 867.602   2
   0   3  -1 168933. 920.592   7
   0   3  -1 167471. 912.160   3
   0  -3   1 158645. 822.675   9
   0   3  -1 162091. 970.458   1
   0  -3   1 160925. 749.423   8
   0  -3   1 163477. 1772.80   6
   0  -3   0 12861.1 615.184   6
   0   3   0 13689.5 331.546   1
   0  -3   0 14287.8 259.894   2
   0   3   0 12073.2 558.081   6
   0  -3   0 13594.0 219.898   9
   0   3   0 13740.1 226.511   9
   0   3   0 13449.6 260.185   2
   0   3   0 12823.9 280.330   7
   0   3   0 12789.8 255.816   3
   0  -3   0 13200.6 194.924   8
   0   3   1 129550. 746.392   2
   0   3   1 127038. 626.158   9
   0   3   1 131628. 1519.28   6
   0  -3  -1 135043. 758.613   2
   0  -3  -1 138862. 600.060   9
   0   3   1 128301. 891.616   7
   0   3   1 124795. 944.809   1
   0   3   1 134745. 1074.77   6
   0  -3  -1 138337. 800.988  10
   0   3   2 41960.6 366.447   9
   0  -3  -2 44796.6 484.414   2
   0  -3  -2 47891.1 383.834   9
   0   3   2 42666.1 965.851   6
   0   3   2 41877.9 442.004   2
   0   3   2 43030.1 613.426   1
   0   3   2 45071.2 722.945   6
   0  -3  -2 45463.5 484.553  10
   0  -3  -3 260634. 809.283   8
   0   3   3 229912. 1380.29   1
   0   3   3 262428. 1804.73   6
   0   3   3 238670. 942.791   9
   0  -3  -3 238945. 1185.62   2
   0   3   3 249483. 1380.47  11
   0   3   3 239155. 1102.46   2
   0  -3  -3 252890. 1441.16   6
   0   3   4 79622.8 683.620  10
   0   3   4 81424.4 693.697   2
   0   3   4 82566.0 596.265   9
   0  -3  -4 94277.1 573.387   8
   0  -3  -4 87168.0 954.899   6
   0   3   4 91906.9 1179.20   6
   0   3   5 216044. 1211.99   2
   0   3   5 220381. 1075.50   9
   0   3   6 244456. 1352.88   2
   0  -3  -6 243835. 1137.48   8
   0  -3  -6 246250. 1808.17   6
   0   3   6 241171. 1230.80   9
   0   3   7 104649. 878.187   9
   0   3   7 105895. 964.229   2
   0   3   8 118508. 1069.57   2
   0   3   8 121927. 1028.38   9
   0  -3  -9 4788.42 448.545   6
   0   3   9 3949.59 266.670   9
   0   3   9 3996.15 275.968   2
   0  -3 -10 151355. 1795.55   6
   0   3  10 142554. 1315.63   2
   0  -3 -11 4230.93 511.482   6
   0   3  11 4543.60 324.788   2
   0   3  11 4055.86 317.312   9
   0   3  12 45258.3 863.637   2
   0  -3 -12 48859.9 1247.91   6
   0   4 -14 43141.3 1615.56   6
   0  -4  14 51417.2 1080.25   2
   0  -4  14 46485.7 1286.80   4
   0  -4  14 47928.0 954.353   8
   0  -4  13 13874.9 777.710   4
   0  -4  13 13910.0 555.787   8
   0   4 -13 14526.5 1066.98   6
   0  -4  13 16136.7 628.192   2
   0   4 -12 67520.5 1811.06   6
   0  -4  12 67406.3 994.209   8
   0  -4  12 71198.8 1503.33   4
   0  -4  11 58129.0 1374.81   4
   0  -4  11 54964.4 842.502   8
   0   4 -11 56072.1 1561.13   6
   0   4 -10 47404.3 939.070   3
   0  -4  10 47034.8 769.606   8
   0   4  -9 204447. 1753.75   3
   0  -4   9 202114. 1457.06   8
   0  -4   9 205778. 1072.48  11
   0   4  -8 8983.63 414.895   3
   0  -4   8 8861.70 239.101  11
   0   4  -8 8600.32 238.056  11
   0  -4   8 8611.85 347.400   8
   0   4  -8 8705.82 723.409   6
   0   4  -7 258248. 2736.24   6
   0  -4   7 273341. 1505.60   8
   0   4  -7 263520. 1033.86  11
   0  -4   7 271622. 1069.48  11
   0   4  -7 258729. 1766.07   3
   0   4  -6 1208.46 217.907   3
   0   4  -6 1716.72 103.442  11
   0  -4   6 1518.66 224.478   7
   0   4  -6 1448.55 94.7946   1
   0  -4   6 1144.97 172.151   8
   0   4  -6 765.983 437.271   6
   0   4  -5 160106. 1295.91   3
   0  -4   5 171256. 1140.45   8
   0   4  -5 181256. 2250.78   6
   0  -4   5 181100. 1324.81   7
   0   4  -5 162432. 657.701  11
   0   4  -5 186198. 862.376   1
   0   4  -4 1805.28 198.793   8
   0   4  -4 1992.99 145.207   1
   0  -4   4 1620.62 178.299   9
   0   4  -4 1906.75 100.267  11
   0   4  -4 1642.99 216.347   7
   0  -4   4 1949.53 174.062   8
   0   4  -4 1613.27 200.208   3
   0  -4   4 2062.11 194.171   7
   0  -4   3 131738. 1009.30   9
   0   4  -3 160135. 772.304  11
   0   4  -3 143849. 1955.33   6
   0   4  -3 155803. 949.934   1
   0  -4   3 140007. 923.998   8
   0  -4   3 132257. 970.619   7
   0   4  -3 150324. 1161.68   7
   0   4  -3 129577. 1014.08   8
   0   4  -3 153115. 1205.01   3
   0  -4   2 8912.73 639.412   6
   0   4  -2 10606.4 291.320   7
   0  -4   2 10223.7 274.138   2
   0  -4   2 11205.7 273.480   8
   0  -4   2 9255.84 284.249   7
   0  -4   2 9191.53 284.110   3
   0   4  -2 10982.9 662.708   6
   0   4  -2 10579.6 298.836   1
   0  -4   2 10592.7 288.583   9
   0   4  -2 10108.4 308.983   3
   0  -4   1 77778.5 1475.68   6
   0  -4   1 80801.0 589.497   8
   0   4  -1 82489.9 746.448   3
   0   4  -1 88515.0 832.387   1
   0  -4   1 75528.6 768.089   7
   0   4  -1 87186.6 771.240   7
   0   4  -1 84625.4 1462.14   6
   0  -4   1 80554.5 651.685   9
   0  -4   1 84963.8 720.854   2
   0  -4   0 74712.9 1458.33   6
   0  -4   0 77320.5 653.245   2
   0   4   0 77863.9 694.348   3
   0  -4   0 79378.9 562.120   9
   0   4   0 75694.2 1370.19   6
   0  -4   0 77055.3 557.869   8
   0   4   0 77241.9 738.474   7
   0   4   0 78381.3 833.609   1
   0   4   0 78061.4 595.231   9
   0   4   1 93418.1 629.130   9
   0   4   1 86283.8 675.125   2
   0   4   1 94287.4 877.811   7
   0  -4  -1 102900. 596.339   9
   0   4   1 96436.1 1512.91   6
   0   4   2 316944. 1145.59   9
   0   4   2 316854. 2738.21   6
   0   4   2 312645. 1677.99   7
   0   4   2 319254. 1371.38   2
   0   4   3 118878. 1794.78   6
   0   4   3 116989. 719.325   9
   0   4   4 317479. 1471.01   2
   0   4   4 322245. 1256.21   9
   0   4   5 19639.4 408.425   2
   0   4   5 20660.3 363.589   9
   0  -4  -6 168811. 1468.58   6
   0   4   6 161928. 1151.44   2
   0  -4  -6 164746. 929.373   8
   0   4   6 162952. 1029.28   9
   0   4   6 167697. 1202.68  10
   0   4   7 921.419 192.505  10
   0  -4  -7 705.192 273.526   6
   0   4   7 715.155 158.646   9
   0   4   7 958.813 175.192   2
   0   4   8 80507.5 844.808   9
   0   4   8 81006.0 930.478  10
   0   4   9 19955.9 518.419   2
   0   4   9 20364.7 522.120  10
   0   4  10 30035.5 648.325   2
   0   4  10 28737.7 658.683  10
   0   4  11 28063.5 697.903  10
   0   4  11 25148.5 637.487   2
   0  -4 -11 29501.1 898.935   6
   0   4  11 24454.0 583.822   9
   0  -5  13 60937.4 1154.37   2
   0   5 -13 65017.0 1317.67   3
   0  -5  13 53346.9 1443.52   4
   0  -5  13 65026.8 1066.54   8
   0   5 -13 56231.5 1829.21   6
   0  -5  12 11751.1 498.717   8
   0  -5  12 12439.2 576.890   2
   0  -5  12 9765.96 770.982   4
   0   5 -12 9135.31 931.261   6
   0   5 -12 14330.3 682.304   3
   0  -5  11 138436. 1372.15   8
   0   5 -11 129702. 1643.61   3
   0  -5  10 76.0550 220.418   8
   0   5 -10 361.819 610.902   6
   0   5 -10 224.578 275.099   3
   0   5  -9 119986. 1426.60   3
   0   5  -9 122069. 2231.20   6
   0   5  -8 737.714 534.577   6
   0   5  -8 1303.87 75.4099   1
   0   5  -8 1814.31 133.949  11
   0   5  -8 1215.99 275.157   3
   0  -5   8 1721.11 245.090   8
   0   5  -7 131637. 672.794  11
   0   5  -7 128899. 2128.07   6
   0   5  -7 128177. 696.725   1
   0   5  -6 12340.4 270.194   1
   0  -5   6 10810.1 342.900   8
   0  -5   6 11002.2 375.332   7
   0   5  -6 11916.3 199.341  11
   0   5  -6 10904.9 793.194   6
   0   5  -6 11117.5 438.101   3
   0   5  -5 83834.0 1008.27   3
   0   5  -5 81756.6 1660.09   6
   0  -5   5 89667.4 890.243   8
   0   5  -5 89107.3 513.544  11
   0  -5   5 82887.9 888.020   7
   0   5  -5 85054.6 1128.50   7
   0   5  -4 58270.5 831.560   7
   0   5  -4 63411.3 666.908   1
   0   5  -4 60271.4 476.219  11
   0  -5   4 52516.5 682.979   7
   0  -5   4 56501.5 655.165   8
   0   5  -4 54886.2 1384.65   6
   0   5  -4 54407.7 803.114   3
   0   5  -3 81696.8 1630.82   6
   0  -5   3 83106.7 755.520   8
   0  -5   3 75330.9 821.521   9
   0  -5   3 71602.1 800.332   7
   0   5  -3 86978.3 938.909   7
   0   5  -3 80807.1 937.534   3
   0   5  -3 84922.6 790.771   1
   0   5  -2 94577.2 869.187   7
   0  -5   2 90420.6 816.498   9
   0  -5   2 85436.8 887.486   7
   0   5  -2 87707.6 1631.87   6
   0   5  -2 94284.3 912.516   3
   0  -5   2 92108.6 760.402   8
   0  -5   1 40533.8 468.859   8
   0  -5   1 42024.9 520.265   9
   0   5  -1 38501.5 571.667   3
   0   5  -1 38562.8 1134.96   6
   0   5  -1 40051.5 585.050   7
   0  -5   0 340746. 1290.68   9
   0   5   0 321731. 1659.17   7
   0  -5   0 315667. 1168.67   8
   0   5   0 333116. 1640.80   3
   0   5   0 329173. 1365.77   9
   0   5   0 307646. 2925.63   6
   0  -5  -1 21130.5 309.616   8
   0   5   1 19334.2 442.076   7
   0  -5  -1 22443.7 326.656   9
   0   5   1 18356.5 834.443   6
   0   5   1 21038.1 353.326   9
   0   5   1 18395.6 395.424   3
   0   5   1 17309.6 365.426   2
   0   5   2 295323. 2912.37   6
   0   5   2 293384. 1244.56   9
   0   5   3 414.376 449.754   6
   0   5   3 173.370 197.971   7
   0  -5  -3 333.013 93.1780   8
   0   5   3 209.627 147.947   2
   0   5   3 150.242 105.454   9
   0   5   4 220201. 1106.98   9
   0   5   4 216366. 1324.74   2
   0   5   4 219879. 2732.48   6
   0   5   5 13219.6 312.772   9
   0   5   5 11670.4 837.208   6
   0  -5  -5 14120.2 268.254   8
   0   5   5 11963.7 349.767   2
   0   5   6 60769.6 663.964   9
   0   5   6 62747.6 1652.37   6
   0   5   7 40674.7 661.615   2
   0   5   7 42250.5 604.500   9
   0   5   8 36896.5 655.922   2
   0   5   8 35342.0 586.660   9
   0   5   9 31808.7 602.587   9
   0   5   9 35957.1 693.508   2
   0   5  10 7715.37 400.656   2
   0   5  10 6991.90 416.025  10
   0   6 -13 56770.6 1883.28   6
   0  -6  13 67386.5 1068.74   8
   0  -6  13 66813.0 1260.41   2
   0  -6  13 58707.7 1660.24   4
   0   6 -13 66617.4 1395.87   3
   0   6 -12 2839.12 440.746   3
   0  -6  12 3730.79 379.377   8
   0   6 -12 3223.75 864.465   6
   0   6 -11 97535.9 1446.22   3
   0   6 -11 96710.7 2243.25   6
   0   6 -10 23620.1 1253.05   6
   0  -6  10 25608.4 612.720   8
   0   6 -10 25562.5 770.277   3
   0  -6   9 62168.1 887.820   8
   0   6  -9 59973.3 1075.07   3
   0   6  -8 39345.6 682.353   5
   0   6  -8 38673.5 863.547   3
   0  -6   8 39855.5 660.607   8
   0   6  -8 37837.2 1405.41   6
   0   6  -7 56345.5 1613.23   6
   0   6  -7 52990.6 387.049  11
   0  -6   7 56033.8 759.690   8
   0   6  -6 57474.4 409.833  11
   0   6  -6 55730.2 615.388   1
   0   6  -6 56084.1 937.574   3
   0  -6   6 55237.1 727.357   8
   0   6  -5 36854.2 717.742   3
   0  -6   5 37198.0 586.407   8
   0   6  -5 36106.1 746.080   7
   0   6  -5 38123.4 1315.83   6
   0  -6   5 35052.8 641.901   7
   0   6  -4 116917. 1228.60   3
   0   6  -4 119075. 735.063  11
   0   6  -4 116061. 1201.13   7
   0  -6   4 110971. 919.981   8
   0   6  -4 112144. 2086.39   6
   0  -6   3 620.161 193.436   7
   0   6  -3 1087.07 218.013   7
   0  -6   3 759.941 164.585   8
   0   6  -3 1219.56 233.467   3
   0   6  -3 284.608 507.167   6
   0  -6   2 205505. 1303.17   9
   0   6  -2 207803. 2660.44   6
   0   6  -2 210275. 1392.36   7
   0   6  -1 2979.35 230.165   7
   0   6  -1 2681.04 255.841   3
   0  -6   1 3085.58 197.420   9
   0   6  -1 2995.04 577.647   6
   0  -6   1 2811.56 183.225   8
   0  -6   0 396165. 1387.59   8
   0   6   0 372542. 1899.16   7
   0   6   0 383798. 1882.26   3
   0   6   0 361211. 3531.73   6
   0  -6   0 414183. 1552.34   9
   0   6   0 390033. 1604.84   9
   0  -6  -1 24281.4 370.797   9
   0  -6  -1 22084.8 321.250   8
   0   6   1 20320.7 966.363   6
   0   6   1 20019.8 459.826   3
   0   6   1 23277.2 401.911   9
   0   6   1 20835.2 505.927   7
   0  -6  -2 192286. 999.132   9
   0   6   2 161666. 2387.54   6
   0   6   2 167778. 1410.75   7
   0   6   2 178093. 1062.54   9
   0   6   2 163921. 1237.02   3
   0  -6  -2 181332. 885.558   8
   0   6   2 153599. 1167.00   2
   0   6   3 64119.4 654.123   9
   0   6   3 61494.3 756.365   2
   0   6   3 63035.6 1607.86   6
   0   6   4 53342.0 905.065   7
   0   6   4 55028.9 1557.30   6
   0   6   4 53273.4 612.851   9
   0   6   5 53611.4 949.871   7
   0   6   5 53504.7 1589.37   6
   0   6   5 53497.5 628.516   9
   0   6   5 53730.9 759.042   2
   0   6   6 6804.78 444.962   7
   0   6   6 5382.45 308.195   2
   0   6   6 6554.10 833.970   6
   0   6   6 6221.72 262.238   9
   0   6   7 60071.8 834.722   2
   0   6   7 64634.4 1174.32   7
   0   6   8 168.826 219.486   2
   0   6   8 432.561 332.940   7
   0   6   8 552.565 759.370   6
   0   6   9 54246.4 886.763   2
   0   6   9 58901.8 2028.85   6
   0   7 -12 26252.9 890.734   3
   0  -7  12 27205.7 716.972   8
   0  -7  11 19167.6 584.852   8
   0   7 -11 19835.8 769.991   3
   0  -7  10 44136.3 798.466   8
   0   7 -10 46483.6 1046.64   3
   0  -7   9 14533.9 475.435   8
   0   7  -9 15500.7 657.905   3
   0  -7   8 50191.7 786.711   8
   0   7  -8 53321.3 1037.47   3
   0   7  -7 3071.81 768.581   6
   0   7  -7 4104.77 382.947   3
   0  -7   7 3104.63 248.851   8
   0   7  -6 141346. 1778.11   7
   0   7  -6 139595. 1503.99   3
   0  -7   5 2381.03 238.633   8
   0   7  -5 2182.61 317.161   3
   0   7  -5 2413.82 715.327   6
   0   7  -5 2825.18 156.732  11
   0   7  -5 2352.32 334.775   7
   0   7  -4 144316. 924.470  11
   0   7  -4 142638. 1423.20   7
   0  -7   4 145911. 1134.69   8
   0  -7   3 49351.9 630.182   8
   0   7  -3 41017.8 1436.38   6
   0   7  -3 49810.8 815.041   7
   0   7  -3 43733.0 784.615   3
   0   7  -2 171459. 1443.31   3
   0   7  -2 175378. 1379.73   7
   0   7  -1 83978.9 1020.12   3
   0  -7   1 85599.2 735.807   8
   0   7   0 68900.7 869.587   3
   0   7   0 68064.1 1742.99   6
   0   7   1 88314.5 989.785   3
   0  -7  -1 97196.9 681.541   8
   0   7   1 89907.9 1055.76   7
   0   7   1 92698.3 843.643   9
   0   7   1 84067.1 1931.18   6
   0   7   2 9541.04 291.062   9
   0   7   2 9657.72 404.623   7
   0   7   2 8829.63 360.876   3
   0   7   3 70873.4 919.542   3
   0   7   3 69526.7 1013.36   7
   0   7   4 652.648 193.026   2
   0   7   4 810.206 656.798   6
   0   7   4 810.382 249.827   7
   0   7   5 43986.1 748.485   2
   0   7   5 44146.3 915.707   7
   0   7   5 46421.8 1640.94   6
   0   7   6 1406.94 746.725   6
   0   7   6 1101.30 242.423   2
   0   7   6 719.647 298.961   7
   0   7   7 45272.6 1055.69   7
   0   7   7 46983.0 838.871   2
   0   7   8 5476.33 525.291   7
   0   7   8 5430.28 370.703   2
   0   7   8 4909.70 962.619   6
   0   8 -11 509.934 904.216   6
   0  -8  11 280.578 296.043   8
   0   8 -11-58.1971 429.994   3
   0  -8  10 66956.5 977.856   8
   0   8 -10 61631.0 2021.03   6
   0   8  -9 168.426 355.602   3
   0  -8   9 660.334 263.214   8
   0  -8   8 46963.6 763.930   8
   0   8  -8 45061.0 1742.86   6
   0   8  -7 15497.5 637.520   3
   0  -8   7 13643.7 425.992   8
   0   8  -7 13722.0 1128.31   6
   0  -8   6 78664.7 894.046   8
   0   8  -6 81491.4 1368.05   7
   0  -8   5 82624.1 893.205   8
   0   8  -5 82542.4 1198.91   3
   0   8  -5 83124.8 1191.25   7
   0   8  -4 43403.0 928.195   3
   0  -8   4 41387.4 605.731   8
   0   8  -4 43627.4 857.627   7
   0  -8   3 89657.5 848.247   8
   0   8  -3 88391.5 1171.44   7
   0   8  -3 83718.3 1138.31   3
   0   8  -3 80245.6 2057.05   6
   0   8  -2 41380.1 757.268   7
   0  -8   2 41933.7 563.676   8
   0   8  -1 94050.6 2199.61   6
   0   8  -1 96218.4 1108.86   3
   0   8   0 7912.12 392.210   3
   0   8   0 8091.19 400.001   7
   0   8   1 57702.9 863.964   3
   0   8   1 60945.0 1837.60   6
   0   8   1 60693.9 920.141   7
   0   8   2 510.969 248.204   7
   0   8   2 449.133 266.021   3
   0   8   3 37170.0 802.391   7
   0   8   3 35874.7 720.346   3
   0   8   4 5715.37 352.964   3
   0   8   4 6402.73 956.210   6
   0   8   4 6020.29 433.628   7
   0   8   4 5311.61 357.083   2
   0   8   5 42646.2 777.665   2
   0   8   5 44526.3 968.181   7
   0   8   5 43247.7 1715.74   6
   0   8   5 44509.1 835.260   3
   0   8   6 27244.9 1500.52   6
   0   8   6 28227.8 839.747   7
   0   8   6 28251.8 656.607   2
   0   9  -9 25574.7 887.543   3
   0  -9   9 23384.1 609.899   8
   0   9  -8 38656.3 1007.98   3
   0  -9   8 34657.1 715.799   8
   0   9  -7 68492.6 2178.40   6
   0   9  -7 73401.8 1295.73   3
   0  -9   7 70387.2 921.494   8
   0   9  -6 20004.3 714.577   3
   0  -9   6 20602.0 512.327   8
   0   9  -5 108962. 1451.88   3
   0   9  -5 105672. 2569.35   6
   0  -9   5 112693. 1005.92   8
   0   9  -4 5088.05 449.788   3
   0   9  -4 2716.57 845.059   6
   0   9  -3 75983.1 2157.20   6
   0   9  -3 85492.4 1277.06   3
   0   9  -2-76.1049 747.515   6
   0   9  -2 352.634 290.977   3
   0   9  -1 63793.6 987.575   3
   0   9  -1 64541.9 971.003   7
   0   9   0 9521.35 443.052   7
   0   9   0 9690.44 483.979   3
   0   9   1 33842.4 759.892   3
   0   9   1 32727.3 766.793   7
   0   9   2 18815.1 602.801   7
   0   9   2 18591.7 587.235   3
   0   9   3 19045.5 614.710   3
   0   9   3 16874.3 629.926   7
   0   9   4 37890.2 822.891   3
   0   9   4 34948.3 1721.31   6
   0   9   4 37394.6 893.894   7
   0  10  -5 54573.6 1126.62   3
   0  10  -5 47735.5 1960.05   6
   0  10  -4 5544.61 502.822   3
   0  10  -4 3363.90 958.745   6
   0  10  -3 46947.6 1099.20   3
   0  10  -3 34058.9 1699.32   6
   0  10  -2 4837.18 1051.42   6
   0  10  -2 7221.52 506.433   3
   0  10  -1 9928.29 523.255   3
   0  10  -1 7102.66 1116.15   6
  -1  10  -1 5657.48 1098.50   6
  -1  10  -1 7720.11 489.460   3
  -1  10  -2 39414.5 928.131   3
  -1  10  -2 37285.0 1792.19   6
  -1  10  -3 10579.5 1248.41   6
  -1  10  -3 13917.5 658.322   3
  -1  10  -4 14154.0 1304.42   6
  -1  10  -4 18185.3 722.976   3
  -1  10  -5 24115.5 806.594   3
  -1  10  -5 20206.6 1458.71   6
  -1   9   4 65298.2 2162.74   6
  -1   9   4 68699.8 1092.86   3
  -1   9   4 65996.3 1189.72   7
  -1   9   3 17464.9 602.209   3
  -1   9   3 17621.2 645.489   7
  -1   9   2 72515.3 2191.85   6
  -1   9   2 72942.0 1064.83   3
  -1   9   1 34880.5 801.513   7
  -1   9   1 34873.7 1589.16   6
  -1   9   0 23505.6 696.830   7
  -1   9   0 21268.1 604.977   3
  -1   9  -1 27981.3 713.318   7
  -1   9  -1 29113.8 733.802   3
  -1   9  -2 7148.35 454.875   7
  -1   9  -2 7391.33 453.550   3
  -1   9  -2 5907.74 945.390   6
  -1   9  -3 31375.2 1518.54   6
  -1   9  -3 33217.6 854.277   7
  -1   9  -4 5099.27 453.220   7
  -1   9  -4 6014.53 448.326   3
  -1   9  -4 5303.91 968.095   6
  -1   9  -5 47572.8 1822.24   6
  -1   9  -5 54193.9 1061.75   3
  -1   9  -6 1670.48 881.867   6
  -1   9  -6 1842.45 394.200   3
   1  -9   6 1437.32 246.173   8
  -1   9  -7 78287.4 2330.44   6
   1  -9   7 77834.1 950.443   8
  -1   9  -8 5067.01 513.102   3
   1  -9   8 4298.89 332.404   8
  -1   8   6 56855.9 1991.36   6
  -1   8   6 58257.6 895.489   2
  -1   8   5 48804.0 868.523   3
  -1   8   5 47821.4 1771.88   6
  -1   8   5 45154.2 792.074   2
  -1   8   5 45930.2 993.791   7
  -1   8   4 30763.3 1478.61   6
  -1   8   4 31639.8 804.373   7
  -1   8   4 30403.6 658.338   3
  -1   8   4 29318.5 662.843   2
  -1   8   3 34865.7 804.515   7
  -1   8   3 35117.4 1510.23   6
  -1   8   3 35373.1 706.582   3
  -1   8   2 21242.7 613.375   7
  -1   8   2 23065.7 591.620   3
  -1   8   2 20428.4 1229.78   6
  -1   8   1 26569.9 612.392   3
  -1   8   1 27041.3 1346.87   6
  -1   8   1 29878.4 727.111   7
  -1   8   0 1048.90 282.205   3
  -1   8   0 473.405 660.321   6
  -1   8   0 1070.35 265.899   7
  -1   8  -1 47908.3 1659.47   6
  -1   8  -1 47788.6 803.176   3
   1  -8   2 75.8649 138.520   8
  -1   8  -2 449.970 261.767   3
  -1   8  -2 302.920 683.224   6
  -1   8  -2 558.880 273.795   7
  -1   8  -3 98194.2 1289.27   3
  -1   8  -3 103765. 1017.86  11
  -1   8  -3 101547. 1335.50   7
   1  -8   3 100457. 830.807   8
   1  -8   4 5274.87 263.834   8
  -1   8  -4 4817.53 420.857   7
  -1   8  -4 5103.93 398.196   3
  -1   8  -4 5047.28 875.358   6
  -1   8  -4 5288.05 263.813  11
   1  -8   5 131110. 1066.55   8
  -1   8  -5 127610. 1596.26   7
  -1   8  -6 46742.8 1729.99   6
  -1   8  -6 48313.7 1114.57   7
  -1   8  -6 50649.9 973.477   3
   1  -8   6 51234.3 723.994   8
   1  -8   7 70118.6 876.385   8
  -1   8  -7 70421.2 2082.22   6
  -1   8  -8 65075.7 1222.69   3
  -1   8  -8 61842.3 2032.80   6
  -1   8  -9 35980.8 1679.94   6
   1  -8   9 35128.6 711.452   8
   1  -8  10 41957.9 824.501   8
  -1   8 -10 38690.3 1762.01   6
  -1   7   8 33108.0 704.289   2
  -1   7   8 36417.9 1051.08   7
  -1   7   8 33300.0 1590.11   6
  -1   7   7 87566.6 2239.73   6
  -1   7   7 90007.4 1453.20   7
  -1   7   7 84414.8 1062.79   2
  -1   7   6 19051.9 668.382   7
  -1   7   6 17748.7 1145.07   6
  -1   7   6 18069.7 515.284   2
  -1   7   5 45318.4 951.245   7
  -1   7   5 44161.8 734.042   2
  -1   7   4 9266.11 911.348   6
  -1   7   4 8694.88 465.224   7
  -1   7   3 68112.6 1799.50   6
  -1   7   3 65369.4 864.017   3
  -1   7   3 67100.3 1026.26   7
  -1   7   2 161.913 234.496   7
  -1   7   2-0.49078 199.153   3
  -1   7   1 85901.8 1092.67   7
  -1   7   1 85929.9 976.786   3
  -1   7   0 12940.8 455.239   7
  -1   7   0 14011.2 442.487   3
   1  -7   0 13060.8 218.400   8
  -1   7  -1 113943. 1111.52   3
  -1   7  -1 112628. 2202.22   6
   1  -7   1 128229. 774.273   8
  -1   7  -1 125154. 1313.13   7
  -1   7  -2 35136.1 690.812   3
   1  -7   2 39055.7 487.621   8
  -1   7  -2 36025.1 726.155   7
  -1   7  -2 37808.8 1393.90   6
  -1   7  -3 114980. 1383.86   7
   1  -7   3 115226. 885.091   8
  -1   7  -3 116984. 1017.03  11
  -1   7  -4 178432. 1752.36   7
  -1   7  -4 180376. 1121.47  11
  -1   7  -4 169856. 1546.08   3
  -1   7  -4 166990. 2753.31   6
  -1   7  -5 56408.9 1693.83   6
  -1   7  -5 53879.3 1014.14   7
   1  -7   5 54998.5 683.528   8
  -1   7  -5 57107.8 947.361   3
  -1   7  -6 138800. 1753.97   7
  -1   7  -6 142776. 872.119  11
  -1   7  -6 145004. 1555.76   3
  -1   7  -6 141438. 2630.20   6
  -1   7  -7 14302.2 1076.05   6
   1  -7   7 15723.6 447.591   8
   1  -7   8 97607.1 1034.92   8
  -1   7  -8 100262. 1303.74   5
  -1   7  -9 738.442 330.038   3
   1  -7   9 488.839 248.135   8
  -1   7  -9 786.462 740.681   6
  -1   7 -10 46659.5 1059.98   3
  -1   7 -10 44284.3 1808.06   6
   1  -7  10 44524.3 817.661   8
  -1   7 -11 7580.75 1083.22   6
  -1   7 -11 8935.45 599.041   3
   1  -7  11 8158.41 407.570   8
   1  -7  12 22031.3 656.394   8
  -1   7 -12 22567.4 863.056   3
  -1   6  10 6771.67 383.835   2
  -1   6  10 6241.66 1061.34   6
  -1   6  10 6554.27 586.661   7
  -1   6   9 98928.7 2344.39   6
  -1   6   9 96120.9 1570.01   7
  -1   6   8 3209.44 280.191   2
  -1   6   8 4265.72 445.820   7
  -1   6   8 5146.10 836.764   6
  -1   6   7 86582.7 2028.19   6
  -1   6   7 84420.6 1325.54   7
  -1   6   6 530.218 625.639   6
  -1   6   6 66.1434 273.831   7
  -1   6   6-84.3885 180.227   2
  -1   6   5 38335.7 631.357   2
  -1   6   5 41210.2 864.854   7
  -1   6   5 41286.3 1386.85   6
  -1   6   4 3047.23 230.068   2
  -1   6   4 2553.55 137.901   9
  -1   6   4 3443.30 328.095   7
  -1   6   4 2626.14 604.695   6
  -1   6   3 54857.1 453.449   9
  -1   6   3 56755.8 908.358   7
  -1   6   3 54197.4 1500.94   6
  -1   6   2 63218.5 914.069   7
  -1   6   2 63656.9 1579.65   6
  -1   6   2 61240.1 756.815   3
  -1   6   1 105350. 1128.99   7
  -1   6   1 106518. 994.763   3
  -1   6   1 106242. 1962.06   6
  -1   6   0 158852. 1395.49   7
  -1   6   0 152946. 2330.71   6
   1  -6   0 161632. 697.310   8
  -1   6   0 149144. 1157.18   3
   1  -6   0 164103. 805.790   9
  -1   6  -1 67185.8 1576.94   6
   1  -6   1 72401.2 648.942   9
   1  -6   1 74090.2 543.696   8
  -1   6  -1 72005.0 934.753   7
  -1   6  -1 66615.2 802.042   3
   1  -6   2 243358. 1099.51   8
  -1   6  -2 228178. 1539.53   3
   1  -6   2 216169. 1269.45   9
  -1   6  -2 234338. 1677.15   7
  -1   6  -2 228674. 2890.88   6
   1  -6   3 25117.5 490.730   9
  -1   6  -3 31643.3 698.176   3
   1  -6   3 30727.5 457.472   8
  -1   6  -3 30460.9 488.058  11
  -1   6  -3 25931.5 1098.69   6
  -1   6  -3 28234.9 669.344   7
  -1   6  -4 308441. 1373.58  11
  -1   6  -4 312608. 2004.96   3
   1  -6   4 308038. 1483.69   8
  -1   6  -4 311003. 3440.33   6
  -1   6  -5 1063.44 256.186   3
  -1   6  -5 1093.39 150.152  11
  -1   6  -5 767.114 300.164   7
   1  -6   5 853.853 189.241   8
  -1   6  -6 94271.8 707.398  11
  -1   6  -6 91717.7 1519.86   7
  -1   6  -6 85190.3 1942.24   6
  -1   6  -6 89738.4 1170.79   3
   1  -6   6 85402.0 873.210   8
   1  -6   7 13711.4 413.205   8
  -1   6  -7 14316.5 545.942   3
  -1   6  -7 14664.4 504.984   5
  -1   6  -7 15324.6 306.133  11
  -1   6  -8 46818.1 1552.98   6
   1  -6   8 46747.9 715.265   8
   1  -6   9 28094.2 614.924   8
  -1   6  -9 29148.4 788.731   3
  -1   6  -9 27830.2 1340.52   6
  -1   6 -10 25632.2 770.047   3
   1  -6  10 26120.5 633.529   8
   1  -6  11 36428.6 771.434   8
  -1   6 -11 35574.9 939.039   3
   1  -6  12 9738.89 541.646   2
  -1   6 -12 8929.34 1057.72   6
  -1   6 -12 10257.8 635.065   3
   1  -6  12 7996.92 816.631   4
   1  -6  12 9595.24 494.206   8
  -1   5  11 69423.3 1060.14  10
  -1   5  11 69730.0 1023.36   2
  -1   5  10 1614.94 783.478   6
  -1   5  10 1662.77 248.493   2
  -1   5  10 1675.26 289.535  10
  -1   5   9 64229.4 887.077   2
  -1   5   9 66862.3 1923.86   6
  -1   5   8 461.618 163.146   9
  -1   5   8 314.999 642.728   6
  -1   5   8 462.852 201.588   2
  -1   5   7 23361.8 718.433   7
  -1   5   7 22219.1 492.167   2
  -1   5   7 23929.2 1134.40   6
  -1   5   6 16748.8 315.858   9
  -1   5   6 18016.1 611.879   7
  -1   5   6 17184.2 415.761   2
  -1   5   5 76012.9 591.978   9
  -1   5   5 76963.8 1093.13   7
  -1   5   5 71814.4 772.543   2
  -1   5   5 77492.1 1633.76   6
   1  -5  -5 73124.8 403.156   8
  -1   5   4 74531.0 763.222   2
  -1   5   4 80489.6 1096.60   7
  -1   5   4 78901.3 1630.44   6
  -1   5   4 73518.6 533.526   9
  -1   5   3 56466.7 1348.08   6
  -1   5   3 55962.9 840.583   7
  -1   5   3 54135.2 636.994   2
  -1   5   3 55210.8 432.576   9
  -1   5   2 282363. 2856.82   6
  -1   5   2 271178. 1365.31   2
  -1   5   2 282880. 1797.86   7
  -1   5   2 273717. 878.204   9
  -1   5   1 25844.6 555.319   7
  -1   5   1 25534.3 954.978   6
   1  -5  -1 25879.7 251.353   9
  -1   5   1 24220.3 439.954   3
  -1   5   1 23513.3 420.473   2
   1  -5   0 349811. 994.944   8
  -1   5   0 347044. 3127.71   6
   1  -5   1 1627.05 136.960   9
  -1   5  -1 1664.72 481.948   6
  -1   5  -1 1613.55 215.931   7
   1  -5   1 1333.30 214.452   7
   1  -5   1 2001.88 122.138   8
  -1   5  -1 1457.38 192.461   3
  -1   5  -2 301718. 1781.63   7
   1  -5   2 274595. 1364.99   9
  -1   5  -2 272675. 1319.51   8
  -1   5  -2 283463. 1598.39   3
  -1   5  -2 287680. 2983.23   6
   1  -5   2 293788. 1131.62   8
  -1   5  -3 31226.5 1097.02   6
   1  -5   3 29737.6 493.153   9
   1  -5   3 32195.0 445.656   8
  -1   5  -3 34208.4 650.733   3
  -1   5  -3 31546.9 667.410   7
  -1   5  -3 32784.1 463.598  11
  -1   5  -3 34674.7 569.159   1
  -1   5  -3 30988.6 553.014   8
   1  -5   4 119703. 889.125   8
  -1   5  -4 126336. 814.193  11
  -1   5  -4 121932. 2041.46   6
  -1   5  -4 124610. 1174.23   3
  -1   5  -5 29154.5 395.572  11
  -1   5  -5 30462.4 639.205   3
   1  -5   5 29866.2 510.040   8
  -1   5  -5 26308.6 1080.64   6
  -1   5  -5 27263.5 727.657   7
  -1   5  -6 34411.5 420.912  11
  -1   5  -6 32196.5 1205.01   6
  -1   5  -6 32637.4 642.828   5
  -1   5  -6 32322.3 700.451   3
   1  -5   6 30953.3 530.943   8
  -1   5  -7 37379.9 778.606   3
  -1   5  -7 39998.0 1341.23   6
   1  -5   7 38853.9 628.290   8
  -1   5  -8 26229.7 676.810   3
   1  -5   8 27228.5 550.591   8
  -1   5  -9 56490.2 1001.90   3
  -1   5  -9 57054.8 1645.22   6
   1  -5   9 60249.6 851.211   8
   1  -5  10 7109.90 376.868   8
  -1   5 -10 7462.51 834.073   6
  -1   5 -10 5925.90 427.629   3
  -1   5 -11 112076. 1584.34   3
   1  -5  11 107371. 1419.40   2
   1  -5  11 95436.3 1893.90   4
   1  -5  11 107179. 1243.97   8
  -1   5 -11 95292.7 2186.36   6
   1  -5  12 3177.02 365.471   2
   1  -5  12 3155.01 605.372   4
  -1   5 -12 2989.64 853.281   6
   1  -5  12 3244.51 363.915   8
  -1   5 -12 3715.93 477.389   3
   1  -5  13 104653. 1487.93   2
   1  -5  13 101774. 1334.73   8
   1  -5  13 98989.0 2055.15   4
  -1   5 -13 97451.9 2417.03   6
  -1   4  12 5423.24 390.371   2
  -1   4  12 5197.83 387.086  10
  -1   4  11 47476.9 831.403  10
   1  -4 -11 49900.1 984.746   6
  -1   4  11 49813.3 865.163   2
  -1   4  10 6952.64 359.807  10
   1  -4 -10 7712.45 465.184   6
  -1   4  10 7010.05 320.087   9
  -1   4  10 7501.02 373.695   2
  -1   4   9 58052.2 818.300  10
  -1   4   9 56953.3 712.586   9
  -1   4   8 20392.0 473.189  10
  -1   4   8 20612.2 411.814   9
  -1   4   8 19211.9 462.286   2
  -1   4   7 20291.5 448.851  10
  -1   4   7 20789.4 458.375   2
   1  -4  -7 21716.0 409.707   8
  -1   4   7 21443.5 377.971   9
  -1   4   6 159083. 896.855   9
  -1   4   6 166489. 2306.11   6
  -1   4   6 162133. 1136.55  10
   1  -4  -6 169633. 928.292   8
  -1   4   6 158303. 1105.70   2
  -1   4   5 11894.7 228.178   9
  -1   4   5 13555.7 754.070   6
   1  -4  -5 13727.2 237.702   8
  -1   4   5 12084.2 308.866   2
   1  -4  -4 370420. 913.244   8
  -1   4   4 345951. 1056.99   9
  -1   4   4 337598. 1436.20   2
  -1   4   4 365821. 3009.01   6
  -1   4   4 365664. 2122.41   7
  -1   4   3 3961.03 490.792   6
  -1   4   3 3690.54 114.567   9
  -1   4   3 3413.83 171.564   2
  -1   4   3 3465.18 275.976   7
  -1   4   2 452125. 2086.39   7
  -1   4   2 474181. 3250.01   6
  -1   4   2 477261. 2279.68   6
  -1   4   2 439184. 998.462   9
   1  -4  -2 473478. 1622.42  10
  -1   4   2 458878. 1580.70   2
  -1   4   1 64066.5 761.136   7
  -1   4   1 60610.6 602.123   3
  -1   4   1 67913.1 1288.26   6
   1  -4  -1 53169.1 242.194   8
   1  -4  -1 65169.7 331.885   9
  -1   4   1 58373.2 538.990   2
   1  -4  -1 62843.7 1321.85   6
   1  -4  -1 65307.6 595.814   2
   1  -4   0 279883. 1641.72   7
   1  -4   0 312402. 2735.69   6
  -1   4   0 312350. 2677.14   6
   1  -4   0 314534. 1243.34   2
   1  -4   0 280792. 785.655   8
  -1   4   0 307680. 1364.86   3
   1  -4   0 311140. 915.885   9
  -1   4   0 318014. 1642.56   7
  -1   4  -1 30121.6 536.677   7
  -1   4  -1 30687.4 477.448   3
   1  -4   1 25968.4 515.390   7
  -1   4  -1 28764.7 393.172   8
  -1   4  -1 29413.4 932.894   6
   1  -4   1 28539.1 362.962   9
   1  -4   1 27291.4 927.314   6
   1  -4   1 26669.2 291.470   8
   1  -4   1 32087.3 427.485   2
   1  -4   2 103945. 650.753   8
  -1   4  -2 107607. 785.411   8
  -1   4  -2 102471. 1006.16   7
  -1   4  -2 107274. 1694.79   6
  -1   4  -2 112240. 950.809   3
   1  -4   2 97302.5 949.416   7
   1  -4   2 100968. 771.597   9
   1  -4   2 101232. 853.044   3
  -1   4  -3 139587. 860.665  11
  -1   4  -3 121245. 1797.84   6
  -1   4  -3 127349. 1070.36   3
  -1   4  -3 135851. 1302.45   7
   1  -4   3 115436. 1027.81   7
   1  -4   3 116322. 775.049   8
  -1   4  -3 128243. 928.116   8
  -1   4  -4 23411.0 350.128  11
  -1   4  -4 24294.6 622.663   7
   1  -4   4 22841.8 500.196   7
  -1   4  -4 22865.4 458.300   8
  -1   4  -4 21011.4 464.595   3
   1  -4   4 22606.6 404.582   8
  -1   4  -4 20403.5 868.090   6
  -1   4  -5 137791. 1722.66   7
   1  -4   5 135904. 1293.71   7
   1  -4   5 119649. 913.136   8
  -1   4  -5 128391. 745.868  11
  -1   4  -5 127144. 1933.47   6
  -1   4  -5 118223. 1120.57   3
  -1   4  -5 128155. 1126.44   5
   1  -4   6 15090.3 375.349   8
  -1   4  -6 15542.2 298.539  11
  -1   4  -6 14591.0 814.098   6
  -1   4  -6 13856.0 448.475   3
   1  -4   6 16467.3 341.619  11
  -1   4  -7 161698. 2383.52   6
  -1   4  -7 159986. 1440.43   3
  -1   4  -7 162742. 560.133   1
  -1   4  -7 159642. 952.050  11
   1  -4   7 163824. 1024.53  11
  -1   4  -8 2383.85 583.588   6
   1  -4   8 2343.71 190.553  11
  -1   4  -8 1970.36 277.805   3
   1  -4   8 1876.21 232.821   8
  -1   4  -8 2773.23 197.682  11
  -1   4  -9 188443. 1209.03  11
  -1   4  -9 193665. 1762.53   3
  -1   4  -9 180353. 2601.28   6
   1  -4   9 177813. 1426.95   8
   1  -4   9 177732. 1545.26   2
   1  -4  10 13257.1 777.101   4
  -1   4 -10 15691.6 609.845   3
  -1   4 -10 14730.7 402.205  11
   1  -4  10 13224.0 474.552   8
   1  -4  10 13747.9 525.351   2
  -1   4 -10 14093.9 953.772   6
  -1   4 -11 135820. 1219.86  11
   1  -4  11 119116. 1305.81   8
   1  -4  11 128074. 1468.35   2
  -1   4 -11 120148. 2307.09   6
   1  -4  11 118171. 1927.29   4
  -1   4 -11 139268. 1688.73   3
  -1   4 -12 9284.50 943.081   6
   1  -4  12 11465.8 512.204   2
   1  -4  12 8916.26 443.236   8
   1  -4  12 11219.2 786.229   4
  -1   4 -12 12064.8 623.355   3
   1  -4  13 54544.6 1429.19   4
  -1   4 -13 63240.7 1288.72   3
   1  -4  13 60212.4 1117.92   2
   1  -4  13 55089.7 986.231   8
  -1   4 -13 56713.9 1772.10   6
  -1   3  13 34432.9 731.572   9
  -1   3  13 41567.0 847.646   2
   1  -3 -12 27718.8 863.670   6
  -1   3  12 25114.0 638.590   2
  -1   3  11 16836.1 511.075   2
  -1   3  11 15916.0 469.267   9
  -1   3  10 47973.6 754.583   2
  -1   3  10 46254.6 690.138   9
  -1   3   9 882.607 184.378   2
   1  -3  -9 1275.19 329.333   6
  -1   3   9 810.144 175.334   9
  -1   3   8 148511. 1159.20   2
  -1   3   8 150803. 1049.24   9
  -1   3   7 888.364 142.218   9
   1  -3  -7 1192.54 180.569   8
   1  -3  -7 742.432 251.417   6
  -1   3   7 701.535 152.320   2
   1  -3  -6 313098. 1754.60   6
  -1   3   6 310640. 1457.10  10
  -1   3   6 309114. 1487.68   2
  -1   3   5 91759.3 1129.87   6
  -1   3   5 89932.3 591.187   9
  -1   3   5 88333.0 761.274   2
  -1   3   5 84081.1 700.901  10
   1  -3  -5 84041.2 593.443   8
   1  -3  -4 297779. 908.734   8
  -1   3   4 315242. 1878.63   6
  -1   3   4 296662. 1249.97   2
  -1   3   4 300268. 1234.69  10
  -1   3   4 311296. 2537.92   6
  -1   3   3 127286. 761.219   2
  -1   3   3 142013. 1624.81   6
  -1   3   3 138541. 1161.92   7
   1  -3  -3 135460. 860.252   2
  -1   3   3 146384. 1217.05   6
  -1   3   3 125958. 509.016   9
   1  -3  -3 131318. 442.500   8
  -1   3   2 221226. 1970.83   6
  -1   3   2 186373. 860.857   2
  -1   3   2 222449. 1338.49   6
   1  -3  -2 211457. 972.413   2
   1  -3  -2 217887. 961.875  10
  -1   3   2 230302. 1438.68   7
   1  -3  -1 231462. 2071.59   6
  -1   3   1 221026. 1270.97   7
  -1   3   1 221424. 928.744   2
   1  -3  -1 225475. 932.072   2
  -1   3   1 234510. 1994.15   6
   1  -3  -1 217267. 1324.45   7
   1  -3   0 21376.6 216.682   9
   1  -3   0 22220.4 199.610   8
  -1   3   0 22789.9 723.897   6
  -1   3   0 22225.2 407.623   7
   1  -3   0 23360.1 305.896   2
  -1   3   0 20861.6 242.123   8
   1  -3   0 21926.2 708.605   6
   1  -3   0 19493.5 394.470   7
  -1   3   0 22299.2 336.206   3
   1  -3   1 268783. 2287.78   6
  -1   3  -1 274898. 1141.24   3
   1  -3   1 275473. 1147.27   3
  -1   3  -1 282964. 2328.33   6
   1  -3   1 275115. 866.671   8
   1  -3   1 280101. 1029.47   2
  -1   3  -1 280831. 1390.26   7
  -1   3  -1 275693. 1006.07   8
   1  -3   1 265540. 1412.38   7
   1  -3   2 5776.57 216.788   3
  -1   3  -2 7277.84 212.705  11
   1  -3   2 5094.05 238.829   7
  -1   3  -2 6392.65 252.393   3
  -1   3  -2 6039.19 500.616   6
   1  -3   2 5511.74 483.559   6
  -1   3  -2 6867.33 314.421   7
  -1   3  -2 7035.38 213.306   8
   1  -3   2 6597.38 184.205   8
   1  -3   3 154106. 1821.41   6
  -1   3  -3 158684. 777.766  11
   1  -3   3 161362. 1024.03   3
   1  -3   3 159878. 1191.43   7
   1  -3   3 150915. 829.835   8
  -1   3  -3 155524. 1846.08   6
  -1   3  -3 163915. 1345.07   7
  -1   3  -3 169784. 985.362   8
  -1   3  -3 148267. 1019.65   3
   1  -3   4 1776.47 139.226  11
  -1   3  -4 1174.10 115.440  11
  -1   3  -4 1375.16 152.664   8
   1  -3   4 1491.90 395.802   6
  -1   3  -4 2053.25 441.615   6
  -1   3  -4 1248.40 256.138   7
  -1   3  -4 1713.21 187.763   5
   1  -3   4 1526.61 196.608   3
   1  -3   4 1751.15 238.813   7
   1  -3   4 1153.61 141.714   8
  -1   3  -4 1429.38 182.926   3
  -1   3  -5 213792. 1027.55  11
  -1   3  -5 228387. 1443.54   3
   1  -3   5 211410. 1176.22   8
  -1   3  -5 229144. 2342.94   6
   1  -3   5 232725. 1073.96  11
  -1   3  -5 225298. 825.242   1
   1  -3   5 235621. 1763.01   7
  -1   3  -6 10973.9 152.590   1
  -1   3  -6 7466.64 105.098   1
   1  -3   6 8848.79 283.725   8
  -1   3  -6 10611.6 372.115   3
  -1   3  -6 11057.6 687.144   6
  -1   3  -6 7546.03 223.662  11
   1  -3   6 9713.61 244.605  11
   1  -3   7 149545. 914.327  11
  -1   3  -7 165556. 1370.83   3
  -1   3  -7 139140. 949.863  11
   1  -3   7 147982. 1132.99   8
  -1   3  -7 160838. 2110.57   6
  -1   3  -8 77580.7 1022.26   3
  -1   3  -8 65697.5 731.544  11
   1  -3   8 66261.1 823.820   8
   1  -3   8 75560.1 955.145   2
   1  -3   8 74092.2 1354.49   4
  -1   3  -8 71843.6 1539.08   6
  -1   3  -9 180376. 1705.70   3
   1  -3   9 158123. 1395.80   2
  -1   3  -9 139971. 1113.62  11
  -1   3  -9 169853. 2421.26   6
   1  -3   9 132127. 1203.48   8
   1  -3   9 160290. 1975.89   4
   1  -3  10 93333.4 1606.90   4
  -1   3 -10 100727. 1368.16   3
  -1   3 -10 72779.5 865.030  11
   1  -3  10 86970.0 1121.86   2
  -1   3 -10 84281.7 1808.63   6
   1  -3  10 76648.2 979.618   8
   1  -3  11 59398.8 969.564   2
   1  -3  11 57536.4 1256.98   4
  -1   3 -12 56116.4 1654.54   6
   1  -3  12 56964.4 1320.04   4
   1  -3  12 55993.4 991.958   2
  -1   3 -13 2522.86 762.422   6
   1  -3  13 4252.31 556.535   4
   1  -3  13 3783.90 353.519   2
   1  -3  13 2650.15 339.827   8
   1  -3  14 50223.4 1026.72   2
   1  -3  14 49693.7 1304.23   4
  -1   2  13 7796.59 439.459   2
  -1   2  13 6801.84 402.533   9
  -1   2  12 57179.9 934.608   2
   1  -2 -12 58009.1 1168.43   6
  -1   2  11 349.172 194.406   8
   1  -2 -11 119.659 375.265   6
  -1   2  11 259.703 212.946   2
  -1   2  10 87542.0 1013.27   2
  -1   2  10 85834.0 897.340   8
  -1   2   9 34830.2 519.747   8
  -1   2   9 34820.5 620.477   2
  -1   2   8 186960. 1080.15   8
  -1   2   8 188271. 1304.50   2
   1  -2  -7 130410. 1023.25   8
  -1   2   7 153264. 1551.04   6
   1  -2  -7 134524. 1116.35   4
  -1   2   7 146859. 866.463   8
  -1   2   7 145261. 1075.54   2
   1  -2  -7 153491. 1330.32   6
  -1   2   6 170993. 1074.94   2
  -1   2   6 159461. 1230.61   1
   1  -2  -6 182208. 1337.26   6
   1  -2  -6 169802. 1127.82   4
  -1   2   6 172051. 842.606   8
  -1   2   6 180150. 1526.99   6
   1  -2  -6 162207. 1020.90   8
   1  -2  -5 291025. 1237.61   4
   1  -2  -5 281168. 1185.28   8
   1  -2  -5 310082. 1579.55   6
  -1   2   5 289488. 1275.93   2
  -1   2   5 313527. 1805.24   6
  -1   2   4 80606.0 426.808   8
  -1   2   4 78158.0 614.057   2
   1  -2  -4 82131.8 736.271   6
  -1   2   4 84374.2 887.818   6
   1  -2  -4 77917.3 657.276   2
   1  -2  -4 76802.2 527.254   8
   1  -2  -3 241474. 1033.90   2
  -1   2   3 237364. 902.642  10
  -1   2   2 26476.9 285.592   2
  -1   2   2 25572.8 159.857   9
  -1   2   2 29118.1 452.106   7
  -1   2   2 28588.5 607.676   6
   1  -2  -2 27355.4 305.784   2
  -1   2   2 31548.9 437.666   6
  -1   2   1 28791.7 418.553   7
   1  -2  -1 30069.9 287.426   2
  -1   2   1 28657.5 265.634   2
   1  -2  -1 29787.4 626.707   6
  -1   2   1 30021.8 621.767   6
  -1   2   0 61853.9 303.239   8
  -1   2   0 63299.9 604.014   7
   1  -2   0 65791.5 284.732   8
  -1   2   0 61483.2 430.882   3
  -1   2   0 61669.9 385.069   2
  -1   2   0 59438.3 880.473   6
   1  -2   0 60745.0 886.707   6
   1  -2   0 62931.0 377.778   2
   1  -2   0 57473.6 565.678   7
  -1   2  -1 366232. 2189.27   6
   1  -2   1 373354. 2183.95   6
   1  -2   2 839.673 104.280  11
   1  -2   2 635.639 143.500   7
  -1   2  -2 922.294 94.5538  11
   1  -2   2 731.893 83.5762   8
  -1   2  -2 913.586 91.2773   8
   1  -2   2 422.930 107.270   3
  -1   2  -2 872.205 312.447   6
   1  -2   2 1067.93 311.872   6
  -1   2  -2 790.967 124.440   3
  -1   2  -2 906.506 175.902   7
  -1   2  -3 250063. 2004.04   6
   1  -2   3 275530. 1616.68   7
   1  -2   3 271269. 1064.44   8
  -1   2  -3 254941. 1290.61   5
  -1   2  -3 257519. 1206.96   3
   1  -2   3 274094. 1020.16  11
  -1   2  -3 225344. 879.057  11
  -1   2  -3 222162. 1593.02   7
   1  -2   3 269801. 2025.35   6
  -1   2  -3 270282. 1083.83   8
   1  -2   3 255299. 1129.48   3
  -1   2  -4 73272.3 381.124   1
   1  -2   4 73839.7 1144.99   6
   1  -2   4 74119.9 629.402   8
   1  -2   4 78438.8 569.238  11
  -1   2  -4 79739.6 1239.43   6
   1  -2   4 75968.6 681.560   3
  -1   2  -4 69708.2 692.981   3
  -1   2  -4 73042.0 572.055  11
   1  -2   4 75243.5 935.499   7
  -1   2  -4 80324.4 690.131   8
   1  -2   5 310204. 1163.43  11
   1  -2   5 300421. 1445.78   3
  -1   2  -5 312159. 1555.50   3
   1  -2   5 302618. 1979.92   7
   1  -2   5 296738. 2332.37   6
   1  -2   5 300347. 1344.09   8
  -1   2  -5 282952. 1165.65  11
  -1   2  -5 319186. 2484.82   6
  -1   2  -5 331517. 1492.96   8
   1  -2   6 154096. 1637.02   4
   1  -2   6 122254. 944.397   8
  -1   2  -6 144839. 1814.03   6
   1  -2   6 154274. 1157.05   2
  -1   2  -6 147866. 1168.77   3
   1  -2   6 152753. 879.831  11
  -1   2  -6 131129. 899.742  11
  -1   2  -7 123811. 970.454  11
   1  -2   7 131908. 1057.10   8
   1  -2   7 138837. 1590.71   4
   1  -2   7 135415. 900.334   5
  -1   2  -7 151886. 1335.47   3
  -1   2  -7 145186. 1909.70   6
   1  -2   7 123601. 815.839  11
   1  -2   7 134072. 1106.37   2
   1  -2   8 220525. 1527.04   2
   1  -2   8 218362. 1179.62   5
   1  -2   9 19886.7 691.460   4
   1  -2   9 17118.9 369.134   5
   1  -2   9 18238.3 502.935   2
   1  -2   9 17169.4 456.214   8
  -1   2  -9 14348.5 408.471  11
  -1   2  -9 20557.1 605.552   3
  -1   2  -9 17182.0 816.355   6
  -1   2 -10 125218. 2063.52   6
   1  -2  10 124706. 1265.69   2
  -1   2 -11-269.514 519.937   6
   1  -2  11 155.385 371.890   4
   1  -2  11-151.205 218.177   8
   1  -2  11 355.095 222.684   2
   1  -2  12 71045.4 1092.52   2
   1  -2  12 74481.1 1370.05   4
   1  -2  13 7976.55 573.827   4
  -1   2 -13 8187.04 875.330   6
   1  -2  13 7874.23 443.702   2
   1  -2  13 6005.38 408.057   8
   1  -2  14 36566.9 889.024   2
  -1   2 -14 29795.8 1358.25   6
   1  -2  14 35094.8 1041.06   4
   1  -2  14 26696.5 777.483   8
  -1   1  14 41508.3 803.306   8
  -1   1  14 53181.1 1009.90   2
  -1   1  13 8025.72 415.782   8
   1  -1 -13 8773.64 651.957   6
  -1   1  12 91906.1 1161.87   2
  -1   1  12 91775.1 1060.04   8
  -1   1  11 68877.9 958.166   2
  -1   1  11 60779.8 783.237   8
   1  -1 -10 64289.7 1131.64   6
  -1   1  10 65757.5 887.929   2
  -1   1   9 159372. 1263.09   2
  -1   1   9 162219. 1079.34   1
  -1   1   9 171905. 1182.15   8
   1  -1  -9 174968. 1694.03   6
  -1   1   8 76158.4 739.088   8
   1  -1  -8 77864.2 1068.67   6
   1  -1  -7 345135. 1835.24   4
  -1   1   7 364025. 2252.31   6
  -1   1   7 333570. 1587.95   1
  -1   1   7 347840. 1404.57   8
  -1   1   7 333631. 1606.16   2
   1  -1  -7 360929. 2075.93   6
   1  -1  -7 315967. 1657.15   8
  -1   1   6 13900.3 271.514   8
  -1   1   6 14554.6 323.688   2
   1  -1  -6 15374.0 435.390   6
   1  -1  -6 13413.4 331.341   8
   1  -1  -6 14452.7 355.038   4
  -1   1   6 15977.2 475.912   6
  -1   1   5 141806. 1174.21   6
  -1   1   5 140464. 737.222   8
   1  -1  -5 124594. 816.494   4
  -1   1   5 132448. 878.094   2
   1  -1  -5 124868. 856.222   8
   1  -1  -5 126946. 915.957   2
   1  -1  -5 135460. 1049.87   6
  -1   1   4 803.315 176.574   6
   1  -1  -4 522.802 146.239   6
   1  -1  -4 611.155 107.980   2
  -1   1   4 609.938 96.3256   2
  -1   1   4 704.052 83.5405   8
   1  -1  -4 670.656 101.103   8
   1  -1  -4 706.575 102.081   4
  -1   1   3 294216. 1182.70   6
   1  -1  -3 289737. 1048.50   6
   1  -1  -2 6909.71 148.025   2
  -1   1   2 7143.79 167.843   6
  -1   1   2 6821.74 133.369   2
  -1   1   2 7052.83 113.589   8
  -1   1   0 166426. 1001.40   6
   1  -1   0 156833. 980.365   6
   1  -1   1 442344. 1767.65   6
  -1   1  -1 452422. 1828.76   6
   1  -1   2 160273. 713.989   3
   1  -1   2 161259. 1217.94   6
  -1   1  -2 163221. 724.312   3
  -1   1  -2 154589. 1194.00   7
  -1   1  -2 164421. 657.330   8
   1  -1   2 169533. 693.528   8
  -1   1  -2 156106. 662.918  11
   1  -1   2 151842. 830.613   5
  -1   1  -2 159128. 1257.79   6
  -1   1  -2 158011. 544.483   1
   1  -1   2 166338. 1102.91   7
   1  -1   2 168493. 682.430  11
   1  -1   3 239701. 1629.95   6
   1  -1   3 257074. 1006.08   8
   1  -1   3 250445. 1530.75   4
   1  -1   3 249264. 885.651  11
  -1   1  -3 251085. 937.905   8
  -1   1  -3 235526. 1035.24   3
   1  -1   3 239227. 969.110   2
   1  -1   3 263076. 1639.64   7
  -1   1  -3 244045. 1723.67   6
   1  -1   3 232912. 976.311   3
  -1   1  -4 670222. 3161.60   6
   1  -1   4 691324. 2815.10   4
  -1   1  -5 16098.1 320.813  11
  -1   1  -5 19338.1 661.148   6
   1  -1   5 18569.6 613.650   6
   1  -1   5 18086.2 356.456   8
   1  -1   5 16300.7 180.935   1
   1  -1   5 17182.7 343.268   2
   1  -1   5 20081.7 537.918   4
  -1   1  -5 13979.6 180.682   1
  -1   1  -5 18692.1 410.098   3
   1  -1   5 15726.3 335.665   3
  -1   1  -5 17811.0 329.879   8
   1  -1   5 17378.7 299.784  11
   1  -1   6 461251. 2441.43   4
   1  -1   6 448988. 1572.04  11
  -1   1  -6 438005. 2812.25   6
   1  -1   6 442696. 1715.50   8
  -1   1  -6 424826. 1696.21  11
  -1   1  -6 476419. 2110.14   3
   1  -1   6 445659. 1818.82   2
   1  -1   7 2046.07 286.230   4
   1  -1   7 1686.71 173.448   2
  -1   1  -7 2035.32 193.845  11
   1  -1   7 1611.25 189.751   8
  -1   1  -7 1557.60 388.562   6
   1  -1   7 1431.44 73.6613   1
   1  -1   8 167009. 613.036   1
   1  -1   8 186797. 1333.39   2
   1  -1   8 184188. 1247.08   8
  -1   1  -8 197393. 2161.92   6
   1  -1   8 212468. 1823.38   4
  -1   1  -8 174417. 1287.91  11
  -1   1  -9 7494.17 342.350  11
  -1   1  -9 8075.57 619.785   6
   1  -1   9 6819.40 312.764   8
   1  -1   9 6410.03 132.832   1
   1  -1   9 9430.79 375.605   2
   1  -1   9 8792.58 443.045   4
  -1   1 -10 76707.4 1549.60   6
   1  -1  10 80797.0 1028.09   2
   1  -1  10 78749.1 1181.14   4
   1  -1  11 21064.0 553.775   8
   1  -1  11 22782.2 583.020   2
   1  -1  11 24174.8 750.972   4
  -1   1 -11 22825.5 981.783   6
  -1   1 -12 30282.0 1144.70   6
   1  -1  12 30633.5 709.358   8
   1  -1  12 31236.2 709.413   2
   1  -1  13 28965.0 706.349   8
  -1   1 -13 30157.3 1249.15   6
   1  -1  14 16290.4 678.727   4
   1  -1  14 16235.6 609.028   2
  -1   0  14 34212.8 828.601   2
  -1   0  14 26248.4 690.657   8
  -1   0  13 77433.0 1127.27   2
   1   0 -13 73317.7 1476.56   6
   1   0 -12 15957.2 758.335   6
  -1   0  12 15140.2 511.664   2
  -1   0  12 14360.4 458.853   8
  -1   0  11 167196. 1477.76   2
   1   0 -11 167773. 1943.07   6
  -1   0  10 545.992 205.231   2
  -1   0  10 504.598 193.375   8
   1   0 -10 623.632 376.765   6
  -1   0   9 289554. 1227.91   1
   1   0  -9 261570. 2101.56   6
  -1   0   9 276236. 1772.36   2
  -1   0   9 251068. 1462.38   8
  -1   0   9 284149. 1523.56   4
   1   0  -8-71.0451 271.149   6
  -1   0   8 344.942 153.228   4
  -1   0   8 411.216 162.543   2
  -1   0   8 526.623 131.654   1
  -1   0   8 414.487 309.836   6
  -1   0   8 398.808 150.817   8
   1   0  -7 268834. 1904.48   6
  -1   0   7 279762. 1987.63   6
  -1   0   7 290618. 1428.88   8
  -1   0   7 264048. 1353.96  11
  -1   0   7 297078. 1389.99   4
  -1   0   7 277793. 1521.90   2
  -1   0   6 22922.8 374.802  11
  -1   0   6 20218.7 346.243   8
  -1   0   6 18636.1 386.150   3
   1   0  -6 21765.0 524.590   6
  -1   0   6 22487.9 553.349   6
  -1   0   6 23126.1 375.541   4
   1   0  -6 20202.5 416.931   8
  -1   0   6 20291.0 394.635   2
  -1   0   5 126625. 878.688   3
  -1   0   5 138040. 907.645   2
   1   0  -5 127334. 898.925   8
   1   0  -5 134651. 1059.45   6
  -1   0   5 146938. 788.839   4
  -1   0   5 139600. 841.889  11
  -1   0   5 141639. 1140.26   6
  -1   0   5 129585. 798.643   8
  -1   0   4 56198.9 506.902   8
  -1   0   4 53074.9 513.672   3
  -1   0   4 57495.6 531.843   2
   1   0  -4 51539.8 498.632   8
  -1   0   4 59357.7 637.890   6
  -1   0   4 60202.7 422.770   4
   1   0  -4 58400.7 611.142   6
  -1   0   3 93487.9 580.818   3
  -1   0   3 99080.6 607.762   8
   1   0  -3 95587.5 584.725   3
  -1   0   3 99470.8 590.678   2
   1   0  -3 99074.4 624.227   8
  -1   0   3 99166.4 399.070   4
   1   0  -3 102436. 624.769   6
  -1   0   0 4158.97 135.401   6
  -1   0   0 5037.18 142.231   7
   1   0   1 690.385 44.8364   2
   1   0   1 994.453 74.1914  11
   1   0   1 748.586 61.6456   9
  -1   0  -1 585.135 62.2009   9
   1   0   1 635.059 56.9501   3
  -1   0  -1 522.105 43.6623   2
   1   0   1 1080.11 155.590   7
  -1   0  -1 986.872 76.7798  11
   1   0   1 735.271 141.385   6
  -1   0  -1 607.022 58.8391   1
   1   0   1 863.556 105.979   4
  -1   0  -1 517.279 106.066   4
   1   0   1 704.108 54.9967   1
  -1   0  -1 645.150 144.901   6
   1   0   2 671990. 2252.23   6
  -1   0  -3 20848.8 229.264   1
   1   0   3 22332.7 302.155   8
   1   0   3 22373.4 557.675   6
   1   0   3 20984.5 217.923   1
  -1   0  -3 22802.7 328.257  11
  -1   0  -3 20698.6 508.156   6
   1   0   3 19633.5 270.207   2
   1   0   3 19962.1 390.500   4
  -1   0  -3 20194.3 417.690   4
   1   0   3 22588.7 295.656  11
  -1   0  -3 21144.0 289.249   8
  -1   0  -3 17504.0 261.806   2
   1   0   3 18667.2 297.349   3
  -1   0  -4 497953. 2440.46   6
   1   0   4 502686. 1988.30   4
  -1   0  -4 477204. 1542.05   2
   1   0   4 477833. 1641.18   3
   1   0   4 500013. 2488.84   6
  -1   0  -4 504802. 2159.44   4
  -1   0  -5 21172.4 320.878   1
   1   0   5 23734.5 388.554   8
  -1   0  -5 24594.1 670.754   6
   1   0   5 23601.4 379.049  11
  -1   0  -5 21523.2 389.885   2
   1   0   5 22451.7 419.936   3
  -1   0  -5 23503.4 418.116  11
  -1   0  -5 23836.3 376.051   8
   1   0   5 23907.0 494.818   4
   1   0   5 25084.7 271.511   1
   1   0   5 23129.3 379.784   2
   1   0   5 23056.8 660.044   6
  -1   0  -5 22877.0 551.585   4
  -1   0  -6 181041. 1201.49  11
   1   0   6 181896. 1112.12   8
  -1   0  -6 170584. 1541.09   4
  -1   0  -6 188002. 1853.41   6
   1   0   6 185624. 1378.42   4
   1   0   6 174957. 1100.46   2
   1   0   6 185328. 758.642   1
   1   0   7 78594.8 521.992   1
   1   0   7 79426.3 974.129   4
   1   0   7 76421.5 783.814   2
   1   0   7 78137.1 761.710   8
  -1   0  -7 78653.8 1270.78   6
  -1   0  -7 76755.7 860.396  11
   1   0   8 80166.4 822.023   8
  -1   0  -8 80714.6 1354.58   6
   1   0   8 84720.1 1078.77   4
   1   0   8 76478.0 837.608   2
   1   0   8 79893.3 564.323   1
  -1   0  -8 76144.4 931.936  11
   1   0   9 43316.4 425.467   1
  -1   0  -9 48102.5 1136.12   6
   1   0   9 51065.8 736.239   8
   1   0   9 46786.4 696.533   2
   1   0   9 52670.8 884.701   4
  -1   0 -10 16288.9 784.655   6
   1   0  10 15860.7 477.290   2
   1   0  10 14755.3 450.276   8
   1   0  11 84298.7 1059.04   2
  -1   0 -11 83565.7 1644.66   6
   1   0  12 4453.56 346.348   2
  -1   0 -12 4659.11 667.688   6
  -1   0 -13 56704.8 1589.41   6
   1   0  13 58997.5 1006.35   2
  -1  -1  14 477.030 282.876   8
  -1  -1  14 514.843 302.116   2
   1   1 -14 120.345 560.677   6
  -1  -1  13 142589. 1591.17   2
   1   1 -13 129774. 1972.84   6
  -1  -1  12 11318.5 493.016   2
  -1  -1  12 10585.1 450.183   4
   1   1 -11 147965. 1963.94   6
  -1  -1  11 156030. 1460.86   4
  -1  -1  10 14610.0 465.935   4
   1   1 -10 14303.5 687.942   6
  -1  -1  10 14502.6 471.728   2
  -1  -1   9 155965. 1346.84   2
   1   1  -9 149448. 1734.37   6
  -1  -1   9 151932. 1281.72   4
  -1  -1   9 128313. 1068.82   8
   1   1  -8 34741.7 646.510   3
  -1  -1   8 31640.5 277.822   1
  -1  -1   8 31107.0 518.839   8
  -1  -1   8 30337.0 581.105   2
  -1  -1   8 33564.9 838.086   6
   1   1  -8 36009.8 844.516   6
  -1  -1   8 38042.3 656.128   4
  -1  -1   8 32360.1 447.900  11
  -1  -1   8 30281.6 259.940   1
  -1  -1   7 30538.9 735.764   6
   1   1  -7 32202.8 584.571   3
  -1  -1   7 27007.6 474.825   8
  -1  -1   7 29673.1 396.911  11
  -1  -1   7 29585.6 521.390   2
   1   1  -7 31386.3 748.714   6
  -1  -1   7 28489.5 244.606   1
  -1  -1   7 31061.1 555.148   4
  -1  -1   6 116383. 701.101  11
  -1  -1   6 106206. 860.886   3
  -1  -1   6 122185. 1012.05   4
   1   1  -6 105663. 935.404   8
   1   1  -6 127951. 1337.35   6
   1   1  -6 118457. 985.824   3
  -1  -1   6 106109. 854.102   8
  -1  -1   6 125102. 1031.10   2
  -1  -1   6 122699. 1284.07   6
  -1  -1   6 108413. 446.602   1
   1   1  -5 68002.9 699.701   8
  -1  -1   5 74596.3 511.590  11
   1   1  -5 77459.4 743.248   3
  -1  -1   5 80876.3 994.836   6
   1   1  -5 74419.8 918.590   6
  -1  -1   5 66602.3 656.859   8
  -1  -1   5 69375.6 626.293   3
  -1  -1   5 70659.6 343.389   1
   1   1  -4 164574. 1222.57   6
   1   1  -4 150061. 872.469   3
   1   1  -4 145690. 959.181   8
  -1  -1   4 152506. 929.735   8
  -1  -1   4 150045. 853.536   3
  -1  -1   4 159870. 639.438  11
  -1  -1   4 161638. 1237.94   6
  -1  -1   3 83548.6 597.929   8
  -1  -1   3 79926.9 833.521   6
  -1  -1   3 82586.4 557.756   3
   1   1  -3 83071.9 823.466   6
   1   1  -3 82624.5 572.678   3
  -1  -1   3 79399.9 328.761   1
   1   1  -3 81383.7 642.100   8
   1   1  -3 82578.4 397.651   1
  -1  -1   2 762120. 2256.75   6
  -1  -1   1 911.763 63.2432   1
   1   1  -1 804.788 47.5886  11
   1   1  -1 851.028 72.9828   3
  -1  -1   1 1074.90 45.5151  11
  -1  -1   1 872.932 81.1605   9
   1   1  -1 1221.98 70.4049   1
   1   1  -1 928.553 84.7592   9
  -1  -1   1 975.318 73.8437   3
   1   1  -1 919.200 192.458   6
  -1  -1  -1 24602.2 245.004   2
   1   1   1 28499.3 283.491  11
   1   1   1 27992.3 276.613   1
  -1  -1  -1 23765.7 291.141   4
  -1  -1  -1 27341.3 284.403  11
   1   1   1 23881.6 412.956   6
   1   1   1 25320.2 270.098   9
   1   1   1 24396.8 245.833  10
  -1  -1  -1 22614.5 386.647   6
   1   1   1 24689.4 234.626   2
  -1  -1  -1 26122.1 269.249   9
  -1  -1  -1 27662.1 281.061   1
   1   1   2 608829. 2209.85   6
   1   1   3 212689. 903.157   2
  -1  -1  -3 217841. 1195.02   4
  -1  -1  -3 219281. 977.314   1
  -1  -1  -3 211468. 943.138   2
  -1  -1  -3 230926. 1106.39  11
   1   1   3 236182. 875.926   1
  -1  -1  -3 226378. 887.295   8
   1   1   3 236657. 1036.52  11
  -1  -1  -3 217544. 1502.00   6
   1   1   3 213969. 925.699   9
   1   1   3 226002. 1581.39   6
   1   1   4 247917. 1168.82  11
  -1  -1  -4 232297. 1689.33   6
  -1  -1  -4 249073. 1282.77  11
   1   1   4 231136. 1078.91   9
  -1  -1  -4 216017. 1360.84   4
   1   1   4 230339. 1716.61   6
   1   1   4 220121. 1025.13   2
  -1  -1  -4 214967. 1136.14   1
  -1  -1  -4 250757. 1048.00   8
   1   1   4 245774. 947.371   1
  -1  -1  -4 208087. 1059.31   2
  -1  -1  -5 119368. 1131.20   4
   1   1   5 120303. 1358.54   6
   1   1   5 131976. 744.448   1
   1   1   5 121889. 859.323   2
   1   1   5 125798. 976.483   4
  -1  -1  -5 128177. 1011.72  11
  -1  -1  -5 123003. 1331.31   6
   1   1   5 119279. 861.625   9
  -1  -1  -5 128890. 810.981   8
  -1  -1  -6 29925.4 553.623  11
  -1  -1  -6 29692.4 743.499   6
   1   1   6 30382.7 392.213   1
   1   1   6 28382.4 462.138   2
   1   1   6 28279.0 472.307   9
   1   1   7 101083. 724.905   1
  -1  -1  -7 101590. 1407.53   6
   1   1   7 102356. 918.272   2
   1   1   7 101953. 942.824   9
  -1  -1  -8 19344.4 725.950   6
   1   1   8 18367.2 450.228   9
   1   1   8 18992.9 449.667   2
   1   1   9 62320.2 831.760   2
  -1  -1  -9 61300.2 1259.03   6
   1   1  10 1990.93 255.564   9
  -1  -1 -10 2395.62 498.696   6
   1   1  10 2729.75 256.661   2
  -1  -1 -11 104480. 1763.58   6
   1   1  11 100748. 1157.59   2
  -1  -1 -12 1211.70 554.144   6
   1   1  12 1204.58 263.600   2
   1   1  12 607.692 273.419   9
   1   1  13 106775. 1326.66   2
  -1  -1 -13 117311. 2228.13   6
  -1  -2  14 16277.3 567.497   8
   1   2 -14 15821.3 948.118   6
  -1  -2  13 72270.5 1163.37   4
  -1  -2  13 71080.0 1156.50   2
   1   2 -12 59764.0 1405.30   6
  -1  -2  12 60140.5 1000.14   2
  -1  -2  11 78286.2 1080.93   2
   1   2 -11 78371.8 1516.87   6
  -1  -2  10 34023.5 615.733   8
  -1  -2  10 39652.1 839.039   4
   1   2 -10 42910.9 863.700   3
  -1  -2  10 40504.2 775.133   2
   1   2 -10 36895.2 1040.56   6
  -1  -2   9 63618.8 894.115   2
   1   2  -9 68960.5 996.602   3
  -1  -2   9 67881.8 1059.38   4
  -1  -2   9 53894.5 550.577  11
  -1  -2   9 57645.4 783.437   8
   1   2  -9 61583.9 1249.97   6
   1   2  -8 90060.2 1405.70   6
  -1  -2   8 84582.2 899.232   8
  -1  -2   8 94684.9 1044.01   2
   1   2  -8 102518. 1135.88   3
  -1  -2   8 100165. 1244.28   4
  -1  -2   8 89788.5 633.943  11
  -1  -2   7 15989.4 653.746   6
  -1  -2   7 15290.2 251.111  11
   1   2  -7 15179.4 623.298   6
   1   2  -7 16527.2 443.109   3
  -1  -2   7 14982.7 384.664   8
  -1  -2   6 231562. 806.277  11
   1   2  -6 232626. 1393.03   3
  -1  -2   6 228770. 1330.94   8
  -1  -2   5 42.0119 129.817   3
  -1  -2   5 148.813 320.317   6
   1   2  -5 188.114 52.9889   1
   1   2  -5 135.219 155.198   8
  -1  -2   5 56.5625 41.1893   1
   1   2  -5 138.104 147.976   3
  -1  -2   5 116.842 57.6117  11
  -1  -2   5-28.3805 138.439   8
   1   2  -5 162.929 312.915   6
   1   2  -4 410185. 1628.93   3
  -1  -2   4 392383. 2395.21   6
   1   2  -4 378335. 1690.51   8
   1   2  -4 388336. 2342.63   6
  -1  -2   4 387024. 1704.24   9
  -1  -2   4 404298. 1577.16   8
  -1  -2   4 394670. 1478.25   3
  -1  -2   3 84268.8 1108.21   6
  -1  -2   3 86659.4 446.817   1
  -1  -2   3 79870.6 673.803   3
  -1  -2   3 82152.6 653.274   8
  -1  -2   3 82938.3 535.466   7
   1   2  -3 84457.5 1091.50   6
  -1  -2   3 78077.4 694.775   9
   1   2  -3 81908.8 678.967   8
   1   2  -3 86878.1 454.302   1
  -1  -2   2 980817. 3512.00   6
   1   2  -2 999999. 3463.61   6
  -1  -2   1 397636. 2289.32   6
   1   2  -1 388574. 2114.98   6
   1   2   0 296925. 1015.05   9
   1   2   0 311112. 1454.06   6
   1   2   1 125523. 726.182   1
   1   2   1 111318. 623.075   9
  -1  -2  -1 119868. 666.066  10
   1   2   1 121665. 690.830  11
  -1  -2  -1 121073. 639.321   9
   1   2   1 114490. 975.358   6
  -1  -2  -1 117838. 721.552  11
   1   2   1 114332. 638.788   2
  -1  -2  -1 124048. 784.084   1
  -1  -2  -1 116005. 619.538   2
  -1  -2  -1 105469. 869.797   6
   1   2   2 140769. 820.716   1
   1   2   2 131152. 1182.61   6
  -1  -2  -2 131777. 858.133  11
   1   2   2 121084. 678.003   2
   1   2   2 122867. 720.382  10
  -1  -2  -2 123848. 1036.37   6
  -1  -2  -2 129138. 695.226   9
   1   2   2 123091. 709.886   9
  -1  -2  -2 125135. 715.527   2
  -1  -2  -2 130778. 887.039   1
   1   2   2 131840. 804.979  11
   1   2   3 285221. 1234.12   1
   1   2   3 261620. 1093.12   9
  -1  -2  -3 247128. 1380.56   1
   1   2   3 259073. 1135.17  10
  -1  -2  -3 258554. 1626.46   6
  -1  -2  -3 270386. 1182.50   2
  -1  -2  -3 272279. 989.130   8
   1   2   3 251351. 1059.30   2
   1   2   3 274192. 1270.30  11
  -1  -2  -3 251445. 1273.03   4
   1   2   3 265788. 1811.66   6
  -1  -2  -4 12333.7 354.910   1
   1   2   4 13907.4 292.998   9
  -1  -2  -4 15736.5 288.226   8
   1   2   4 13750.2 295.839   2
  -1  -2  -4 14720.4 476.147   6
  -1  -2  -4 13450.6 376.916   4
   1   2   4 14499.6 514.915   6
   1   2   4 14478.5 307.769   1
   1   2   5 167160. 1022.55   2
   1   2   5 168062. 1031.49   9
  -1  -2  -5 163213. 894.539   8
  -1  -2  -5 164664. 1526.53   6
  -1  -2  -6 320.784 293.065   6
   1   2   6 118.303 131.422   9
   1   2   6 131.851 125.812   2
   1   2   7 104439. 940.711   2
   1   2   7 98888.9 903.542   9
   1   2   8 4451.28 264.853   9
   1   2   8 4997.35 266.134   2
  -1  -2  -8 4876.83 451.471   6
  -1  -2  -9 165709. 1978.68   6
   1   2   9 163883. 1314.55   2
  -1  -2 -10 37146.1 1028.26   6
   1   2  10 37536.1 701.393   2
  -1  -2 -11 84034.3 1580.14   6
   1   2  11 81955.3 1042.79   2
  -1  -2 -12 37177.4 1150.47   6
   1   2  12 38119.5 764.786   2
   1   3 -14 44903.6 1466.76   6
  -1  -3  14 43837.2 893.211   8
  -1  -3  13 23192.8 720.746   2
  -1  -3  13 22663.0 627.664   8
   1   3 -13 21013.0 1036.07   6
  -1  -3  12 65148.6 1237.18   4
   1   3 -12 61493.5 1513.49   6
  -1  -3  12 67886.2 1126.11   2
  -1  -3  12 60577.2 929.781   8
  -1  -3  11 12443.1 448.889   8
   1   3 -11 14393.6 869.730   6
  -1  -3  11 14874.2 665.517   4
  -1  -3  11 14923.6 528.273   2
  -1  -3  10 101685. 1503.65   4
  -1  -3  10 93286.0 1033.36   8
   1   3 -10 110358. 1375.87   3
  -1  -3  10 99113.8 1245.68   2
   1   3 -10 88512.4 1613.33   6
  -1  -3   9 1725.13 233.667   8
  -1  -3   9 1668.83 134.229  11
   1   3  -9 2163.70 477.055   6
   1   3  -9 2263.72 278.213   3
  -1  -3   8 153367. 740.601  11
   1   3  -8 147897. 1980.85   6
  -1  -3   8 149879. 1202.79   8
   1   3  -7 36991.7 1007.01   6
  -1  -3   7 38335.4 320.907  11
  -1  -3   7 37455.6 776.215   7
  -1  -3   7 37928.6 603.907   8
   1   3  -7 38223.7 668.688   3
   1   3  -6 238756. 1536.70   3
   1   3  -6 217067. 2149.00   6
   1   3  -6 227596. 726.114   1
  -1  -3   6 211029. 642.627  11
  -1  -3   6 241052. 1450.61   8
  -1  -3   6 213576. 2208.51   6
  -1  -3   6 237276. 1523.40   7
  -1  -3   5 124592. 1642.62   6
   1   3  -5 135329. 610.876   1
  -1  -3   5 119365. 1059.55   9
  -1  -3   5 141133. 728.786   1
  -1  -3   5 137682. 1003.26   7
   1   3  -5 124390. 1075.50   3
   1   3  -5 135433. 1706.62   6
  -1  -3   5 136099. 1064.06   8
   1   3  -5 122404. 1116.90   8
   1   3  -4 292247. 2408.58   6
  -1  -3   4 280190. 1431.64   3
  -1  -3   4 271821. 2382.65   6
  -1  -3   4 259627. 1467.80   9
  -1  -3   4 295378. 1437.21   8
   1   3  -4 283941. 957.978   1
   1   3  -4 272510. 1434.81   8
  -1  -3   4 306497. 1107.39   1
   1   3  -4 257197. 1422.76   3
  -1  -3   4 283240. 1226.21   7
   1   3  -3 360478. 1433.02   7
  -1  -3   3 350142. 1442.74   3
   1   3  -3 380716. 1658.48   3
  -1  -3   3 397949. 1537.81   8
  -1  -3   3 361391. 1075.64   7
   1   3  -3 399510. 2667.48   6
  -1  -3   3 380832. 1689.31   9
  -1  -3   3 379673. 2718.48   6
   1   3  -3 378188. 1192.32   1
  -1  -3   2 143142. 887.296   8
  -1  -3   2 144154. 945.497   9
   1   3  -2 151662. 960.657   9
  -1  -3   2 153792. 895.993   1
  -1  -3   2 142453. 894.145   3
  -1  -3   2 145852. 645.208   7
   1   3  -2 149036. 1640.96   6
  -1  -3   2 148546. 1707.88   6
   1   3  -2 152992. 538.526  11
   1   3  -2 142306. 640.559   7
   1   3  -2 144506. 806.139   1
   1   3  -2 145223. 920.901   3
  -1  -3   1 284971. 1221.50   9
   1   3  -1 278087. 1160.92   3
  -1  -3   1 285135. 1124.39   2
   1   3  -1 279081. 1229.47   9
   1   3  -1 267319. 1153.01   1
   1   3  -1 272030. 2188.18   6
   1   3  -1 273682. 940.392   7
  -1  -3   1 284064. 2416.15   6
  -1  -3   0 18630.9 381.311   1
   1   3   0 17427.7 300.666   9
  -1  -3   0 18834.9 308.377   9
   1   3   0 20672.7 318.171  11
   1   3   0 18651.9 681.683   6
   1   3   0 15733.3 300.836   2
   1   3   0 18477.0 333.909   1
   1   3   0 19356.2 473.369   6
  -1  -3   0 19602.6 315.546   2
   1   3   0 17021.6 305.144   3
   1   3   1 365360. 1498.37   1
   1   3   1 379642. 2069.76   6
  -1  -3  -1 378181. 1340.47   2
   1   3   1 355507. 1278.44   9
  -1  -3  -1 376056. 1244.18   9
   1   3   1 395342. 1452.61  11
  -1  -3  -1 377709. 1736.97   1
  -1  -3  -1 382944. 1414.75  10
   1   3   2 27.4854 235.931   6
   1   3   2 145.610 127.926  11
  -1  -3  -2 135.450 95.3218   9
   1   3   2-39.4890 125.613   1
  -1  -3  -2 140.252 102.054   2
  -1  -3  -2-61.8004 187.247   6
  -1  -3  -2 184.814 159.485   1
   1   3   2 33.3913 89.6926   9
   1   3   2 111.806 97.6240   2
  -1  -3  -3 185570. 1402.88   1
  -1  -3  -3 189793. 1468.28   6
   1   3   3 186952. 985.923   9
   1   3   4 26493.9 413.438   2
   1   3   4 25855.5 391.352   9
   1   3   5 107487. 870.950   2
   1   3   5 105610. 842.780   9
   1   3   5 108598. 894.613  10
   1   3   6 31254.1 531.675  10
   1   3   6 29701.4 481.818   9
   1   3   6 30706.4 504.255   2
   1   3   7 59927.4 762.711  10
   1   3   7 60366.8 738.009   9
  -1  -3  -7 60015.8 1051.91   6
   1   3   8 113779. 1103.58  10
   1   3   8 114276. 1070.09   9
   1   3   8 112895. 1063.89   2
  -1  -3  -8 112630. 1512.04   6
   1   3   9 73694.5 927.379   2
   1   3   9 73298.6 942.381  10
   1   3   9 70795.5 908.983   9
   1   3  10 75696.8 1016.97  10
   1   3  10 74544.0 988.763   9
  -1  -3 -10 76872.4 1380.59   6
   1   3  11 22109.4 609.556   9
   1   3  11 22143.4 631.832  10
   1   3  11 22771.5 605.902   2
  -1  -3 -12 58635.5 1418.05   6
   1   3  12 55258.4 985.195  10
   1   3  12 57135.1 953.585   2
  -1  -4  14 55306.4 1000.43   8
  -1  -4  14 56277.5 1144.80   2
   1   4 -13 454.548 458.160   3
   1   4 -13 408.643 662.119   6
  -1  -4  13 283.630 278.878   2
  -1  -4  13 1125.83 455.003   4
  -1  -4  13 638.100 281.862   8
  -1  -4  12 50230.4 1013.43   2
  -1  -4  12 49827.8 869.950   8
  -1  -4  12 43897.3 1147.65   4
   1   4 -12 44045.0 1468.09   6
   1   4 -12 55644.5 1137.56   3
  -1  -4  11 3332.15 338.140   2
   1   4 -11 4108.17 660.343   6
  -1  -4  11 3071.41 489.902   4
   1   4 -11 4265.09 418.264   3
  -1  -4  11 3867.51 336.146   8
   1   4 -10 65389.4 1065.56   3
  -1  -4  10 62097.6 853.492   8
   1   4  -9 38943.1 802.598   3
  -1  -4   9 39631.6 702.494   8
   1   4  -8 78086.1 1050.05   3
  -1  -4   8 81133.8 942.631   8
  -1  -4   8 67756.9 457.885  11
  -1  -4   8 76915.1 1012.74   7
   1   4  -8 70872.8 1501.96   6
   1   4  -7 178621. 1485.22   3
   1   4  -7 187020. 2267.57   6
  -1  -4   7 204961. 1426.94   8
   1   4  -7 193461. 765.070   1
  -1  -4   7 207642. 1481.95   7
   1   4  -6 75278.5 1483.68   6
   1   4  -6 70269.6 526.322   1
   1   4  -6 67561.9 906.339   3
  -1  -4   6 73401.7 822.887   8
  -1  -4   6 78969.2 854.770   7
   1   4  -5 334798. 2910.29   6
  -1  -4   5 334208. 1690.44   8
  -1  -4   5 337963. 1428.69   7
   1   4  -4 80265.0 1466.83   6
   1   4  -4 79390.9 870.396   3
  -1  -4   4 82029.5 651.706   7
  -1  -4   4 81596.9 798.762   8
  -1  -4   4 78087.5 926.678   9
   1   4  -3 355377. 1372.44   7
  -1  -4   3 364014. 1624.63   1
   1   4  -3 324228. 1344.14   1
   1   4  -3 345740. 881.261  11
   1   4  -3 350542. 2899.66   6
  -1  -4   3 337090. 1694.94   9
  -1  -4   3 337612. 1207.61   7
  -1  -4   3 355533. 1522.19   8
   1   4  -3 370521. 1824.01   3
   1   4  -2 826.666 119.669   7
   1   4  -2 1095.60 144.960   1
  -1  -4   2 875.034 145.930   9
   1   4  -2 809.910 414.523   6
   1   4  -2 947.619 98.4151  11
   1   4  -2 751.728 147.858   3
   1   4  -2 619.974 136.592   9
  -1  -4   2 548.049 136.525   8
  -1  -4   2 860.833 172.195   1
  -1  -4   1 140496. 1118.12   1
  -1  -4   1 138176. 917.469   9
   1   4  -1 138858. 958.812   9
   1   4  -1 144928. 832.711  11
   1   4  -1 131886. 1754.05   6
   1   4  -1 137663. 936.505   3
   1   4  -1 137666. 811.052   7
   1   4   0 23496.6 392.115   7
   1   4   0 22884.1 384.096   9
   1   4   0 25297.5 399.152  11
   1   4   0 22509.3 806.510   6
   1   4   0 23650.5 397.522   3
  -1  -4   0 26411.4 395.966   9
  -1  -4   0 25612.7 537.933   1
   1   4   1 113541. 808.402   2
  -1  -4  -1 129756. 805.572   9
   1   4   1 119629. 845.616   9
   1   4   1 127434. 928.956  11
   1   4   1 116125. 1747.42   6
   1   4   2 29907.4 433.166   9
   1   4   2 27983.8 437.493   2
   1   4   2 28195.7 945.958   6
   1   4   3 52664.1 608.821   2
   1   4   3 52246.2 574.279   9
  -1  -4  -4 107532. 1189.04   6
   1   4   4 109712. 890.160   2
   1   4   5 55054.3 662.312   2
   1   4   5 57415.2 661.523   9
   1   4   6 94515.0 952.158  10
   1   4   6 94133.9 903.855   9
   1   4   6 96238.0 927.514   2
   1   4   7 56553.4 785.672  10
   1   4   7 56620.9 738.035   2
   1   4   8 152433. 1253.19   2
   1   4   8 153308. 1315.82  10
   1   4   8 149110. 1230.89   9
   1   4   9 4099.85 321.715  10
   1   4   9 4283.81 296.643   9
   1   4   9 4235.17 291.114   2
  -1  -4  -9 5087.78 496.049   6
   1   4  10 78047.3 1051.85  10
   1   4  10 80653.2 1024.35   2
   1   4  11 591.631 273.336  10
   1   4  11 876.714 248.576   2
  -1  -4 -11 92.8090 488.808   6
   1   4  11 360.253 250.523   9
  -1  -5  14 33268.2 910.961   2
  -1  -5  14 34594.4 824.751   8
   1   5 -14 35725.4 1087.37   3
   1   5 -13 5792.32 877.566   6
  -1  -5  13 7017.43 496.865   2
   1   5 -13 7928.66 582.007   3
  -1  -5  13 6809.36 441.727   8
  -1  -5  13 5847.64 677.600   4
   1   5 -12 38806.8 982.281   3
  -1  -5  12 39276.8 921.085   2
   1   5 -12 37695.2 1408.61   6
   1   5 -11 60095.1 1671.41   6
   1   5 -11 56397.6 1079.99   3
   1   5 -10 18992.5 633.945   3
   1   5 -10 17895.1 1018.81   6
   1   5  -9 167811. 1654.23   3
   1   5  -9 179268. 2524.31   6
   1   5  -8 21447.2 612.777   3
   1   5  -8 22228.3 1003.64   6
   1   5  -8 20836.5 292.342   1
  -1  -5   8 22647.8 567.179   7
   1   5  -7 277974. 3041.70   6
  -1  -5   7 274526. 1684.98   8
   1   5  -7 275032. 1999.20   3
  -1  -5   7 279202. 1639.88   7
   1   5  -6 44.2847 231.889   3
   1   5  -6 152.486 106.896   1
  -1  -5   6-135.210 168.376   8
  -1  -5   6 26.9719 155.741   7
   1   5  -6-64.8477 485.170   6
  -1  -5   5 250815. 1280.79   7
  -1  -5   5 255604. 1558.07   8
   1   5  -5 241196. 1201.27   1
   1   5  -5 240421. 2743.16   6
   1   5  -4 5483.17 266.423   7
   1   5  -4 4788.01 110.211  11
   1   5  -4 5287.56 311.164   3
  -1  -5   4 5062.93 213.875   7
   1   5  -4 4798.16 220.894   1
  -1  -5   4 5190.78 260.711   8
   1   5  -4 4726.56 584.621   6
   1   5  -4 5262.72 118.299  11
   1   5  -3 83781.7 560.560  11
  -1  -5   3 81216.7 774.523   8
   1   5  -3 80589.3 1585.99   6
   1   5  -3 85100.3 775.767   7
   1   5  -3 82406.7 930.050   3
   1   5  -2 50921.9 654.431   3
  -1  -5   2 53559.5 648.142   8
   1   5  -2 52848.3 669.345   9
  -1  -5   2 53238.4 681.423   9
   1   5  -2 53207.7 515.162  11
   1   5  -2 51833.2 1291.25   6
  -1  -5   1 94913.6 820.915   9
   1   5  -1 88967.6 745.577  11
   1   5  -1 88492.2 841.031   3
   1   5  -1 85179.0 1607.75   6
   1   5  -1 94210.2 785.666   7
   1   5  -1 89889.3 837.161   9
  -1  -5   1 86436.2 725.533   8
   1   5   0 70856.1 724.591  11
   1   5   0 71986.2 725.642   9
   1   5   0 68629.8 712.050   7
   1   5   0 69610.2 1462.53   6
   1   5   1 59843.9 699.712   3
   1   5   1 59567.5 694.874   2
   1   5   1 59018.9 647.914   9
   1   5   1 59799.6 729.614   7
   1   5   1 59593.5 1373.42   6
   1   5   2 125695. 2020.32   6
   1   5   2 123255. 944.101   9
   1   5   2 128303. 1135.66   7
   1   5   2 124956. 987.561   2
   1   5   3 24265.5 428.922   9
   1   5   3 25385.5 1053.12   6
   1   5   3 25611.4 485.361   2
   1   5   4 208926. 1326.55   2
   1   5   4 204834. 1213.64   9
   1   5   5 4098.85 236.784   9
   1   5   5 3862.93 237.742   2
   1   5   6 195691. 1385.03   2
   1   5   6 191098. 1326.48   9
  -1  -5  -7 1141.52 346.760   6
   1   5   7 1120.92 201.748   9
   1   5   7 1197.64 215.100   2
  -1  -5  -8 106083. 1439.30   6
   1   5   8 102096. 1078.11   9
   1   5   8 103957. 1121.58   2
  -1  -5  -9 18534.0 710.285   6
   1   5   9 17477.8 505.954   9
   1   5   9 17134.8 516.138   2
  -1  -5 -10 28257.2 887.394   6
   1   5  10 26702.8 641.287   2
  -1  -6  13 58351.0 1014.09   8
  -1  -6  13 56003.9 1169.95   2
   1   6 -12 1416.46 757.427   6
   1   6 -12 1424.38 394.374   3
  -1  -6  12 1868.10 362.237   8
   1   6 -11 97388.9 1446.90   3
   1   6 -11 106149. 2343.68   6
   1   6 -10 7920.88 490.075   3
  -1  -6  10 8647.74 415.505   8
   1   6 -10 8375.51 870.752   6
   1   6  -9 205663. 2955.87   6
   1   6  -9 203327. 1897.78   3
   1   6  -8 8072.98 466.144   3
  -1  -6   8 8778.06 376.351   8
   1   6  -8 8230.81 828.575   6
  -1  -6   7 125041. 1183.39   8
   1   6  -7 124562. 2223.16   6
   1   6  -6 32541.4 723.688   3
  -1  -6   6 33127.3 570.088   7
  -1  -6   6 31043.1 586.892   8
  -1  -6   5 66072.2 826.215   8
   1   6  -5 65980.8 1636.77   6
   1   6  -4 53597.1 1459.42   6
  -1  -6   4 57455.1 752.800   8
   1   6  -4 63875.9 805.238   7
  -1  -6   4 52266.8 685.059   7
   1   6  -4 60065.9 478.036  11
   1   6  -4 62710.4 473.650  11
   1   6  -4 65296.3 971.658   3
  -1  -6   3 15171.5 372.263   8
   1   6  -3 17602.3 508.881   3
   1   6  -3 16955.0 409.943   7
   1   6  -3 17651.1 321.275  11
   1   6  -3 15923.7 910.095   6
   1   6  -2 103050. 1007.59   3
  -1  -6   2 105133. 874.794   8
  -1  -6   1 4999.78 243.366   8
   1   6  -1 4517.54 234.707   7
   1   6  -1 4364.96 234.212  11
   1   6  -1 4363.15 248.373   9
   1   6  -1 4853.22 278.422   3
   1   6  -1 3940.19 590.440   6
  -1  -6   0 189562. 1092.30   8
   1   6   0 180806. 1253.72   7
   1   6   0 184798. 1318.29   3
  -1  -6   0 199922. 1249.32   9
   1   6   0 169775. 2424.67   6
   1   6   0 199226. 1364.00   9
   1   6   1 21.4003 140.562   9
   1   6   1 310.098 186.200   3
   1   6   1-279.074 506.609   6
   1   6   1 234.657 175.005   7
   1   6   2 236829. 1397.30   9
   1   6   2 232110. 1644.72   7
   1   6   2 234069. 2932.01   6
   1   6   3 4199.67 247.962   2
   1   6   3 4777.30 247.335   9
   1   6   3 5479.14 325.445   7
   1   6   3 4915.58 681.801   6
   1   6   4 145158. 1457.01   7
   1   6   4 141812. 2487.14   6
   1   6   4 145208. 1110.48   9
   1   6   5 13706.0 439.567   2
   1   6   5 14497.3 407.187   9
   1   6   5 14777.9 1049.38   6
   1   6   6 66147.0 875.369   2
   1   6   6 66008.5 809.593   9
   1   6   7 43343.4 770.621   2
   1   6   7 43175.1 694.129   9
   1   6   8 12679.8 472.791   2
   1   6   8 11573.4 1133.69   6
   1   6   9 32686.3 1697.13   6
   1   6   9 31889.0 698.664   2
   1   7 -12 22969.3 847.398   3
  -1  -7  12 23932.6 718.436   8
   1   7 -11 88258.7 1454.07   3
  -1  -7  11 88427.3 1161.91   8
   1   7 -10 23783.6 773.201   3
  -1  -7  10 23293.0 598.030   8
  -1  -7   9 67921.8 947.402   8
   1   7  -9 70688.2 1233.77   3
   1   7  -8 44471.7 1560.42   6
  -1  -7   8 42786.0 737.776   8
   1   7  -8 42696.6 927.595   3
   1   7  -7 16667.2 608.219   3
   1   7  -7 14894.1 1025.07   6
  -1  -7   7 14844.4 447.213   8
  -1  -7   6 55824.6 811.989   8
   1   7  -6 59829.8 1037.92   3
   1   7  -5 533.883 284.864   3
   1   7  -5 345.048 627.955   6
   1   7  -5 562.868 247.459   7
  -1  -7   5 512.480 193.953   8
  -1  -7   4 81893.9 911.050   8
   1   7  -4 81249.4 937.257   7
  -1  -7   3 392.082 174.469   8
   1   7  -3 212.395 252.686   3
   1   7  -3-362.485 572.499   6
   1   7  -3 249.185 193.653   7
   1   7  -2 132695. 1222.31   3
  -1  -7   2 134156. 1024.82   8
   1   7  -1 8429.91 333.466   9
   1   7  -1 8251.80 391.952   3
   1   7  -1 8728.65 344.919   7
  -1  -7   1 8035.38 285.755   8
  -1  -7   0 155127. 1100.26   8
   1   7   0 153670. 1266.47   7
   1   7   0 142400. 1232.44   3
   1   7   0 152711. 1196.61   9
   1   7   0 142754. 2428.39   6
   1   7   1 24739.4 580.039   3
   1   7   1 20013.1 1075.93   6
   1   7   1 21595.9 519.283   7
   1   7   1 25141.4 539.553   9
  -1  -7  -1 23154.9 435.951   8
   1   7   2 124465. 1170.04   3
   1   7   2 125197. 1261.36   7
   1   7   3 52190.5 721.493   9
   1   7   3 48855.6 859.367   7
   1   7   3 49731.6 1597.90   6
   1   7   3 52039.8 806.515   3
   1   7   4 33397.1 589.570   9
   1   7   4 33503.8 768.610   7
   1   7   4 35510.5 1452.70   6
   1   7   5 68728.5 944.137   2
   1   7   5 65208.8 1083.58   7
   1   7   5 65324.5 1891.56   6
   1   7   6 3705.91 296.864   2
   1   7   6 3327.30 394.324   7
   1   7   7 40564.0 772.243   2
   1   7   7 39146.6 982.698   7
   1   8 -11 27090.5 896.266   3
  -1  -8  11 25036.3 678.985   8
   1   8 -10 31837.7 940.790   3
  -1  -8  10 28064.3 651.816   8
   1   8  -9 4935.99 479.253   3
  -1  -8   9 4161.22 348.556   8
   1   8  -8 46726.8 1735.14   6
  -1  -8   8 44716.8 762.990   8
   1   8  -7 529.422 680.660   6
   1   8  -7 182.820 298.029   3
  -1  -8   7 256.415 226.347   8
  -1  -8   6 50172.6 749.184   8
   1   8  -6 48665.2 958.262   3
   1   8  -5 7061.78 917.280   6
   1   8  -5 6176.74 447.926   3
  -1  -8   5 7210.37 345.813   8
  -1  -8   4 92734.1 971.305   8
   1   8  -4 100363. 1355.46   3
  -1  -8   3 37567.0 628.820   8
   1   8  -3 38639.6 818.807   3
   1   8  -2 161763. 1296.43   7
   1   8  -2 164530. 1524.11   3
   1   8  -1 70968.4 880.240   7
   1   8  -1 69131.6 977.846   3
   1   8   0 57190.6 1782.05   6
   1   8   0 61294.5 828.018   9
   1   8   0 60633.3 923.493   3
   1   8   0 58648.1 841.262   7
   1   8   1 91533.9 1087.52   7
   1   8   1 94764.9 1142.50   3
   1   8   2 12999.3 479.777   7
   1   8   2 13235.0 501.104   3
   1   8   3 55258.0 939.394   7
   1   8   3 53961.0 866.587   3
   1   8   4 1202.98 283.108   2
   1   8   4 1490.30 798.054   6
   1   8   4 1456.96 319.040   7
   1   8   4 1742.58 292.466   3
   1   8   5 47250.0 871.541   3
   1   8   5 47255.1 1002.95   7
   1   8   5 44379.7 818.450   2
   1   8   5 45652.6 1807.56   6
  -1  -9   9 3966.15 337.012   8
   1   9  -9 3565.44 1050.66   6
   1   9  -9 5552.41 546.557   3
   1   9  -8 41534.6 1789.07   6
  -1  -9   8 46284.2 808.311   8
   1   9  -7 28612.8 1472.81   6
  -1  -9   7 31260.8 646.584   8
  -1  -9   6 47718.5 761.241   8
   1   9  -6 47272.3 1005.91   3
  -1  -9   5 51321.9 754.624   8
   1   9  -5 51371.8 1046.36   3
  -1  -9   4 50745.0 756.704   8
   1   9  -4 48444.0 1026.43   3
   1   9  -4 46472.4 1778.03   6
   1   9  -3 90551.2 2294.95   6
   1   9  -3 99029.0 1329.25   3
   1   9  -2 12157.3 1106.17   6
   1   9  -2 14880.8 560.508   3
   1   9  -1 55318.0 1847.34   6
   1   9  -1 61667.0 971.705   3
   1   9   0 562.719 308.094   3
   1   9   0-25.7554 739.075   6
   1   9   1 50041.1 1827.54   6
   1   9   1 58476.1 986.164   3
   1   9   2 5995.11 395.788   3
   1   9   2 4660.16 963.112   6
   1   9   3 32016.8 1626.64   6
   1   9   3 36060.1 798.153   3
   1  10  -5 68567.1 2202.58   6
   1  10  -5 78882.1 1348.79   3
   1  10  -4 4568.29 1054.77   6
   1  10  -4 3829.53 463.380   3
   1  10  -3 61567.6 1181.53   3
   1  10  -3 53830.7 1993.28   6
   1  10  -2 5324.61 480.096   3
   1  10  -2 4200.35 956.230   6
  -2  10  -1 21.0888 375.011   7
  -2  10  -1-226.085 354.637   3
  -2  10  -1-381.155 927.390   6
  -2  10  -2 72102.4 2380.69   6
  -2  10  -2 85601.2 1445.19   3
  -2  10  -3 603.015 924.379   6
  -2  10  -3 3226.63 448.496   3
  -2   9   4 59601.5 1183.26   7
  -2   9   4 64922.2 1078.16   3
  -2   9   3 514.923 285.661   3
  -2   9   3 538.962 360.159   7
  -2   9   3 923.387 837.373   6
  -2   9   2 84400.9 2347.26   6
  -2   9   2 88484.1 1316.59   7
  -2   9   1 10461.7 1126.32   6
  -2   9   1 11483.8 564.541   7
  -2   9   1 11739.0 520.007   3
  -2   9   0 60783.1 2018.44   6
  -2   9   0 58956.1 1054.37   7
  -2   9   0 62502.7 975.945   3
  -2   9  -1 15445.0 567.587   3
  -2   9  -1 15585.2 622.666   7
  -2   9  -2 55059.8 871.734  11
  -2   9  -2 54078.8 1099.91   7
  -2   9  -2 56755.3 1052.30   3
  -2   9  -3 13483.5 1166.70   6
  -2   9  -3 12048.9 571.058   3
  -2   9  -3 12113.1 609.607   7
  -2   9  -4 12528.4 632.529   7
  -2   9  -4 13441.2 1223.02   6
  -2   9  -4 15273.1 616.953   3
  -2   9  -5 33823.7 1666.54   6
  -2   9  -5 34342.9 981.570   7
  -2   9  -6 5168.37 495.014   3
  -2   9  -6 4010.35 948.345   6
  -2   9  -6 3148.58 503.757   7
  -2   9  -7 40926.7 1840.62   6
  -2   9  -7 41965.7 1066.92   5
   2  -9   7 41236.9 719.922   8
   2  -9   8 189.599 255.961   8
  -2   9  -8 215.661 400.530   3
  -2   8   6 64011.6 925.846   2
  -2   8   6 68264.0 2117.02   6
  -2   8   6 69588.1 1313.49   7
  -2   8   5 4822.30 951.933   6
  -2   8   5 5083.99 441.590   7
  -2   8   5 4041.13 314.582   2
  -2   8   5 4380.95 353.843   3
  -2   8   4 104185. 2398.54   6
  -2   8   4 105847. 1464.85   7
  -2   8   4 103197. 1169.10   3
  -2   8   4 102846. 1156.96   2
  -2   8   3 29833.0 787.759   7
  -2   8   3 28221.0 1375.94   6
  -2   8   2 67643.3 1140.40   7
  -2   8   2 66199.1 956.068   3
  -2   8   1 53997.4 861.412   3
  -2   8   1 52817.1 972.606   7
  -2   8   0 45093.4 923.123   7
  -2   8   0 41939.1 749.466   3
  -2   8  -1 41637.3 1607.89   6
  -2   8  -1 43142.7 869.825   7
  -2   8  -1 45155.8 819.064   3
  -2   8  -2 9746.14 1022.88   6
  -2   8  -2 9605.71 454.675   3
  -2   8  -2 9710.80 516.008   7
  -2   8  -2 10566.3 419.440  11
  -2   8  -3 60288.0 824.015  11
  -2   8  -3 54422.6 1754.54   6
   2  -8   3 51963.1 604.235   8
  -2   8  -3 59153.2 1138.43   7
  -2   8  -4 234.428 195.522  11
   2  -8   4 620.031 189.053   8
  -2   8  -4 91.0074 716.111   6
  -2   8  -4 98.7059 326.466   7
  -2   8  -4 489.555 297.279   3
   2  -8   5 88634.3 910.540   8
  -2   8  -5 90030.1 852.071  11
   2  -8   6 893.791 224.320   8
  -2   8  -6 758.884 362.936   3
  -2   8  -6 1601.59 423.793   7
  -2   8  -7 87738.9 2294.45   6
   2  -8   7 89381.6 1018.63   8
  -2   8  -7 89419.0 1370.45   5
  -2   8  -7 83815.5 1790.08   7
   2  -8   8 12612.6 450.761   8
  -2   8  -8 10275.6 1148.33   6
   2  -8   9 66505.3 972.372   8
  -2   8  -9 60580.3 2128.51   6
  -2   8 -10 21928.8 1523.01   6
   2  -8  10 26114.0 693.392   8
  -2   7   8 91779.9 1118.39   2
  -2   7   8 91080.8 1562.77   7
  -2   7   8 91475.5 2328.08   6
  -2   7   7 23800.3 594.150   2
  -2   7   7 24771.6 814.451   7
  -2   7   7 25631.9 1347.60   6
  -2   7   6 38664.1 705.854   2
  -2   7   6 38736.7 945.925   7
  -2   7   5 80963.4 959.514   2
  -2   7   5 81063.5 1270.08   7
  -2   7   4 45398.8 1545.63   6
  -2   7   4 45375.0 918.683   7
  -2   7   4 44072.1 732.920   3
  -2   7   3 111957. 1104.62   3
  -2   7   3 113721. 2260.33   6
  -2   7   3 110953. 1064.69   2
  -2   7   2 5123.30 377.757   7
  -2   7   2 5560.24 331.501   3
  -2   7   1 77368.0 1920.89   6
  -2   7   1 81458.5 938.347   3
  -2   7   0 5600.89 388.110   7
  -2   7   0 5554.70 338.510   3
  -2   7  -1 62211.1 1743.43   6
   2  -7   1 57376.9 486.556   8
  -2   7  -1 69673.3 1033.68   7
  -2   7  -1 69416.1 914.635   3
  -2   7  -2 2182.82 699.610   6
  -2   7  -2 2431.43 334.220   7
   2  -7   2 1786.92 157.885   8
  -2   7  -2 2357.41 258.344  11
  -2   7  -2 2268.11 291.776   3
  -2   7  -3 110324. 1050.90  11
   2  -7   3 92463.8 790.499   8
  -2   7  -3 102209. 1221.55   3
  -2   7  -3 99873.2 2154.54   6
  -2   7  -3 101926. 1394.64   7
  -2   7  -4 43735.3 637.799  11
   2  -7   4 38952.9 559.903   8
  -2   7  -4 40908.3 948.308   7
  -2   7  -4 39279.3 1494.96   6
  -2   7  -4 43218.8 834.878   3
  -2   7  -5 88480.8 2122.84   6
  -2   7  -5 88913.0 1201.03   3
   2  -7   5 78782.3 831.730   8
  -2   7  -5 83609.3 783.256  11
  -2   7  -5 82537.1 1374.38   7
  -2   7  -6 67121.9 1098.40   3
  -2   7  -6 63127.4 1880.87   6
  -2   7  -6 65589.4 1146.42   5
   2  -7   6 58297.0 761.597   8
  -2   7  -6 58607.0 1232.29   7
  -2   7  -6 66102.3 700.029  11
  -2   7  -7 83953.2 1271.16   3
  -2   7  -7 84225.5 780.780  11
   2  -7   8 112285. 1171.29   8
  -2   7  -8 105321. 2424.29   6
  -2   7  -9 16039.8 1271.13   6
   2  -7   9 18401.5 545.051   8
  -2   7 -10 50259.4 1905.17   6
   2  -7  10 52423.6 896.553   8
  -2   7 -11 284.903 379.887   3
   2  -7  11 460.919 301.475   8
  -2   7 -11 1214.47 936.781   6
  -2   6  10 35449.5 1079.17   7
  -2   6  10 32990.4 731.102   2
  -2   6   9 67775.2 919.661   2
  -2   6   9 72562.7 2031.17   6
  -2   6   8 22620.6 551.641   2
  -2   6   8 25241.6 862.323   7
  -2   6   8 26216.1 1261.00   6
  -2   6   7 87402.5 1947.37   6
  -2   6   7 85491.7 1400.92   7
  -2   6   6 4773.18 288.811   2
  -2   6   6 5107.96 426.199   7
  -2   6   6 3870.14 723.375   6
  -2   6   5 118370. 1044.86   2
  -2   6   5 124419. 1480.51   7
  -2   6   4 2479.84 644.440   6
  -2   6   4 2403.38 209.478   2
  -2   6   4 2941.95 313.074   7
  -2   6   3 91703.7 1172.11   7
  -2   6   3 93583.7 1906.34   6
  -2   6   2 572.087 157.241   2
  -2   6   2 742.320 246.774   7
  -2   6   2 974.709 545.094   6
  -2   6   2 532.105 179.260   3
  -2   6   1 66034.5 787.045   3
  -2   6   1 71443.2 1027.52   7
  -2   6   0 24516.6 509.844   3
  -2   6   0 24365.3 1091.95   6
  -2   6   0 24576.2 591.675   7
   2  -6   1 89888.4 582.371   8
   2  -6   1 92444.7 661.798   9
  -2   6  -1 99477.1 1942.89   6
  -2   6  -1 99298.0 1158.87   7
  -2   6  -1 92844.7 943.306   3
  -2   6  -2 99334.7 1967.49   6
  -2   6  -2 96893.1 933.734   8
   2  -6   2 90264.5 795.481   9
  -2   6  -2 90933.2 1012.74   3
  -2   6  -2 100918. 993.631  11
   2  -6   2 86251.5 676.703   8
  -2   6  -2 99656.1 1235.17   7
   2  -6   3 55979.4 595.793   8
  -2   6  -3 64358.2 722.961  11
  -2   6  -3 65628.0 1673.57   6
  -2   6  -3 64064.2 1083.41   7
  -2   6  -3 64124.3 906.909   3
   2  -6   3 58633.1 703.857   9
  -2   6  -4 153154. 2500.48   6
  -2   6  -4 155000. 1069.22  11
  -2   6  -4 152378. 1679.42   7
  -2   6  -4 154102. 1394.89   3
  -2   6  -5 34264.8 733.530   3
  -2   6  -5 30021.9 855.147   7
  -2   6  -5 36503.1 535.660  11
  -2   6  -5 28270.5 1206.17   6
   2  -6   5 28408.0 512.741   8
  -2   6  -6 153198. 1013.69  11
  -2   6  -6 157243. 1548.88   3
   2  -6   6 137530. 1123.71   8
  -2   6  -6 153154. 1610.39   5
  -2   6  -6 152889. 1967.26   7
  -2   6  -6 140458. 2432.99   6
  -2   6  -7 8319.64 470.729   3
  -2   6  -7 7879.49 874.103   6
  -2   6  -7 9182.08 287.613  11
   2  -6   7 7367.80 344.105   8
  -2   6  -8 98416.3 1324.68   3
  -2   6  -8 99898.5 2313.98   6
   2  -6   8 94569.3 1060.10   8
  -2   6  -9 272.517 747.717   6
  -2   6  -9 1090.40 201.258  11
   2  -6   9 521.725 248.176   8
  -2   6  -9 1116.28 328.674   3
   2  -6  10 39747.1 770.131   8
  -2   6 -10 38367.0 937.460   3
   2  -6  11 12963.0 581.596   2
   2  -6  11 11298.7 906.172   4
   2  -6  11 11110.1 491.800   8
  -2   6 -11 12388.7 635.350   3
  -2   6 -11 10508.1 1121.35   6
   2  -6  12 32029.4 839.949   2
   2  -6  12 31863.2 773.992   8
   2  -6  12 29030.5 1342.99   4
  -2   6 -12 28803.6 1620.04   6
  -2   5  11 67394.2 1012.97  10
  -2   5  11 69776.5 1474.66   7
  -2   5  10 9620.96 399.943   2
  -2   5  10 9535.49 623.673   7
  -2   5   9 96914.4 1066.59   2
  -2   5   9 97588.5 1550.29   7
  -2   5   8 1429.52 215.084   2
  -2   5   8 1148.40 611.430   6
  -2   5   8 1693.33 373.527   7
  -2   5   7 125485. 1582.23   7
  -2   5   7 119085. 1064.22   2
  -2   5   6 446.730 161.058   2
  -2   5   6 396.827 88.9802   9
  -2   5   6 464.331 505.852   6
  -2   5   6 600.346 311.231   7
  -2   5   5 123965. 1983.38   6
  -2   5   5 120344. 1376.99   7
  -2   5   4 26786.6 657.119   7
  -2   5   4 26224.6 1007.12   6
  -2   5   4 24302.4 439.476   2
  -2   5   3 78563.1 748.705   2
  -2   5   3 80133.8 1059.65   7
  -2   5   2 44195.2 1212.64   6
  -2   5   2 42804.3 760.362   7
  -2   5   2 41891.7 576.163   3
  -2   5   1 61571.8 1380.39   6
  -2   5   1 63150.6 884.516   7
  -2   5   1 62388.6 692.465   3
  -2   5   0 109968. 1860.35   6
  -2   5   0 110497. 1142.90   7
  -2   5   0 114160. 945.500   3
  -2   5  -1 33019.3 1096.06   6
   2  -5   1 34719.8 355.528   8
  -2   5  -1 34387.2 536.113   3
   2  -5   1 33775.4 404.184   9
  -2   5  -1 35778.0 681.272   7
  -2   5  -2 375737. 1551.64   8
  -2   5  -2 375420. 2283.97   7
   2  -5   2 345275. 1290.04   8
  -2   5  -2 386071. 1776.49  11
  -2   5  -2 367004. 1906.90   3
  -2   5  -2 355177. 3284.46   6
  -2   5  -3 2485.96 204.948   8
  -2   5  -3 2847.22 570.282   6
  -2   5  -3 2750.62 327.678   7
   2  -5   3 2403.35 169.515   8
  -2   5  -3 3364.11 222.960  11
  -2   5  -3 2537.49 250.417   3
  -2   5  -4 268880. 1731.31   3
  -2   5  -4 252088. 2881.02   6
   2  -5   4 228216. 1240.39   8
  -2   5  -4 295713. 2321.72   7
  -2   5  -4 265880. 1323.28  11
  -2   5  -5 347.275 153.369  11
  -2   5  -5 613.448 225.594   3
  -2   5  -5 117.836 209.013   5
   2  -5   5 188.677 154.790   8
  -2   5  -5 738.297 515.103   6
  -2   5  -5 129.430 295.179   7
  -2   5  -6 223894. 1760.39   3
  -2   5  -6 215750. 2840.08   6
   2  -5   6 213712. 1386.06   8
  -2   5  -6 253965. 1299.00  11
  -2   5  -6 242529. 2663.14   7
  -2   5  -7 10115.0 259.424   1
  -2   5  -7 9610.77 438.235   3
   2  -5   7 9070.87 351.449   8
  -2   5  -7 9061.00 851.043   6
   2  -5   8 40747.0 686.233   8
  -2   5  -8 41513.6 1465.97   6
  -2   5  -9 41515.5 1477.41   6
   2  -5   9 43110.6 798.560   2
   2  -5   9 41718.1 737.429   8
  -2   5  -9 42288.1 886.306   3
  -2   5 -10 10511.6 996.689   6
  -2   5 -10 12332.9 567.562   3
   2  -5  10 12377.1 472.878   8
   2  -5  10 10460.9 805.126   4
   2  -5  10 13663.9 528.279   2
  -2   5 -11 57040.2 846.381  11
   2  -5  11 48973.1 948.645   2
   2  -5  11 44691.5 820.027   8
  -2   5 -11 57866.6 1205.21   3
  -2   5 -11 49148.1 1778.23   6
   2  -5  11 47704.2 1498.10   4
  -2   5 -12 13383.6 688.298   3
  -2   5 -12 10408.8 1213.54   6
   2  -5  12 10965.9 854.845   4
   2  -5  12 10434.3 516.121   2
   2  -5  12 11141.3 513.764   8
  -2   4  12 3735.27 351.179  10
  -2   4  12 3297.29 323.398   2
  -2   4  11 108731. 1193.85  10
  -2   4  11 109764. 1234.15   2
  -2   4  10 8271.68 368.524  10
  -2   4  10 8251.48 375.997   2
  -2   4  10 8285.12 872.392   6
  -2   4   9 95908.4 1970.97   6
  -2   4   9 83198.1 791.606   9
  -2   4   9 87565.6 960.417  10
  -2   4   9 86919.4 966.463   2
  -2   4   9 96558.9 1481.28   7
  -2   4   8 36636.3 909.978   7
  -2   4   8 31219.5 550.361  10
  -2   4   8 34926.0 1222.64   6
  -2   4   8 31503.7 454.579   9
  -2   4   8 32004.5 568.855   2
  -2   4   7 78582.1 629.009   9
  -2   4   7 81845.2 828.112  10
  -2   4   7 87486.6 1274.47   7
  -2   4   7 78869.4 822.339   2
  -2   4   7 87250.6 1665.14   6
  -2   4   6 30544.2 346.911   9
  -2   4   6 32413.5 746.205   7
  -2   4   6 30237.3 484.591  10
  -2   4   6 29444.4 489.493   2
  -2   4   6 33056.7 1007.56   6
  -2   4   5 45119.7 846.613   7
  -2   4   5 36591.6 307.946   9
  -2   4   5 39141.2 517.346   2
  -2   4   5 43786.4 1124.32   6
  -2   4   4 107228. 1196.29   6
  -2   4   4 85984.5 416.641   9
  -2   4   4 91000.1 728.228   2
  -2   4   4 97082.1 1118.11   7
  -2   4   4 102138. 1590.11   6
  -2   4   3 18380.5 507.405   7
  -2   4   3 18455.4 473.348   6
  -2   4   3 17820.4 749.384   6
  -2   4   2 320694. 2718.86   6
  -2   4   2 289174. 1224.51   2
   2  -4  -2 306344. 2721.42   6
   2  -4  -2 304529. 1295.50   2
  -2   4   2 297701. 1801.42   7
   2  -4  -2 315031. 1239.25  10
  -2   4   1 7077.77 543.557   6
   2  -4  -1 7684.21 216.376   2
  -2   4   1 6278.82 199.026   2
  -2   4   1 7197.93 322.363   7
  -2   4   1 6917.05 232.052   3
   2  -4  -1 7218.36 561.527   6
  -2   4   0 393532. 2000.08   7
  -2   4   0 399064. 1126.00   8
  -2   4   0 389448. 3066.50   6
   2  -4   0 362461. 951.851   9
  -2   4   0 383284. 1497.43   3
   2  -4   0 402503. 1323.99   2
   2  -4   0 366004. 2998.97   6
   2  -4   1 59629.2 535.187   2
  -2   4  -1 59794.6 533.492   8
  -2   4  -1 52954.7 762.925   7
  -2   4  -1 58557.9 1280.98   6
  -2   4  -1 54785.1 621.980   3
   2  -4   1 56376.0 439.701   8
   2  -4   2 588856. 1755.18   2
   2  -4   2 608825. 1630.06   8
  -2   4  -2 652748. 2916.14   7
  -2   4  -2 607338. 3976.79   6
   2  -4   2 570189. 2050.33   3
  -2   4  -2 618784. 1822.57   8
  -2   4  -2 638294. 2357.49   3
   2  -4   3 43505.7 504.690   8
  -2   4  -3 45140.8 558.026  11
  -2   4  -3 44348.1 866.076   7
  -2   4  -3 43991.0 639.631   3
  -2   4  -4 122007. 1103.23   3
  -2   4  -4 124576. 1907.24   6
  -2   4  -4 125721. 1231.33   5
  -2   4  -4 131170. 1478.22   7
   2  -4   4 130909. 932.050   8
   2  -4   5 71620.2 801.318  11
  -2   4  -5 76017.3 1309.95   7
  -2   4  -5 68896.2 1514.73   6
  -2   4  -5 72913.6 667.967   1
  -2   4  -5 70161.2 655.960  11
  -2   4  -5 66577.5 871.029   3
   2  -4   5 67985.8 731.541   8
  -2   4  -6 36003.8 672.876   3
   2  -4   6 34941.0 574.699   8
  -2   4  -6 39176.1 520.755  11
  -2   4  -6 37967.3 1243.27   6
  -2   4  -6 38084.9 437.361   1
  -2   4  -7 87478.5 1795.03   6
  -2   4  -7 87607.3 1082.32   3
  -2   4  -7 88259.1 816.997  11
  -2   4  -7 86483.2 530.246   1
  -2   4  -8 1276.28 52.2692   1
  -2   4  -8 2097.61 601.181   6
   2  -4   8 1743.77 230.195   2
  -2   4  -8 1348.39 271.307   3
   2  -4   8 1473.72 226.789   8
  -2   4  -8 2192.94 225.038  11
  -2   4  -9 96089.2 1310.83   3
  -2   4  -9 91428.0 939.631  11
   2  -4   9 87997.7 1113.45   2
   2  -4   9 87191.9 1700.68   4
   2  -4   9 78968.7 982.968   8
  -2   4  -9 83269.1 1911.63   6
   2  -4  10 695.600 243.789   8
   2  -4  10 543.050 234.591   2
  -2   4 -10 619.459 645.892   6
  -2   4 -10 449.859 314.245   3
  -2   4 -10 604.960 208.249  11
   2  -4  10-83.6634 411.968   4
   2  -4  11 76836.0 1100.13   2
   2  -4  11 78730.7 1717.18   4
  -2   4 -11 76568.9 1992.71   6
  -2   4 -12 400.232 371.671   3
   2  -4  12 265.241 253.253   2
   2  -4  12 3.95316 464.126   4
  -2   4 -12 364.977 751.352   6
   2  -4  12 257.344 290.021   8
  -2   4 -12-48.6166 257.575  11
   2  -4  13 82075.5 1228.52   2
  -2   4 -13 78536.6 2207.19   6
   2  -4  13 82757.5 1795.11   4
  -2   3  13 52188.3 929.962   2
  -2   3  12 28688.4 605.913   9
  -2   3  12 35382.8 742.416   2
  -2   3  11 47154.2 721.251   9
  -2   3  11 49296.9 834.428   2
  -2   3  10 33276.7 646.554   2
   2  -3 -10 37922.9 750.785   6
  -2   3   9 29605.6 573.147   2
  -2   3   9 28730.5 440.387   8
  -2   3   8 53963.5 717.912   2
  -2   3   8 53347.0 545.959   8
   2  -3  -8 53287.3 697.128   8
   2  -3  -7 24441.2 433.750   8
  -2   3   7 22920.4 662.813   6
  -2   3   7 21843.8 432.518   2
  -2   3   7 21462.6 305.582   8
   2  -3  -7 19774.4 418.067   4
  -2   3   6 162847. 1477.91   6
  -2   3   6 151325. 971.990  10
   2  -3  -6 165110. 866.528   8
  -2   3   6 155265. 1523.86   7
  -2   3   6 158972. 712.040   8
  -2   3   6 162162. 1930.96   6
  -2   3   5 3207.98 95.5955   8
  -2   3   5 3642.65 183.725   2
  -2   3   5 2978.11 162.263  10
  -2   3   5 3561.91 291.230   6
  -2   3   5 3192.44 412.144   6
  -2   3   5 3687.16 281.537   7
  -2   3   4 234191. 2049.98   6
  -2   3   4 212280. 1045.26   2
  -2   3   4 229540. 1451.88   6
   2  -3  -4 217589. 1179.32   2
  -2   3   4 235099. 1700.22   7
  -2   3   4 216071. 990.960  10
   2  -3  -3 30296.4 397.214   2
  -2   3   3 32502.7 513.110   6
  -2   3   3 32156.8 604.853   7
  -2   3   3 28357.2 350.460   2
  -2   3   3 34160.9 829.069   6
  -2   3   2 394383. 2570.44   6
   2  -3  -2 398016. 2619.65   6
   2  -3  -2 388952. 1285.34   2
  -2   3   2 383683. 1911.16   7
  -2   3   1 146253. 1630.89   6
   2  -3  -1 142402. 1210.20   7
  -2   3   1 145165. 1142.15   7
  -2   3   1 143898. 435.020   8
   2  -3  -1 148645. 719.347   2
  -2   3   1 143517. 788.411   3
  -2   3   1 140460. 689.282   2
   2  -3  -1 146523. 1597.57   6
  -2   3   0 414998. 2785.24   6
  -2   3   0 417608. 1356.05   3
  -2   3  -1 295173. 2402.70   6
  -2   3  -1 314767. 1469.49  11
   2  -3   1 317151. 1004.52   8
   2  -3   1 308883. 1213.58   3
  -2   3  -1 308381. 1322.49   3
   2  -3   1 288386. 2387.97   6
  -2   3  -1 308813. 1769.17   7
   2  -3   1 274449. 1682.74   7
  -2   3  -1 331537. 996.180   8
  -2   3  -2 181906. 875.452   8
   2  -3   2 157440. 1832.04   6
   2  -3   2 172640. 844.297   8
  -2   3  -2 153410. 1779.97   6
  -2   3  -2 166074. 1010.79  11
   2  -3   2 144248. 1234.94   7
  -2   3  -2 154388. 994.673   3
   2  -3   2 149482. 938.497   3
  -2   3  -2 171151. 1460.98   7
   2  -3   3 74022.8 1327.26   6
  -2   3  -3 80837.2 1414.52   6
   2  -3   3 83707.4 794.189  11
  -2   3  -3 86009.5 691.327   8
  -2   3  -3 76264.2 934.708   5
  -2   3  -3 73578.9 737.708   3
   2  -3   3 79562.5 638.596   8
  -2   3  -3 70059.5 626.129  11
   2  -3   3 75905.9 940.247   7
  -2   3  -3 82375.3 1105.22   7
   2  -3   3 86043.3 768.085   3
  -2   3  -4 33832.8 546.481   3
  -2   3  -4 35853.6 1018.42   6
   2  -3   4 38617.4 537.107  11
  -2   3  -4 35885.4 434.215   1
   2  -3   4 35798.3 489.718   8
  -2   3  -4 32225.2 774.093   7
   2  -3   4 34451.3 523.347   3
  -2   3  -4 33754.6 455.677  11
  -2   3  -5 70469.6 1424.05   6
   2  -3   5 73903.8 722.177  11
  -2   3  -5 69284.8 648.415  11
  -2   3  -5 78947.4 575.010   1
   2  -3   5 76694.2 754.729   8
  -2   3  -5 75747.1 850.458   3
  -2   3  -6 1638.49 101.002   1
   2  -3   6 1491.22 169.099   2
  -2   3  -6 1494.89 214.604   3
   2  -3   6 1374.36 191.715   8
  -2   3  -6 1142.04 153.243  11
  -2   3  -7 106638. 920.529  11
   2  -3   7 130877. 1167.03   2
  -2   3  -7 130512. 1249.33   3
   2  -3   7 129401. 1798.11   4
  -2   3  -7 107094. 496.326   1
   2  -3   7 115044. 1012.39   8
  -2   3  -7 120122. 1925.25   6
  -2   3  -8 8727.71 326.240  11
   2  -3   8 9595.07 606.844   4
   2  -3   8 9732.10 366.229   2
   2  -3   8 8540.78 336.985   8
  -2   3  -8 8913.26 746.217   6
   2  -3   9 120596. 1202.88   2
  -2   3  -9 108435. 1073.79  11
   2  -3   9 107579. 1110.53   8
  -2   3  -9 144003. 1564.30   3
  -2   3  -9 130445. 2228.32   6
   2  -3   9 121946. 1837.60   4
   2  -3  10 9344.72 400.904   8
   2  -3  10 11553.4 428.067   2
   2  -3  10 11508.5 675.070   4
  -2   3 -10 9441.82 835.010   6
  -2   3 -10 10328.4 418.382  11
   2  -3  11 131664. 1986.14   4
   2  -3  11 129682. 1383.98   2
  -2   3 -11 128092. 2360.00   6
  -2   3 -12 28441.8 1321.59   6
  -2   3 -12 29673.4 708.252  11
   2  -3  12 30324.2 744.322   2
  -2   3 -13 47789.8 1653.16   6
   2  -3  13 50115.7 1288.94   4
  -2   2  13 21906.5 636.521   2
  -2   2  12 43105.8 709.450   8
  -2   2  12 46483.3 838.198   2
  -2   2  11 23360.9 573.940   2
   2  -2 -11 25788.4 737.800   6
  -2   2  10 56495.6 692.024   8
  -2   2  10 58193.6 841.660   2
   2  -2  -9 3975.38 345.138   6
  -2   2   9 3498.59 215.354   8
  -2   2   9 3685.27 259.140   2
  -2   2   8 129932. 1087.26   2
   2  -2  -8 140212. 1191.21   6
   2  -2  -8 123828. 1112.13   8
  -2   2   8 140238. 1493.97   6
   2  -2  -8 118196. 1062.46   4
  -2   2   8 120358. 802.582   8
   2  -2  -7 7239.07 287.887   8
  -2   2   7 9021.32 424.310   6
   2  -2  -7 8699.45 322.253   6
  -2   2   7 7062.60 266.406   2
  -2   2   7 7674.51 219.127   8
   2  -2  -7 7423.88 269.646   4
   2  -2  -6 195617. 1034.53   4
   2  -2  -6 205594. 1161.54   8
  -2   2   6 208974. 1473.50   6
   2  -2  -6 207683. 1157.51   6
  -2   2   6 207302. 904.480   8
  -2   2   6 196784. 1154.25   2
  -2   2   5 81036.3 831.386   6
   2  -2  -5 72393.0 705.091   2
  -2   2   5 72268.9 634.466   2
  -2   2   5 85745.3 530.199   8
  -2   2   4 397162. 2107.89   6
  -2   2   4 401445. 1640.08   6
  -2   2   3 346650. 1785.66   7
  -2   2   3 346574. 1323.41   6
  -2   2   2 251098. 1629.00   6
   2  -2  -2 243033. 1412.07   7
  -2   2   2 255402. 1406.93   7
   2  -2  -2 244855. 873.341   2
   2  -2  -2 255720. 1631.19   6
   2  -2  -1 476918. 2373.45   6
   2  -2  -1 481318. 1924.09   7
   2  -2   0 362867. 2179.47   6
   2  -2   0 370750. 1674.33   7
  -2   2  -1 167757. 1506.22   6
   2  -2   1 183535. 726.733   9
   2  -2   1 167742. 1527.47   6
  -2   2  -1 172430. 1222.61   5
  -2   2  -1 183281. 729.709   8
   2  -2   1 144490. 1166.56   7
  -2   2  -1 172099. 1282.47   7
   2  -2   1 161315. 758.461   3
  -2   2  -1 160347. 923.091  11
  -2   2  -1 151196. 775.268   3
  -2   2  -2 5622.60 190.059   3
   2  -2   2 5639.62 419.310   6
  -2   2  -2 5932.72 441.408   6
   2  -2   2 5820.06 219.344  11
  -2   2  -2 5905.34 168.195   8
   2  -2   2 5987.88 175.435   8
   2  -2   2 6679.25 217.853   3
  -2   2  -2 6041.93 194.960   1
   2  -2   2 5075.65 282.866   7
  -2   2  -2 5058.32 314.967   7
  -2   2  -2 4603.05 186.834  11
   2  -2   3 172581. 1706.31   6
  -2   2  -3 177368. 993.403   3
  -2   2  -3 183337. 1839.99   6
  -2   2  -3 152584. 1486.82   7
  -2   2  -3 150071. 882.196  11
  -2   2  -3 173354. 846.657   1
   2  -2   3 172399. 979.746  11
   2  -2   3 177989. 935.628   8
  -2   2  -3 188778. 932.110   8
   2  -2   3 171399. 1457.51   7
   2  -2   3 181090. 983.178   3
   2  -2   4 18800.0 370.798   3
   2  -2   4 19121.1 550.940   7
   2  -2   4 16165.1 644.841   6
  -2   2  -4 17898.5 371.391   3
  -2   2  -4 18619.3 710.006   6
   2  -2   4 17716.9 330.334   2
  -2   2  -4 17557.3 321.546   8
   2  -2   4 19600.1 367.211   8
  -2   2  -4 14451.8 304.678  11
   2  -2   4 17418.3 342.845  11
  -2   2  -4 17375.3 252.046   1
   2  -2   4 17323.2 396.477   5
   2  -2   5 174804. 1807.33   4
   2  -2   5 172402. 1085.62   8
  -2   2  -5 173638. 2013.89   6
  -2   2  -5 145574. 977.979  11
   2  -2   5 170193. 1050.86  11
   2  -2   5 162755. 1077.61   3
   2  -2   5 154998. 1101.38   5
  -2   2  -5 170047. 1176.65   3
  -2   2  -5 176234. 725.668   1
   2  -2   5 167734. 1053.56   2
   2  -2   6 41277.3 620.391   5
  -2   2  -6 48864.6 736.507   3
   2  -2   6 45321.4 950.044   4
  -2   2  -6 41218.3 335.501   1
   2  -2   6 45759.6 609.796   2
  -2   2  -6 44576.3 1123.59   6
   2  -2   6 43012.9 597.094   8
  -2   2  -6 36305.1 535.839  11
   2  -2   7 143940. 1122.59   8
  -2   2  -7 167643. 2173.49   6
   2  -2   7 159922. 1195.18   2
  -2   2  -7 141046. 623.081   1
   2  -2   7 146113. 1194.52   5
  -2   2  -7 128302. 1036.42  11
   2  -2   7 172668. 1923.56   4
  -2   2  -8 90547.1 524.884   1
   2  -2   8 87380.6 944.360   2
  -2   2  -8 86923.0 1616.86   6
   2  -2   8 88955.3 1374.50   4
   2  -2   8 85456.9 957.561   8
  -2   2  -9 139040. 2193.61   6
   2  -2   9 124754. 1172.38   2
   2  -2   9 142150. 1818.90   4
   2  -2   9 120423. 1157.17   8
   2  -2  10 54007.4 862.168   8
  -2   2 -10 56348.0 1486.47   6
   2  -2  11 52767.4 864.432   2
  -2   2 -11 52227.0 1489.88   6
  -2   2 -11 43982.4 810.343  11
   2  -2  11 52775.7 1162.01   4
   2  -2  11 47032.0 846.385   8
   2  -2  12 98401.4 1231.71   2
   2  -2  12 99517.6 1640.58   4
  -2   2 -12 95826.9 2083.61   6
   2  -2  13 3223.45 351.019   2
  -2   2 -13 3455.03 823.903   6
   2  -2  13 3334.55 526.311   4
  -2   1  14 54450.7 1027.04   2
  -2   1  14 46362.0 830.444   8
  -2   1  13 944.796 265.552   8
  -2   1  13 1081.36 258.891   2
  -2   1  12 46621.0 829.897   2
   2  -1 -12 46428.9 966.449   6
  -2   1  12 44309.7 739.625   8
   2  -1 -11 1887.14 379.921   6
  -2   1  11 1808.21 262.075   2
  -2   1  11 1857.01 241.836   8
  -2   1  10 100185. 1069.48   2
  -2   1  10 99533.6 952.102   8
  -2   1   9 32210.7 792.437   6
  -2   1   9 30701.4 571.421   2
  -2   1   9 31789.2 517.511   8
  -2   1   8 229656. 1296.63   8
   2  -1  -8 228343. 1520.22   6
  -2   1   8 213921. 1381.55   2
   2  -1  -8 220513. 1430.26   4
  -2   1   8 235854. 1794.64   6
  -2   1   7 182784. 1402.62   6
   2  -1  -7 163381. 1227.46   8
   2  -1  -7 188491. 1267.24   6
   2  -1  -7 169026. 1071.19   4
  -2   1   7 167434. 1149.03   2
  -2   1   7 158809. 937.808   8
  -2   1   6 88570.9 704.028   8
   2  -1  -6 88333.6 661.514   4
   2  -1  -6 91024.8 753.677   6
   2  -1  -6 89865.9 827.020   8
  -2   1   6 86651.2 763.628   2
  -2   1   5 513771. 1708.14   6
  -2   1   5 465263. 1749.37   3
   2  -1  -5 472720. 1763.59   2
   2  -1  -5 502569. 1266.54   4
  -2   1   4 143644. 1109.95   7
  -2   1   4 139659. 744.922   6
   2  -1  -4 133639. 814.803   2
  -2   1   4 141129. 848.550   9
  -2   1   4 137259. 768.948   2
  -2   1   4 134249. 759.209   8
  -2   1   2 2594.81 167.745   6
   2  -1  -2 2294.40 104.025   9
  -2   1   2 2334.07 94.7357   9
   2  -1  -2 2277.79 94.0033   2
  -2   1   2 2160.34 168.796   7
   2  -1  -2 2254.70 168.591   7
  -2   1   2 1891.66 75.1233   2
   2  -1  -2 2784.97 185.771   6
   2  -1  -1 514886. 1791.16   6
  -2   1   0 7762.81 143.408   9
   2  -1   0 7708.21 253.337   7
   2  -1   0 7393.79 307.867   6
   2  -1   0 7665.61 106.950   3
  -2   1   0 7406.25 302.049   6
   2  -1   0 6993.25 244.564   5
  -2   1   0 7213.71 193.418   1
  -2   1   0 7256.20 266.213   7
  -2   1   0 6594.49 111.632   3
   2  -1   0 8057.17 156.347   9
  -2   1  -1 50677.4 340.018   3
   2  -1   1 50189.1 725.481   6
  -2   1  -1 45009.6 448.026  11
   2  -1   1 49900.3 390.553   9
   2  -1   1 49199.5 248.674   2
  -2   1  -1 51060.7 746.750   6
   2  -1   1 48809.3 438.274   1
  -2   1  -1 51113.3 444.430   1
   2  -1   1 51731.6 635.890   5
   2  -1   1 51241.1 496.355  11
   2  -1   1 46007.7 637.450   7
  -2   1  -1 45523.0 655.989   7
   2  -1   1 49723.9 340.749   3
   2  -1   2 51626.8 423.904   3
   2  -1   2 55597.6 511.294  11
  -2   1  -2 51095.7 428.798   3
  -2   1  -2 50848.5 481.943  11
  -2   1  -2 55909.2 889.729   6
   2  -1   2 54212.2 779.252   4
   2  -1   2 51449.6 357.339   2
   2  -1   2 49338.3 436.491   1
   2  -1   2 55636.8 482.940   9
  -2   1  -2 53096.0 433.232   8
  -2   1  -2 50471.1 414.439   1
   2  -1   2 48541.1 715.025   7
  -2   1  -2 48420.5 749.114   7
   2  -1   2 51286.0 825.803   6
  -2   1  -3 73375.8 591.308  11
   2  -1   3 84082.6 668.656   9
  -2   1  -3 91407.4 1278.75   6
  -2   1  -3 77787.1 498.415   1
   2  -1   3 75509.2 1058.31   6
   2  -1   3 73156.0 516.953   1
   2  -1   3 73525.8 511.932   2
   2  -1   3 79705.5 654.194  11
   2  -1   3 79939.8 980.947   4
   2  -1   3 75232.8 566.357   3
  -2   1  -3 82851.3 620.776   8
   2  -1   3 81751.7 1025.19   7
  -2   1  -3 80482.8 640.289   3
   2  -1   4 156998. 919.138   3
   2  -1   4 175389. 971.511  11
   2  -1   4 161386. 1672.60   6
  -2   1  -4 163497. 985.237  11
  -2   1  -4 172249. 944.731   8
  -2   1  -4 177877. 1079.75   3
   2  -1   4 159738. 755.467   1
   2  -1   4 170725. 910.959   2
   2  -1   4 181810. 1590.62   4
  -2   1  -4 171731. 730.549   1
  -2   1  -4 146778. 1620.71   6
   2  -1   4 173607. 1609.32   7
  -2   1  -5 126437. 1593.22   6
  -2   1  -5 123255. 918.931  11
  -2   1  -5 125099. 989.765   3
   2  -1   5 121510. 666.875   1
  -2   1  -5 122361. 633.373   1
   2  -1   5 127065. 1345.52   4
   2  -1   5 126838. 905.580   8
   2  -1   5 122309. 842.107   2
  -2   1  -6 195087. 1263.55  11
  -2   1  -6 220763. 2249.60   6
   2  -1   6 207367. 1219.17   2
   2  -1   6 202775. 869.358   1
   2  -1   6 206686. 1260.70   8
  -2   1  -6 182680. 820.750   1
   2  -1   6 217867. 1855.36   4
   2  -1   7 85935.3 582.313   1
  -2   1  -7 90034.7 1515.81   6
  -2   1  -7 80339.0 584.547   1
   2  -1   7 90776.8 876.453   2
   2  -1   7 86826.7 880.473   8
  -2   1  -7 84360.9 909.930  11
  -2   1  -8 264998. 1164.34   1
   2  -1   8 243470. 993.943   1
  -2   1  -8 260147. 2613.47   6
   2  -1   8 259557. 1557.10   2
   2  -1   8 271560. 2172.26   4
   2  -1   8 245812. 1525.33   8
   2  -1   9 44514.3 702.160   8
  -2   1  -9 46662.1 1271.16   6
   2  -1   9 45781.1 708.493   2
  -2   1 -10 121716. 2079.29   6
   2  -1  10 113262. 1136.07   2
  -2   1 -11 3735.29 663.608   6
   2  -1  11 4628.93 455.249   4
   2  -1  11 4154.49 309.720   2
  -2   1 -12 55943.3 1584.24   6
   2  -1  12 53101.8 897.028   2
   2  -1  12 58091.6 1199.71   4
  -2   1 -13 21175.6 1203.97   6
   2  -1  13 26159.8 872.131   4
   2  -1  13 25156.7 683.190   2
   2  -1  13 19605.7 658.490   9
  -2   0  14 42591.6 891.733   2
  -2   0  14 35865.9 759.856   8
  -2   0  13 5647.40 385.520   2
  -2   0  13 4544.11 333.601   8
  -2   0  12 43313.5 834.107   2
   2   0 -12 42041.0 995.479   6
  -2   0  11 78072.7 1061.72   2
   2   0 -11 74662.8 1204.86   6
  -2   0  11 68956.8 669.408   1
  -2   0  11 67492.0 858.501   8
   2   0 -10 78468.2 1146.56   6
  -2   0  10 78337.6 1006.37   2
  -2   0   9 276713. 2159.61   6
  -2   0   9 246971. 1613.38   2
  -2   0   9 240558. 1454.41   8
   2   0  -9 272128. 1931.98   6
   2   0  -8 13830.1 445.777   6
  -2   0   8 13963.8 391.465   2
  -2   0   8 14532.2 518.688   6
   2   0  -7 415680. 1907.37   6
  -2   0   7 410306. 1858.33   2
  -2   0   6-6.59448 121.156   3
  -2   0   6-57.9134 124.842   2
   2   0  -6 73.4326 163.694   6
   2   0  -6 165.940 147.665   8
  -2   0   6 115.877 198.464   6
  -2   0   6 0.18647 126.265   8
   2   0  -5 501666. 1579.27   6
   2   0  -5 512537. 1782.03   8
  -2   0   4 5220.42 166.340   6
  -2   0   4 5217.36 199.884   9
  -2   0   4 5546.18 171.724   1
  -2   0   4 5331.27 192.352   8
  -2   0   4 5619.98 194.580   5
  -2   0   4 5286.17 183.300   2
  -2   0   4 4848.86 163.193   3
  -2   0   3 107090. 717.975   9
   2   0  -3 95501.7 554.480   3
  -2   0   3 96911.7 544.231   3
  -2   0   3 105934. 640.003   1
   2   0  -3 104726. 693.664   9
  -2   0   3 113723. 795.408   7
  -2   0   3 100769. 602.443   2
  -2   0   2 22538.1 290.927   1
  -2   0   2 23066.8 301.803   9
   2   0  -2 24175.3 379.003   5
   2   0  -2 24292.3 240.666   3
   2   0  -2 21649.0 179.538   4
   2   0  -2 23722.8 329.986   7
  -2   0   2 23835.3 328.785   7
  -2   0   2 21599.7 204.472   3
   2   0  -2 24314.4 318.885   9
   2   0  -2 22580.8 308.830   1
  -2   0   1 22365.0 289.153  11
  -2   0   1 25406.7 325.691   4
   2   0  -1 26848.3 351.765   7
  -2   0   1 22405.7 312.694   6
  -2   0   1 23600.3 275.039   9
   2   0  -1 22884.1 286.598   1
   2   0  -1 23242.0 282.558   9
  -2   0   1 24828.5 294.360   1
   2   0  -1 22348.2 264.163   4
  -2   0   1 23776.2 331.926   7
   2   0  -1 22154.4 313.361  11
   2   0  -1 22404.0 327.554   6
  -2   0   0 95329.6 784.192   6
  -2   0   0 100271. 559.286   1
   2   0   0 100022. 363.639  10
  -2   0   0 96658.3 290.652   2
  -2   0   0 104645. 768.377   4
   2   0   0 91198.8 767.251   6
  -2   0   0 103275. 586.595  11
   2   0   0 99442.3 593.671   1
   2   0   0 102280. 703.044   4
   2   0   0 103065. 628.235  11
   2   0   0 103591. 584.290   9
   2   0   0 89666.0 729.703   7
  -2   0   0 91445.6 761.282   7
  -2   0   0 97816.3 528.369   9
   2   0   1 108671. 970.450   6
   2   0   1 109600. 491.969   3
   2   0   1 132252. 727.334  11
  -2   0  -1 122000. 643.443   9
  -2   0  -1 120402. 662.904  11
   2   0   1 111052. 403.742   2
  -2   0  -1 108790. 976.279   6
  -2   0  -1 108907. 430.140   2
   2   0   1 126381. 1028.61   7
  -2   0  -1 115966. 916.207   4
   2   0   1 112734. 835.051   4
   2   0   1 111706. 593.531   1
  -2   0  -1 124486. 1102.97   7
  -2   0  -1 118395. 599.395   1
   2   0   1 119070. 653.599   9
  -2   0  -2 299626. 1067.22   9
   2   0   2 285787. 1770.25   6
  -2   0  -2 292053. 1806.06   6
   2   0   2 281145. 1000.66   3
  -2   0  -2 290910. 1598.03   4
   2   0   2 332454. 1226.41  11
   2   0   2 312272. 1800.00   7
   2   0   2 261717. 1447.54   4
   2   0   3 85391.0 658.645  11
   2   0   3 81705.1 1129.28   6
  -2   0  -3 77600.8 527.438   1
  -2   0  -3 72698.9 1021.71   6
  -2   0  -3 69919.1 535.172   2
   2   0   3 68283.2 569.555   3
  -2   0  -3 72539.0 875.945   4
   2   0   3 72736.2 516.178   2
   2   0   3 71380.2 811.417   4
  -2   0  -3 76212.0 580.145   8
  -2   0  -3 76215.2 642.174  11
   2   0   3 71645.6 608.074   9
   2   0   3 75717.9 523.894   1
   2   0   3 81078.7 1204.97   7
   2   0   4 471198. 1632.47  11
   2   0   4 449879. 2143.02   4
  -2   0  -4 430802. 2298.73   4
  -2   0  -4 416902. 1480.14   2
   2   0   4 424421. 1602.31   3
   2   0   4 440322. 1415.52   2
  -2   0  -4 468497. 1554.83   8
  -2   0  -4 446391. 2646.44   6
   2   0   4 421090. 2589.06   6
  -2   0  -5 47816.9 996.914   6
  -2   0  -5 44507.4 455.552   1
   2   0   5 45070.6 418.147   1
  -2   0  -5 49341.2 631.127  11
   2   0   5 40121.5 553.928   3
   2   0   5 49343.2 605.180   9
  -2   0  -5 38896.5 503.065   2
   2   0   5 46338.2 525.294   2
   2   0   5 50356.9 792.989   4
   2   0   6 402917. 1805.95   9
  -2   0  -6 372743. 1811.74  11
  -2   0  -6 387662. 2800.33   6
   2   0   6 390715. 1637.15   2
   2   0   6 403822. 2233.07   4
   2   0   6 367746. 1220.83   1
  -2   0  -7 1162.99 159.980   1
   2   0   7 794.791 150.561   2
  -2   0  -7 1094.76 214.008  11
  -2   0  -7 651.684 388.850   6
   2   0   7 988.899 181.853   9
   2   0   7 935.722 247.707   4
   2   0   7 766.334 109.005   1
  -2   0  -8 134249. 1849.01   6
   2   0   8 127906. 1163.53   9
  -2   0  -8 121093. 1199.08  11
   2   0   8 124655. 1046.12   2
   2   0   8 116469. 755.671   1
   2   0   8 141723. 1500.37   4
  -2   0  -9 21136.6 867.176   6
   2   0   9 17992.0 504.409   9
   2   0   9 20395.2 486.670   2
   2   0   9 20690.2 634.425   4
  -2   0  -9 17815.1 527.773  11
  -2   0 -10 53578.7 1387.59   6
   2   0  10 50923.2 799.501   2
   2   0  11 47025.8 811.065   2
  -2   0 -11 44893.2 1348.07   6
   2   0  11 48015.5 965.959   4
  -2   0 -12 10379.4 875.720   6
   2   0  12 9801.97 487.892   9
   2   0  12 10479.1 459.990   2
  -2   0 -13 42835.5 1509.35   6
   2   0  13 41190.6 833.754   2
  -2  -1  14 24397.0 717.491   2
  -2  -1  14 15196.1 522.051   8
  -2  -1  13 86699.8 1271.76   2
   2   1 -13 80575.7 1494.19   6
  -2  -1  12 9448.03 448.692   2
   2   1 -12 8552.32 599.271   6
  -2  -1  11 203304. 1379.98   4
   2   1 -11 199635. 2049.65   6
  -2  -1  10 4160.56 306.126   2
  -2  -1  10 4235.01 147.630   1
  -2  -1  10 4227.27 194.003   1
  -2  -1  10 3585.64 260.380   8
  -2  -1  10 4477.21 268.925   4
  -2  -1   9 326628. 1604.40   4
  -2  -1   9 302045. 1875.34   2
  -2  -1   9 263106. 1589.15   8
   2   1  -9 299259. 2174.63   6
  -2  -1   9 290379. 1012.99   1
  -2  -1   9 295036. 2394.16   6
   2   1  -8 29962.0 605.482   3
  -2  -1   8 29745.2 764.741   6
  -2  -1   8 30766.7 590.499   2
  -2  -1   8 29548.5 443.190  11
   2   1  -8 29765.2 672.301   6
  -2  -1   8 28371.6 324.500   1
  -2  -1   7 217426. 1789.41   6
  -2  -1   7 191025. 1290.87   8
  -2  -1   7 211417. 1143.69   4
   2   1  -7 215547. 1623.58   6
  -2  -1   7 193418. 1028.33  11
  -2  -1   7 198637. 823.247   1
  -2  -1   7 209316. 1415.27   2
  -2  -1   6 20250.3 385.672   3
   2   1  -6 21358.4 519.946   6
   2   1  -6 20805.3 465.077   8
  -2  -1   6 21485.3 440.978   8
  -2  -1   6 21166.2 268.483   1
  -2  -1   6 21561.7 425.273   2
  -2  -1   6 20347.9 576.442   6
  -2  -1   5 177812. 1218.30   9
   2   1  -5 187226. 1072.90   3
  -2  -1   5 178976. 1371.23   6
  -2  -1   5 190503. 769.171   1
  -2  -1   5 191158. 1057.16   3
   2   1  -5 204229. 1318.49   6
  -2  -1   5 191200. 1136.48   8
  -2  -1   4 100697. 538.583   1
   2   1  -4 98790.9 694.498   3
  -2  -1   4 106086. 974.137   6
  -2  -1   4 102268. 860.427   9
   2   1  -4 103504. 914.494   6
  -2  -1   4 109816. 872.327   8
   2   1  -4 110849. 709.752   5
   2   1  -4 106596. 660.416   1
  -2  -1   4 103047. 696.447   3
   2   1  -3 92317.4 835.136   6
   2   1  -3 86594.1 581.237   3
  -2  -1   3 84173.1 724.394   9
   2   1  -3 88930.5 732.217   9
   2   1  -3 89266.5 585.710   1
  -2  -1   3 87067.9 560.499   7
  -2  -1   3 89832.4 853.190   6
  -2  -1   3 84593.9 500.665   1
  -2  -1   3 85192.2 568.580   3
   2   1  -2 203121. 777.866   3
   2   1  -2 210875. 1270.55   6
   2   1  -2 209597. 840.613   1
   2   1  -2 209672. 698.254   7
  -2  -1   2 214777. 1030.68   9
   2   1  -2 226357. 1008.75   6
  -2  -1   2 193213. 764.412   3
   2   1  -2 212118. 1010.94   9
  -2  -1   1 41127.9 332.448  11
   2   1  -1 34618.2 330.988  11
  -2  -1   1 37688.5 457.008   6
   2   1  -1 36445.3 281.010   3
   2   1  -1 29586.1 371.808   9
   2   1  -1 36497.3 487.542   6
  -2  -1   1 38202.6 407.945   9
  -2  -1   1 38447.1 347.122   1
   2   1  -1 37282.1 354.368   7
   2   1  -1 40313.1 379.401   1
  -2  -1   1 42721.1 419.459   7
  -2  -1   0 206187. 722.164  10
   2   1   0 197834. 1225.12   6
  -2  -1   0 192758. 1148.17   6
  -2  -1   0 212635. 843.393   1
   2   1   0 206181. 922.042   9
  -2  -1   0 197923. 961.569   4
   2   1   0 204611. 1075.74   7
  -2  -1   0 181616. 860.625   9
   2   1   1 28317.4 379.202   9
   2   1   1 28497.1 331.802   1
  -2  -1  -1 24615.4 494.772   6
   2   1   1 25147.6 284.815  10
  -2  -1  -1 27597.0 345.205  11
  -2  -1  -1 25275.7 405.692   4
  -2  -1  -1 26370.3 332.224   9
  -2  -1  -1 28755.5 339.641   1
   2   1   1 24278.7 510.887   6
   2   1   1 29673.8 348.351  11
  -2  -1  -1 26915.8 277.566   2
   2   1   1 25487.0 256.590   2
   2   1   2 818379. 3122.77   6
  -2  -1  -3 5087.84 221.693  11
  -2  -1  -3 4295.40 343.919   6
   2   1   3 4919.24 204.194  11
  -2  -1  -3 4545.70 163.318   2
  -2  -1  -3 4623.96 273.011   4
   2   1   3 4518.00 222.521   4
   2   1   3 4638.26 161.213   2
   2   1   3 4589.61 192.422   9
   2   1   3 4479.75 345.384   6
  -2  -1  -3 5027.40 183.951   1
   2   1   3 4893.56 173.508   1
  -2  -1  -4 446401. 1630.01   2
  -2  -1  -4 447523. 2596.23   6
  -2  -1  -4 440641. 1859.52  11
  -2  -1  -5 19126.5 386.267   1
   2   1   5 19366.8 324.515   1
  -2  -1  -5 18102.7 627.583   6
  -2  -1  -5 18956.7 436.897  11
   2   1   5 18262.0 392.617   9
   2   1   5 18174.7 347.614   2
   2   1   5 19366.8 445.581   4
  -2  -1  -6 289301. 1742.04  11
   2   1   6 271200. 1500.79   9
   2   1   6 265362. 1170.70   1
  -2  -1  -6 275510. 2319.86   6
   2   1   6 272845. 1381.12   2
   2   1   6 289461. 1736.93   4
  -2  -1  -7 31920.3 908.978   6
   2   1   7 30671.8 555.236   9
   2   1   7 32759.4 536.371   2
   2   1   7 34216.6 656.022   4
  -2  -1  -7 32594.8 633.992  11
  -2  -1  -8 23877.3 606.975  11
   2   1   8 23380.9 524.394   9
   2   1   8 24348.6 501.361   2
  -2  -1  -8 24273.5 865.075   6
   2   1   9 101694. 1103.29   9
   2   1   9 105766. 1055.83   2
   2   1  10 3948.70 291.826   2
  -2  -1 -10 4647.70 599.112   6
   2   1  10 3889.48 316.786   9
  -2  -1 -11 61010.6 1492.82   6
   2   1  11 59495.7 912.740   2
   2   1  12 560.130 309.208   9
  -2  -1 -12 19.3574 599.549   6
   2   1  12 452.166 254.105   2
  -2  -2  15 54825.8 960.081   8
  -2  -2  15 82043.3 1373.34   2
  -2  -2  14 77.6815 283.732   2
  -2  -2  14 424.160 281.932   8
   2   2 -13 139733. 2023.31   6
  -2  -2  13 147625. 1629.15   2
   2   2 -12 10771.7 690.557   6
  -2  -2  12 12292.8 514.238   2
  -2  -2  12 12049.6 486.393   8
  -2  -2  12 11726.4 479.405   4
   2   2 -11 193272. 2139.93   6
  -2  -2  11 199490. 1763.41   2
   2   2 -11 197827. 1800.71   3
   2   2 -10 78630.5 1105.54   3
  -2  -2  10 67981.5 908.310   8
  -2  -2  10 77388.5 1020.06   4
  -2  -2  10 72303.7 1002.37   2
   2   2 -10 72683.4 1314.57   6
  -2  -2   9 124008. 816.936  11
   2   2  -9 148456. 1387.15   3
   2   2  -9 147097. 1751.49   6
  -2  -2   9 145101. 1341.34   4
  -2  -2   9 135456. 1202.02   8
  -2  -2   9 145441. 1380.61   2
   2   2  -8 82250.5 1231.53   6
  -2  -2   8 85710.0 615.752  11
  -2  -2   8 87045.3 957.671   8
  -2  -2   8 84383.8 418.155   1
  -2  -2   8 83003.1 1376.71   6
   2   2  -7 56502.7 752.763   3
   2   2  -7 59464.3 1053.87   6
  -2  -2   7 57154.4 375.729   1
  -2  -2   7 53583.3 1053.78   6
  -2  -2   7 52365.1 726.778   8
  -2  -2   7 55254.8 449.941  11
  -2  -2   6 84248.6 1242.23   6
  -2  -2   6 85529.3 815.454   3
   2   2  -6 91526.5 623.816   1
   2   2  -6 87296.9 1191.05   6
   2   2  -6 88538.4 862.346   3
  -2  -2   6 88067.9 509.902  11
  -2  -2   6 86875.8 469.609   1
  -2  -2   6 83714.2 857.627   8
  -2  -2   5 9514.19 493.315   6
   2   2  -5 11883.3 236.292   1
   2   2  -5 9971.96 471.398   6
   2   2  -5 11644.8 322.383   3
  -2  -2   5 9687.83 331.660   9
  -2  -2   5 11334.2 185.521   1
  -2  -2   5 10649.6 312.692   8
  -2  -2   5 11636.4 305.951   3
   2   2  -4 226201. 1767.53   6
   2   2  -4 218632. 1194.63   3
  -2  -2   4 212909. 651.654  11
   2   2  -4 230557. 929.324   1
  -2  -2   4 229472. 813.889   1
  -2  -2   4 211724. 1336.30   9
  -2  -2   4 226009. 1298.08   8
  -2  -2   4 218700. 1141.91   3
  -2  -2   4 227961. 1835.45   6
  -2  -2   3 1350.87 147.383   9
  -2  -2   3 1445.38 98.6225   1
  -2  -2   3 1488.37 318.344   6
   2   2  -3 1765.88 162.754   9
   2   2  -3 1462.06 297.473   6
  -2  -2   3 1398.59 59.6907  11
  -2  -2   3 1473.49 128.058   3
   2   2  -3 1517.75 111.469   1
   2   2  -3 1149.25 137.319   3
   2   2  -2 346567. 1450.60   9
  -2  -2   2 349179. 1449.81   9
  -2  -2   1 2672.75 129.638   2
   2   2  -1 2825.67 118.090  11
   2   2  -1 2909.88 141.274   1
  -2  -2   1 2770.08 151.086   9
   2   2  -1 2331.79 211.063   6
   2   2  -1 2334.58 151.203   9
  -2  -2   1 2586.11 129.908   1
  -2  -2   1 3225.29 121.833  11
   2   2  -1 2483.56 123.936   3
   2   2  -1 2132.39 128.125   7
   2   2   0 758331. 2657.03   6
  -2  -2  -1 102618. 734.511   1
   2   2   1 102413. 651.519   2
  -2  -2  -1 101470. 711.231   9
   2   2   1 100801. 1109.82   6
  -2  -2  -1 97620.5 657.788  10
  -2  -2  -1 99762.0 699.560  11
   2   2   1 109299. 705.456  11
   2   2   1 108660. 718.771   1
  -2  -2  -1 90646.5 929.427   6
   2   2   1 98925.5 727.611   9
  -2  -2  -1 102303. 640.905   2
  -2  -2  -2 712394. 2345.33   4
   2   2   2 720036. 3103.23   6
   2   2   3 124188. 827.754  10
   2   2   3 120744. 846.847   9
   2   2   3 146980. 925.895   1
  -2  -2  -3 143840. 1060.41  11
  -2  -2  -3 129298. 1335.86   6
  -2  -2  -3 125118. 842.035   2
  -2  -2  -3 137286. 997.290   1
  -2  -2  -3 132465. 903.038   9
   2   2   3 121132. 760.016   2
   2   2   4 94678.3 779.423  10
   2   2   4 98099.6 829.407   9
  -2  -2  -4 99347.0 1260.80   6
  -2  -2  -4 96800.6 872.082   1
   2   2   4 96116.4 738.642   2
  -2  -2  -5 149997. 1224.35   1
  -2  -2  -5 157807. 1246.27  11
  -2  -2  -5 163372. 1735.70   6
   2   2   5 144098. 1038.60   9
   2   2   5 149356. 978.836   2
   2   2   6 5286.67 269.202   9
  -2  -2  -6 5221.48 320.772  11
  -2  -2  -6 5969.89 512.337   6
   2   2   6 5304.86 244.356   2
   2   2   7 111563. 1071.11   9
   2   2   7 112114. 979.513   2
   2   2   8 4816.37 271.584   2
   2   2   8 4872.95 302.622   9
   2   2   9 88127.5 1057.68   9
   2   2   9 87428.6 972.356   2
  -2  -2 -10 3523.53 567.694   6
   2   2  10 2980.33 310.624   9
   2   2  10 3530.79 292.615   2
  -2  -2 -11 66065.4 1527.33   6
   2   2  11 64605.2 946.946   2
   2   2  12 1283.32 279.403   2
  -2  -2 -12 1256.37 598.034   6
   2   2  12 1666.39 332.998   9
   2   3 -14 43617.5 1347.54   6
  -2  -3  14 47949.0 918.933   8
  -2  -3  13 73462.1 1234.88   2
   2   3 -13 61811.7 1494.61   6
  -2  -3  13 64635.4 988.984   8
   2   3 -13 75139.0 1293.62   3
  -2  -3  12 53236.8 978.339   2
   2   3 -12 54324.3 1370.32   6
  -2  -3  12 55891.1 919.690   8
  -2  -3  12 56183.1 1059.75   4
  -2  -3  11 41986.9 879.991   2
  -2  -3  11 40020.2 913.794   4
  -2  -3  11 39422.1 745.923   8
   2   3 -11 40152.7 1183.60   6
  -2  -3  10 76227.7 993.182   8
   2   3 -10 71463.6 1417.35   6
  -2  -3  10 72639.3 1186.95   4
  -2  -3  10 73940.5 1067.66   2
  -2  -3   9 1207.42 116.754  11
   2   3  -9 1586.61 266.036   3
   2   3  -9 1537.11 457.808   6
  -2  -3   9 1525.40 240.150   8
  -2  -3   9 1047.59 61.2630   1
   2   3  -8 73073.0 1336.85   6
  -2  -3   8 74579.6 914.606   8
  -2  -3   8 76681.4 464.104  11
  -2  -3   8 78091.5 439.522   1
   2   3  -8 77430.3 959.671   3
   2   3  -7 5246.13 297.954   3
   2   3  -7 4674.05 477.475   6
  -2  -3   7 3722.65 479.886   6
   2   3  -7 5964.77 181.750   1
  -2  -3   7 4917.99 289.695   8
  -2  -3   7 4352.27 99.9443  11
  -2  -3   7 5570.71 145.980   1
   2   3  -6 148791. 1792.05   6
   2   3  -6 144891. 1201.56   3
  -2  -3   6 136778. 1757.40   6
  -2  -3   6 152051. 1209.36   8
   2   3  -6 163165. 846.259   1
  -2  -3   6 152503. 703.517   1
   2   3  -5 1438.43 182.057   3
  -2  -3   5 1652.06 113.510   1
  -2  -3   5 1669.72 391.463   6
   2   3  -5 1665.03 403.854   6
  -2  -3   5 1884.66 186.441   8
   2   3  -5 1747.95 122.380   1
  -2  -3   5 1717.52 135.507   7
  -2  -3   5 1643.18 185.382   3
   2   3  -4 447304. 2909.13   6
   2   3  -4 484333. 1517.20   1
  -2  -3   4 423424. 1687.36   3
  -2  -3   4 452122. 1344.43   1
   2   3  -4 461927. 2004.74   9
  -2  -3   4 443950. 2952.65   6
  -2  -3   4 444826. 1915.22   8
  -2  -3   4 435873. 2009.00   9
   2   3  -4 425955. 1887.17   3
  -2  -3   3 56123.4 511.537   1
   2   3  -3 54240.1 662.498   9
  -2  -3   3 47644.8 539.221   3
  -2  -3   3 53192.6 684.423   9
   2   3  -3 49506.9 294.998  11
   2   3  -3 56200.1 518.196   1
  -2  -3   3 55414.0 1128.66   6
   2   3  -3 54856.9 670.130   3
   2   3  -3 52059.5 1010.37   6
   2   3  -2 249909. 1102.08   1
  -2  -3   2 253485. 1131.09   1
  -2  -3   2 236312. 765.301  11
   2   3  -2 253522. 1497.19   6
  -2  -3   2 252442. 1356.63   9
   2   3  -2 251195. 1369.65   9
  -2  -3   2 240840. 1114.22   3
   2   3  -2 226593. 1143.29   3
   2   3  -2 224563. 762.501  11
   2   3  -2 246345. 2101.94   6
  -2  -3   1 258310. 1170.20   2
  -2  -3   1 252780. 1264.84   9
   2   3  -1 242272. 1613.28   6
   2   3  -1 240179. 1270.32   9
   2   3  -1 260419. 1214.10   1
  -2  -3   1 241231. 934.030  11
   2   3  -1 245908. 952.436  11
  -2  -3   1 264649. 1267.98   1
   2   3  -1 233721. 1118.30   3
   2   3  -1 231844. 2145.60   6
   2   3   0 333756. 1229.33  11
  -2  -3   0 309679. 1210.59  11
  -2  -3   0 325392. 1430.72   1
   2   3   0 306890. 1388.10   9
  -2  -3   0 331897. 1394.09   9
   2   3   0 341217. 1422.91   1
   2   3   0 340455. 2089.53   6
   2   3   0 320603. 1273.02   3
   2   3   0 337246. 1362.95   2
  -2  -3   0 337015. 1295.22   2
  -2  -3  -1 421066. 1780.71   1
   2   3   1 421828. 1554.50  11
  -2  -3  -1 400056. 1530.28  10
  -2  -3  -1 416604. 1581.61  11
   2   3   1 393542. 1551.87   9
  -2  -3  -1 382663. 2011.63   6
  -2  -3  -1 393474. 1428.04   2
  -2  -3  -1 424418. 1576.55   9
   2   3   1 404951. 1469.44   2
  -2  -3  -2 29351.9 442.161   9
  -2  -3  -2 28060.7 484.612  11
   2   3   2 26686.5 428.943   9
   2   3   2 26149.5 391.791   2
  -2  -3  -2 28332.0 500.454   1
   2   3   2 29028.3 455.844  11
  -2  -3  -3 141974. 1156.85   1
   2   3   3 136629. 980.930   9
  -2  -3  -3 137750. 1393.83   6
  -2  -3  -3 143785. 1129.24  11
   2   3   3 138672. 904.674   2
  -2  -3  -4 392.079 175.272   1
   2   3   4 357.109 133.764   9
   2   3   4 467.844 142.144  10
  -2  -3  -4 205.755 252.691   6
   2   3   4 415.510 124.030   2
   2   3   5 64076.8 720.740  10
   2   3   5 66037.3 756.988   9
   2   3   5 64758.7 689.939   2
  -2  -3  -5 64763.1 1071.01   6
   2   3   6 6013.52 254.782   2
  -2  -3  -6 6881.59 480.789   6
   2   3   6 5893.21 279.895   9
   2   3   6 6046.19 278.500  10
   2   3   7 77166.5 906.016   9
  -2  -3  -7 79596.2 1315.49   6
   2   3   7 79859.4 924.291  10
   2   3   7 76460.6 854.925   2
   2   3   8 15747.2 470.153  10
   2   3   8 16343.7 478.067   9
   2   3   8 16451.8 449.984   2
   2   3   9 52799.7 838.351   9
   2   3   9 55213.6 806.505   2
   2   3  10 16032.6 540.438  10
   2   3  10 14951.7 513.251   9
  -2  -3 -10 16669.8 838.338   6
   2   3  10 16331.3 492.800   2
  -2  -3 -11 75619.6 1581.46   6
   2   3  11 74338.8 1124.87   9
   2   3  11 79237.2 1071.91   2
   2   3  11 75981.8 1141.71  10
  -2  -4  14 62076.7 1213.27   2
  -2  -4  14 58272.5 1012.71   8
   2   4 -13 10587.5 631.469   3
  -2  -4  13 9631.40 518.622   2
  -2  -4  13 8897.54 468.232   8
  -2  -4  12 62415.3 1127.25   2
   2   4 -12 52074.7 1403.56   6
  -2  -4  12 58410.2 1288.01   4
  -2  -4  12 57395.4 897.770   8
   2   4 -12 66413.4 1231.37   3
  -2  -4  11 6406.70 366.009   8
   2   4 -11 6556.78 431.417   3
  -2  -4  10 53700.3 848.282   8
   2   4 -10 52022.9 935.501   3
   2   4  -9 2714.73 308.225   3
  -2  -4   9 3376.81 289.754   8
   2   4  -9 3325.29 563.248   6
   2   4  -8 136038. 1972.07   6
   2   4  -8 132008. 1322.86   3
  -2  -4   8 137082. 1185.96   7
  -2  -4   8 144542. 809.813   1
  -2  -4   8 141598. 1295.57   8
   2   4  -8 147067. 825.161   1
   2   4  -7 15416.0 485.342   3
   2   4  -7 16102.1 802.180   6
  -2  -4   7 16832.3 476.417   8
   2   4  -7 16934.0 299.307   1
  -2  -4   7 16594.1 297.878   1
   2   4  -6 160429. 1350.70   3
   2   4  -6 166762. 2077.36   6
  -2  -4   6 180854. 1350.76   8
  -2  -4   6 180110. 951.778   1
  -2  -4   6 182837. 1008.05   7
   2   4  -6 168467. 914.625   1
   2   4  -5 145367. 1220.99   3
   2   4  -5 150386. 1964.38   6
  -2  -4   5 145991. 895.908   1
  -2  -4   5 148514. 1143.45   8
   2   4  -4 169607. 2019.10   6
   2   4  -4 161941. 972.288   1
   2   4  -4 174643. 1314.66   9
  -2  -4   4 167740. 1259.71   8
  -2  -4   4 176736. 1062.90   1
   2   4  -4 173688. 1291.59   3
   2   4  -3 292580. 1336.37   1
   2   4  -3 281663. 789.831  11
   2   4  -3 319078. 1665.79   9
  -2  -4   3 309437. 1472.45   8
   2   4  -3 320810. 2707.35   6
  -2  -4   3 322628. 1437.06   1
   2   4  -3 309824. 1597.22   3
   2   4  -2 70705.5 487.221  11
  -2  -4   2 80084.0 762.627   1
   2   4  -2 77622.8 813.380   9
   2   4  -2 79197.4 456.247   7
  -2  -4   2 81516.9 842.866   9
   2   4  -2 78203.5 742.704   3
   2   4  -2 73653.2 1341.39   6
   2   4  -1 299313. 1158.45  11
   2   4  -1 301581. 1542.20   9
   2   4  -1 298009. 1368.03   3
   2   4  -1 299176. 1091.16   7
  -2  -4   1 302013. 1553.15   1
   2   4   0 21881.1 421.531   9
  -2  -4   0 24550.2 426.771   9
   2   4   0 25600.1 406.973  11
   2   4   0 22967.3 398.431   3
   2   4   0 23380.0 874.797   6
  -2  -4   0 24330.2 495.711   1
  -2  -4  -1 177138. 1097.01   9
  -2  -4  -1 172361. 1335.19   1
   2   4   1 162867. 1041.45   2
   2   4   1 161946. 1104.39   9
   2   4   1 163227. 1033.07  11
   2   4   1 157445. 2101.71   6
   2   4   2 12168.2 309.622   2
   2   4   2 11955.0 323.888   9
  -2  -4  -2 12913.8 437.763   6
   2   4   3 83700.1 777.828   2
  -2  -4  -3 84711.7 1127.09   6
   2   4   3 81966.6 808.257   9
  -2  -4  -4 23901.1 654.872   6
   2   4   4 23512.9 471.127   9
  -2  -4  -4 23370.0 605.553   1
   2   4   4 22819.1 432.850   2
  -2  -4  -5 68461.8 1129.68   6
   2   4   5 67063.0 756.829   2
   2   4   6 38995.4 657.661  10
   2   4   6 40169.5 652.382   9
  -2  -4  -6 41261.8 932.827   6
   2   4   6 37782.8 598.230   2
   2   4   7 76683.5 945.811  10
  -2  -4  -7 77907.6 1303.24   6
   2   4   7 74875.2 864.605   2
   2   4   7 78444.2 952.509   9
  -2  -4  -8 73111.3 1338.24   6
   2   4   8 72210.1 979.737  10
   2   4   8 72604.2 975.863   9
   2   4   8 75912.7 924.076   2
   2   4   9 42861.5 800.363  10
   2   4   9 45686.8 828.998   9
  -2  -4  -9 45779.9 1142.34   6
   2   4   9 44721.8 772.976   2
   2   4  10 48050.4 890.449   9
   2   4  10 47495.4 880.753  10
  -2  -4 -10 49600.1 1241.00   6
   2   4  10 51224.0 844.484   2
   2   5 -14 40570.6 1094.31   3
  -2  -5  14 38536.1 848.838   8
  -2  -5  14 41269.0 1062.83   2
   2   5 -13 1096.41 401.520   3
   2   5 -13 432.842 670.083   6
  -2  -5  13 619.969 283.033   8
  -2  -5  13 983.850 346.807   2
  -2  -5  12 44237.7 848.515   8
   2   5 -12 42126.3 997.809   3
   2   5 -11 18173.4 1042.43   6
   2   5 -11 19132.8 661.928   3
   2   5 -10 65241.5 1624.56   6
   2   5 -10 65299.0 1103.22   3
   2   5  -9 49249.4 912.508   3
   2   5  -9 52382.6 1429.02   6
   2   5  -8 83295.2 1161.10   3
   2   5  -8 93403.0 1827.11   6
  -2  -5   8 91829.4 913.682   7
  -2  -5   8 88031.8 1047.83   8
   2   5  -8 77539.2 657.975   1
  -2  -5   7 154486. 1075.41   1
   2   5  -7 161032. 1484.21   3
   2   5  -7 158521. 2292.66   6
  -2  -5   7 154586. 1351.33   8
   2   5  -6 66417.9 943.071   3
   2   5  -6 61997.5 1469.08   6
   2   5  -6 52459.0 590.094   1
  -2  -5   6 66254.1 738.663   1
  -2  -5   6 51397.3 470.763   7
  -2  -5   6 61765.7 822.574   8
  -2  -5   5 293844. 1581.61   1
  -2  -5   5 289101. 1659.09   8
   2   5  -5 291448. 2946.44   6
  -2  -5   4 243.835 176.477   1
   2   5  -4 264.552 38.5141  11
   2   5  -4 835.466 473.750   6
  -2  -5   4 414.916 178.473   8
   2   5  -4 1052.75 246.938   3
   2   5  -3 278034. 2841.59   6
  -2  -5   3 281150. 1640.08   1
   2   5  -3 277237. 948.674  11
  -2  -5   3 278861. 1590.38   8
   2   5  -2 4161.46 551.439   6
   2   5  -2 3913.23 236.192   9
  -2  -5   2 3994.13 283.549   1
   2   5  -2 4772.10 178.669  11
   2   5  -2 4273.05 163.604   7
   2   5  -2 3984.32 238.622   3
   2   5  -1 182620. 1295.52   9
   2   5  -1 185578. 987.572   7
   2   5  -1 182086. 1030.20  11
   2   5  -1 185757. 1221.19   3
   2   5  -1 183285. 2321.11   6
   2   5   0 46998.8 660.300   9
   2   5   0 45917.7 563.458   7
   2   5   0 46982.0 620.438   3
   2   5   0 45841.3 1225.73   6
   2   5   1 60117.5 732.314   2
   2   5   1 55162.3 705.724   9
   2   5   1 59214.6 706.264   3
  -2  -5  -1 57524.1 885.879   1
   2   5   1 56932.5 1420.15   6
   2   5   2 53392.4 650.637   2
   2   5   2 56912.5 706.812   9
   2   5   2 56091.5 1460.88   6
   2   5   3 32977.3 543.030   2
   2   5   3 35088.2 585.246   9
   2   5   4 55083.3 735.261   2
   2   5   4 49507.3 682.501   9
   2   5   5 27276.4 542.915   2
  -2  -5  -5 27650.1 724.677   6
   2   5   5 26955.0 543.966   9
   2   5   6 128263. 1191.14   9
  -2  -5  -6 131044. 1589.51   6
   2   5   7 9473.79 396.330   9
  -2  -5  -7 9980.60 568.433   6
   2   5   7 9079.10 372.119   2
  -2  -5  -8 106273. 1549.69   6
   2   5   8 109779. 1166.72   2
  -2  -5  -9 2698.73 475.846   6
   2   5   9 2672.42 307.383   9
   2   5   9 2439.38 290.021   2
  -2  -6  13 16305.4 619.497   8
   2   6 -13 15336.3 736.353   3
   2   6 -12 16836.7 694.752   3
   2   6 -12 16048.6 1133.26   6
   2   6 -11 67659.4 1818.83   6
   2   6 -11 69963.4 1246.35   3
   2   6 -10 34453.3 858.611   3
  -2  -6  10 35898.5 773.479   8
   2   6  -9 136925. 1599.03   3
  -2  -6   9 137241. 1389.10   8
   2   6  -8 547.238 278.008   3
   2   6  -8 960.944 617.728   6
  -2  -6   8 993.765 237.810   8
   2   6  -7 222256. 2893.78   6
  -2  -6   7 220141. 1658.83   8
   2   6  -6 8733.60 801.216   6
  -2  -6   6 7177.65 353.375   8
   2   6  -6 9141.78 431.772   3
   2   6  -5 157676. 2391.38   6
  -2  -6   5 156778. 1247.87   8
   2   6  -4 41130.6 1301.77   6
   2   6  -4 40292.5 316.406  11
  -2  -6   4 40608.0 638.226   8
   2   6  -3 58983.3 501.951  11
   2   6  -3 57899.1 828.948   3
  -2  -6   3 58151.7 900.648   1
   2   6  -3 58298.4 829.492   9
  -2  -6   3 56811.3 773.494   8
   2   6  -3 60516.7 598.668   7
   2   6  -2 47085.9 547.598  11
  -2  -6   2 46329.0 833.321   1
  -2  -6   2 44413.4 644.573   8
   2   6  -2 43932.9 697.689   9
   2   6  -2 43614.4 675.491   3
   2   6  -2 48960.8 531.047   7
   2   6  -2 43918.8 1312.65   6
   2   6  -1 33061.7 604.226   3
   2   6  -1 33106.5 610.463   9
   2   6  -1 34801.5 505.451   7
   2   6  -1 31983.6 1141.60   6
   2   6   0 42081.1 674.993   9
   2   6   0 43601.1 606.380   7
   2   6   0 44213.8 678.152   3
   2   6   1 9639.18 350.567   3
   2   6   1 10094.3 361.228   9
   2   6   1 9775.28 344.142   7
   2   6   1 10332.4 773.113   6
   2   6   2 99932.1 1007.17   9
   2   6   2 103000. 1091.84   7
   2   6   2 100856. 1001.20   3
   2   6   2 103753. 1042.48   2
   2   6   3 8372.99 344.991   9
   2   6   3 8060.77 327.372   2
   2   6   3 8711.23 846.305   6
   2   6   4 124767. 1167.46   9
   2   6   4 123563. 1166.03   2
   2   6   5 771.207 221.797   2
   2   6   5 604.446 213.563   9
   2   6   6 153067. 1340.46   9
   2   6   6 153845. 1391.31   2
   2   6   6 155335. 2939.46   6
   2   6   7 6264.13 356.931   2
   2   6   7 5256.05 327.905   9
   2   6   8 40547.3 788.311   2
   2   7 -12 231.427 823.221   6
   2   7 -12 499.704 418.657   3
  -2  -7  12 598.072 311.121   8
   2   7 -11 107176. 1567.53   3
  -2  -7  11 103278. 1268.79   8
   2   7 -10 2193.33 411.477   3
   2   7 -10 2006.42 767.416   6
  -2  -7  10 1788.19 310.919   8
   2   7  -9 105861. 2281.25   6
  -2  -7   9 104352. 1222.30   8
   2   7  -8 30716.1 1324.34   6
  -2  -7   8 30987.0 682.269   8
   2   7  -7 60935.9 1696.02   6
  -2  -7   7 65606.1 926.929   8
  -2  -7   6 46138.7 787.527   8
   2   7  -6 49003.2 903.793   3
   2   7  -5 32078.7 1283.03   6
  -2  -7   5 33356.0 640.078   8
   2   7  -4 42009.6 1437.89   6
  -2  -7   4 43192.7 670.461   8
   2   7  -3 19034.8 1053.93   6
  -2  -7   3 19929.6 464.349   8
   2   7  -3 21946.6 432.901   7
   2   7  -3 21400.1 578.007   3
   2   7  -2 82790.3 1906.15   6
  -2  -7   2 87507.3 955.912   8
   2   7  -2 83159.7 982.539   3
   2   7  -1 11649.2 408.610   9
   2   7  -1 12306.2 349.847   7
  -2  -7   1 10988.1 358.685   8
   2   7  -1 11681.7 441.656   3
   2   7   0 86841.6 1016.59   9
   2   7   0 84034.6 970.946   3
   2   7   1 935.468 255.923   3
   2   7   1 1023.12 221.251   7
   2   7   1 751.663 198.426   9
   2   7   2 141426. 1356.79   7
   2   7   2 137534. 1266.51   9
   2   7   2 132026. 1216.73   3
   2   7   2 130274. 2471.55   6
   2   7   3 14692.0 480.805   2
   2   7   3 15399.7 506.040   7
   2   7   3 15836.0 495.757   3
   2   7   4 113995. 1343.89   7
   2   7   4 116393. 1209.99   2
   2   7   4 116952. 2481.85   6
   2   7   4 112932. 1169.18   9
   2   7   5 30786.1 653.582   2
   2   7   5 32450.4 791.573   7
   2   7   5 33736.9 1564.50   6
   2   7   6 40193.1 788.681   2
   2   7   6 38516.6 1715.39   6
   2   7   7 30158.2 709.287   2
   2   7   7 28683.1 1650.51   6
   2   8 -11 62666.8 1291.16   3
  -2  -8  11 55200.3 979.015   8
   2   8 -10 49128.2 1796.13   6
  -2  -8  10 51974.1 931.576   8
   2   8  -9 35906.2 1564.29   6
  -2  -8   9 35229.5 747.206   8
  -2  -8   8 53294.6 894.006   8
   2   8  -8 48423.3 1688.50   6
   2   8  -7 14352.8 604.550   3
  -2  -8   7 12414.0 453.448   8
  -2  -8   6 56910.5 870.636   8
   2   8  -6 61425.0 1078.48   3
   2   8  -5 1769.27 734.080   6
  -2  -8   5 2675.09 285.247   8
   2   8  -5 2068.88 340.722   3
   2   8  -4 67972.5 1872.32   6
  -2  -8   4 76793.3 939.342   8
   2   8  -3 529.706 689.210   6
   2   8  -3 872.366 308.700   3
  -2  -8   3 807.498 209.609   8
   2   8  -2 68618.7 973.822   9
   2   8  -2 68454.9 1007.59   3
  -2  -8   1 24925.4 544.536   8
   2   8  -1 25018.0 603.622   9
   2   8  -1 23579.8 605.807   3
  -2  -8   0 107568. 1037.86   8
   2   8   0 108027. 1157.00   9
   2   8   1 51393.1 870.050   9
   2   8   1 49702.5 856.802   3
   2   8   2 55614.9 875.394   7
   2   8   2 58885.9 1858.65   6
   2   8   3 61730.9 949.615   3
   2   8   3 59283.0 1944.68   6
   2   8   4 23684.5 654.676   2
   2   8   4 24537.8 693.719   7
   2   8   4 24604.0 638.642   3
   2   8   4 25167.0 1445.72   6
   2   8   5 42784.1 942.781   7
   2   8   5 42955.0 1830.17   6
   2   8   5 44928.8 873.970   2
   2   9  -9-135.255 419.861   3
  -2  -9   9 148.160 273.639   8
   2   9  -8 33414.4 1586.91   6
  -2  -9   8 37005.4 744.877   8
   2   9  -7 1492.07 390.418   3
  -2  -9   7 1077.96 280.512   8
   2   9  -7 576.178 875.625   6
  -2  -9   6 38084.0 722.016   8
   2   9  -6 41417.4 965.089   3
  -2  -9   5 5741.49 346.080   8
   2   9  -5 6625.59 467.781   3
  -2  -9   4 66666.6 900.553   8
   2   9  -4 73508.6 1255.52   3
   2   9  -3 25043.1 1419.91   6
  -2  -9   3 25670.0 564.203   8
   2   9  -3 27817.8 769.195   3
   2   9  -2 21629.2 1309.92   6
   2   9  -2 22609.5 678.573   3
   2   9  -1 68573.2 2047.94   6
   2   9  -1 74904.3 1081.99   3
   2   9   0 25720.4 1436.93   6
   2   9   0 31435.5 793.071   3
   2   9   1 80795.0 1161.19   3
   2   9   1 73055.2 2173.11   6
   2   9   2 1396.06 831.537   6
   2   9   2 2144.62 324.306   3
  -3   9   3 11276.4 595.175   7
  -3   9   3 12344.8 518.603   3
  -3   9   2 60393.7 1034.16   3
  -3   9   2 57544.3 1202.91   7
  -3   9   1 2966.98 937.263   6
  -3   9   1 2141.63 378.771   7
  -3   9   1 2377.50 328.660   3
  -3   9   0 124603. 2770.47   6
  -3   9   0 124536. 1428.58   3
  -3   9  -1 73.1614 270.633  11
  -3   9  -1 645.328 312.504   3
  -3   9  -1-191.142 818.138   6
  -3   9  -1 60.9365 363.027   7
  -3   9  -2 103118. 2582.65   6
  -3   9  -2 105171. 1210.51  11
  -3   9  -3 6135.95 1086.37   6
  -3   9  -3 6563.10 368.640  11
  -3   9  -3 7802.45 617.016   7
  -3   9  -3 7571.61 503.530   3
  -3   9  -4 67335.7 2184.06   6
  -3   9  -4 65339.1 1342.42   7
  -3   9  -5 20225.6 709.773   3
  -3   9  -5 15924.6 1338.80   6
  -3   9  -5 18760.1 817.730   5
  -3   9  -5 14786.3 776.263   7
  -3   9  -6 16741.8 703.765   3
  -3   9  -6 11976.3 1247.95   6
  -3   9  -6 14987.4 749.330   5
  -3   9  -6 11313.7 741.380   7
  -3   8   6 24539.5 1413.79   6
  -3   8   6 23023.6 571.246   2
  -3   8   5 532.075 266.020   3
  -3   8   5 1227.24 814.870   6
  -3   8   5 264.711 350.415   7
  -3   8   5 654.978 231.005   2
  -3   8   4 111176. 2502.65   6
  -3   8   4 113365. 1237.68   3
  -3   8   3 4748.47 906.134   6
  -3   8   3 4529.11 450.485   7
  -3   8   3 5161.04 360.684   3
  -3   8   2 142411. 2743.92   6
  -3   8   2 144020. 1683.95   7
  -3   8   2 142418. 1352.74   3
  -3   8   1 11246.4 468.412   3
  -3   8   1 12384.3 583.943   7
  -3   8   0 121247. 2551.39   6
  -3   8   0 117899. 1494.03   7
  -3   8   0 120376. 1286.22   3
  -3   8  -1 45684.2 873.362   3
  -3   8  -1 46930.1 859.808  11
  -3   8  -2 45565.8 799.326  11
  -3   8  -2 45443.0 1042.52   7
  -3   8  -2 45658.0 923.816   3
  -3   8  -3 43549.5 1724.67   6
  -3   8  -3 45806.7 751.132  11
  -3   8  -3 43425.4 1065.37   7
  -3   8  -3 47496.3 930.923   3
  -3   8  -4 8737.23 595.367   7
  -3   8  -4 9847.21 379.586  11
   3  -8   4 7392.83 305.420   8
  -3   8  -4 8197.57 994.437   6
  -3   8  -4 10429.9 518.876   3
  -3   8  -5 44827.0 1772.12   6
  -3   8  -5 47016.5 700.944  11
  -3   8  -5 48561.5 1142.77   5
  -3   8  -5 44971.0 1149.43   7
  -3   8  -6 44.6789 354.102   3
  -3   8  -6 268.051 772.003   6
  -3   8  -6 207.920 375.333   5
   3  -8   6 297.962 214.260   8
  -3   8  -6 317.524 419.266   7
   3  -8   7 55670.9 826.178   8
  -3   8  -7 59053.4 2022.56   6
  -3   8  -7 59476.4 1643.69   7
  -3   8  -8 1149.50 397.234   3
   3  -8   8 260.268 256.281   8
  -3   8  -8 338.884 903.595   6
   3  -8   9 56500.4 948.353   8
  -3   8  -9 53080.1 2058.76   6
  -3   7   8 26087.4 616.340   2
  -3   7   8 26213.6 902.477   7
  -3   7   7 2275.51 266.611   2
  -3   7   7 2578.52 844.561   6
  -3   7   7 3377.91 437.399   7
  -3   7   6 94833.8 2151.95   6
  -3   7   6 95554.5 1477.83   7
  -3   7   5 20331.2 1147.36   6
  -3   7   5 19777.5 495.225   2
  -3   7   5 21741.9 723.584   7
  -3   7   4 106770. 2172.80   6
  -3   7   4 98330.3 981.034   2
  -3   7   4 110129. 1485.46   7
  -3   7   4 102828. 1061.09   3
  -3   7   3 83229.8 1984.32   6
  -3   7   3 83926.9 1269.08   7
  -3   7   3 79762.2 944.982   3
  -3   7   2 90536.8 1304.78   7
  -3   7   2 90158.3 1012.76   3
  -3   7   1 86508.5 2016.24   6
  -3   7   1 84841.0 1206.08   7
  -3   7   0 31940.4 1338.72   6
  -3   7   0 32055.9 617.017   3
  -3   7   0 33307.2 797.339   7
  -3   7  -1 74869.0 1889.94   6
  -3   7  -1 74966.8 987.553   3
  -3   7  -1 74893.0 1190.45   7
  -3   7  -2 208.866 209.339  11
  -3   7  -2 132.033 253.894   3
  -3   7  -2 546.160 670.355   6
  -3   7  -2 511.184 301.064   7
  -3   7  -3 53131.7 1677.20   6
  -3   7  -3 62406.8 855.500  11
  -3   7  -3 55823.7 1147.41   7
  -3   7  -3 59881.4 960.937   3
  -3   7  -4 4183.39 780.174   6
  -3   7  -4 3902.18 274.994  11
  -3   7  -4 3886.29 414.027   5
   3  -7   4 3343.94 238.775   8
  -3   7  -4 4324.35 453.451   7
  -3   7  -4 4296.39 383.657   3
  -3   7  -5 51563.2 949.340   3
  -3   7  -5 43560.2 1596.26   6
  -3   7  -5 46655.0 1049.62   5
  -3   7  -5 49643.1 692.999  11
  -3   7  -5 44522.4 1103.28   7
  -3   7  -6 18381.3 649.268   3
  -3   7  -6 14190.6 1121.04   6
  -3   7  -6 15718.5 422.378  11
  -3   7  -6 14683.8 756.425   7
  -3   7  -6 16054.5 713.781   5
   3  -7   6 12438.3 416.761   8
  -3   7  -7 91800.6 1345.28   3
  -3   7  -7 78249.7 2164.06   6
  -3   7  -7 92252.2 909.504  11
   3  -7   7 76158.8 963.692   8
  -3   7  -8 16072.5 1223.08   6
   3  -7   8 17598.5 535.864   8
  -3   7  -9 52942.5 1911.38   6
   3  -7   9 50411.6 864.086   8
   3  -7  10 31850.1 779.876   2
   3  -7  10 33715.9 784.181   8
  -3   6  10 37015.4 748.499   2
  -3   6  10 36912.5 1082.46   7
  -3   6   9 5150.84 505.572   7
  -3   6   9 4735.22 304.954   2
  -3   6   8 53909.1 1197.53   7
  -3   6   8 50838.2 777.226   2
  -3   6   7 71624.9 1290.09   7
  -3   6   7 67115.1 827.177   2
  -3   6   6 112744. 1044.82   2
  -3   6   6 117078. 1554.49   7
  -3   6   5 150954. 1159.43   2
  -3   6   5 154694. 1708.11   7
  -3   6   4 35627.6 1255.02   6
  -3   6   4 34535.9 822.537   7
  -3   6   3 124453. 2174.48   6
  -3   6   3 121639. 1418.79   7
  -3   6   2 9468.18 484.126   7
  -3   6   2 8977.73 348.984   3
  -3   6   1 96601.5 1941.12   6
  -3   6   1 96943.3 1230.22   7
  -3   6   1 99065.3 948.475   3
  -3   6   0 243.443 170.376   3
  -3   6   0 603.264 555.058   6
  -3   6   0 291.152 252.337   7
  -3   6  -1 33139.9 1255.58   6
  -3   6  -1 34984.4 676.620  11
   3  -6   1 27586.3 361.859   9
  -3   6  -1 36206.1 531.733   8
   3  -6   1 30144.1 307.132   9
  -3   6  -1 34819.7 793.244   7
  -3   6  -1 33554.1 625.437   3
  -3   6  -2 34880.5 1292.88   6
  -3   6  -2 37396.3 665.522  11
  -3   6  -2 35162.6 548.205   8
   3  -6   2 32369.5 476.414   9
  -3   6  -2 35310.4 853.705   7
  -3   6  -2 37605.8 724.974   3
  -3   6  -3 84141.2 1861.56   6
  -3   6  -3 92496.3 945.615  11
   3  -6   3 80519.3 743.247   8
  -3   6  -3 95178.0 1460.63   7
  -3   6  -3 94349.0 1102.01   3
  -3   6  -4 18899.7 535.355   3
  -3   6  -4 18345.6 1058.15   6
  -3   6  -4 19959.7 457.907  11
  -3   6  -4 20347.0 688.919   5
  -3   6  -4 19709.2 737.221   7
  -3   6  -5 125633. 1361.87   3
  -3   6  -5 111288. 2268.05   6
  -3   6  -5 115525. 1557.74   5
  -3   6  -5 127682. 1783.32   7
  -3   6  -5 124169. 1034.63  11
  -3   6  -6 80197.6 1151.71   3
  -3   6  -6 71645.6 1880.10   6
  -3   6  -6 81402.8 914.324   1
   3  -6   6 66880.9 844.505   8
  -3   6  -6 76112.0 1514.10   7
  -3   6  -6 77854.2 817.469  11
  -3   6  -7 64936.9 1063.65   3
  -3   6  -7 69252.8 782.940  11
  -3   6  -7 57676.2 1819.18   6
  -3   6  -7 65361.0 733.920   1
   3  -6   7 55578.1 819.117   8
  -3   6  -8 72714.0 2004.67   6
   3  -6   8 77149.2 1001.78   8
  -3   6  -9 11236.5 1094.43   6
  -3   6  -9 15848.1 443.955  11
   3  -6   9 12797.0 486.016   2
  -3   6  -9 14727.1 613.665   3
   3  -6   9 13083.5 481.245   8
   3  -6  10 84715.1 2013.51   4
  -3   6 -10 89304.2 2321.46   6
  -3   6 -10 100436. 1521.74   3
   3  -6  10 93731.7 1220.24   8
   3  -6  10 96685.4 1272.40   2
   3  -6  11-130.598 613.243   4
  -3   6 -11 218.323 411.326   3
  -3   6 -11 439.354 945.341   6
   3  -6  11-68.8004 318.268   8
   3  -6  11 490.371 268.260   2
  -3   5  11 35415.6 1127.07   7
  -3   5  11 30735.5 681.690   2
  -3   5  10 49186.4 1237.48   7
  -3   5  10 45552.3 765.161   2
  -3   5   9 119226. 1734.16   7
  -3   5   9 105542. 1083.87   2
  -3   5   8 24404.2 817.709   7
  -3   5   8 25869.5 1106.42   6
  -3   5   8 23486.5 507.005   2
  -3   5   7 186268. 1939.33   7
  -3   5   7 180638. 1277.73   2
  -3   5   6 3765.95 377.839   7
  -3   5   6 2971.90 211.129   2
  -3   5   6 3731.71 630.965   6
  -3   5   5 207369. 1889.86   7
  -3   5   5 196960. 1200.75   2
  -3   5   4 1338.42 159.927   2
  -3   5   4 1729.90 287.364   7
  -3   5   3 79736.3 1596.39   6
  -3   5   3 80809.5 1113.75   7
   3  -5  -2 5963.44 224.906  10
  -3   5   2 5562.77 613.581   6
  -3   5   2 5164.16 211.070   2
  -3   5   2 5731.84 355.696   7
  -3   5   2 5550.29 242.436   3
  -3   5   1 70950.1 1516.71   6
  -3   5   1 71374.0 723.193   3
  -3   5   0 49294.6 1283.39   6
   3  -5   0 39773.5 317.772   9
   3  -5   0 39069.9 261.059   9
  -3   5   0 49760.2 858.929   7
  -3   5   0 53875.1 495.292   8
  -3   5   0 50525.3 643.217   3
   3  -5   0 51909.8 543.534   2
  -3   5  -1 73037.6 1613.95   6
   3  -5   1 70731.7 491.592   9
  -3   5  -1 81014.1 686.343   8
  -3   5  -1 78330.5 936.968  11
  -3   5  -1 73049.4 1078.73   7
  -3   5  -1 74800.5 852.323   3
   3  -5   1 75525.6 636.416   2
   3  -5   2 137647. 879.199   2
  -3   5  -2 136718. 2155.41   6
  -3   5  -2 141130. 1143.99  11
  -3   5  -2 145243. 983.758   8
  -3   5  -2 151733. 1692.34   7
  -3   5  -2 144131. 1208.09   3
  -3   5  -3 70454.7 1612.36   6
  -3   5  -3 69469.4 1121.66   5
  -3   5  -3 77246.5 832.358  11
   3  -5   3 66612.1 653.779   8
  -3   5  -3 80350.8 1303.31   7
   3  -5   3 63929.7 659.228   2
  -3   5  -3 78777.4 957.246   3
  -3   5  -4 201822. 1525.89   3
  -3   5  -4 191863. 2653.31   6
   3  -5   4 191900. 1226.64   8
  -3   5  -4 207446. 1290.13  11
  -3   5  -4 194802. 1879.94   5
  -3   5  -4 215186. 2134.06   7
  -3   5  -5 40321.1 743.942   3
  -3   5  -5 39931.3 1359.50   6
  -3   5  -5 41803.8 637.518   1
   3  -5   5 38232.9 582.875   8
  -3   5  -5 43339.0 1043.06   7
  -3   5  -6 216891. 1722.76   3
  -3   5  -6 226605. 1284.65   1
  -3   5  -6 215761. 2948.30   6
   3  -5   6 194200. 1354.74   8
  -3   5  -6 245704. 1442.27  11
  -3   5  -6 236289. 2868.80   7
   3  -5   7 476.213 209.814   8
  -3   5  -7 697.728 150.106   1
  -3   5  -7-71.3793 592.636   6
  -3   5  -7 393.613 252.916   3
  -3   5  -7 439.169 201.427  11
   3  -5   8 112174. 1200.92   2
  -3   5  -8 111752. 2318.05   6
  -3   5  -8 112044. 1351.43   3
  -3   5  -9 7199.11 459.445   3
  -3   5  -9 7798.26 347.088  11
   3  -5   9 7152.37 368.685   2
   3  -5   9 6643.33 713.811   4
   3  -5   9 6404.57 385.861   8
  -3   5  -9 5803.51 850.959   6
  -3   5 -10 42738.1 1663.50   6
   3  -5  10 44710.2 849.947   2
  -3   5 -10 48129.7 773.845  11
  -3   5 -10 51256.6 1100.14   3
   3  -5  10 37809.4 1316.30   4
   3  -5  10 39421.5 816.542   8
   3  -5  11 19481.6 625.751   8
  -3   5 -11 19837.2 1333.51   6
  -3   5 -11 24772.6 848.737   3
  -3   5 -11 24037.4 614.072  11
   3  -5  11 18879.4 1028.57   4
   3  -5  11 21944.2 636.642   2
   3  -5  12 11591.4 520.533   2
   3  -5  12 10732.3 904.049   4
   3  -5  12 10266.9 509.798   8
  -3   4  12 6535.93 389.279  10
  -3   4  12 5997.41 599.593   7
  -3   4  12 7530.51 409.563   2
  -3   4  11 125415. 1870.17   7
  -3   4  11 125334. 1321.12   2
  -3   4  10 381.860 214.041   2
  -3   4  10 21.1412 200.687  10
  -3   4  10 51.7921 374.906   7
  -3   4   9 175711. 2017.84   7
  -3   4   9 172070. 1350.65   2
  -3   4   8 3681.75 245.620   2
  -3   4   8 4290.84 419.759   7
  -3   4   8 3598.16 238.080  10
  -3   4   8 3322.46 170.900   9
  -3   4   8 3717.48 580.673   6
  -3   4   7 161701. 1747.43   7
  -3   4   7 164992. 1117.76  10
  -3   4   7 163883. 1184.30   2
  -3   4   6 17233.0 585.569   6
  -3   4   6 16345.9 282.930   9
  -3   4   6 15086.6 204.544   9
  -3   4   6 19668.9 610.874   7
  -3   4   6 16140.4 364.350   2
  -3   4   6 19979.2 809.429   6
  -3   4   5 65969.9 1313.00   6
  -3   4   5 61055.2 908.360   6
  -3   4   5 62095.4 995.340   7
  -3   4   5 57301.0 606.837   2
  -3   4   4 24124.1 850.193   6
  -3   4   4 23432.4 563.673   6
  -3   4   4 22692.3 593.570   7
  -3   4   3 35811.4 979.955   6
   3  -4  -3 35450.8 472.259   2
  -3   4   3 37474.2 737.560   7
   3  -4  -3 34239.2 986.303   6
  -3   4   2 74266.5 1374.66   6
  -3   4   2 68532.3 564.371   2
   3  -4  -2 84563.0 606.371  10
   3  -4  -2 78583.1 638.939   2
  -3   4   2 76028.4 672.037   3
  -3   4   2 81342.4 1041.69   7
   3  -4  -2 73228.7 1372.82   6
  -3   4   1 12882.5 692.473   6
   3  -4  -1 14315.7 267.270   2
  -3   4   1 13665.7 444.615   7
  -3   4   1 13296.7 302.706   3
  -3   4   1 14980.2 199.408   8
   3  -4  -1 12254.4 682.453   6
  -3   4   0 377777. 3059.62   6
   3  -4   0 397002. 993.025   9
  -3   4   0 429525. 1197.36   8
  -3   4   0 374944. 2171.32   7
  -3   4   0 375204. 1486.09   3
   3  -4   0 414591. 1280.58   2
   3  -4   1 56305.3 486.001   2
   3  -4   1 56678.2 467.325   9
  -3   4  -1 55300.8 738.780  11
  -3   4  -1 59025.9 508.083   8
  -3   4  -1 53014.6 929.100   7
  -3   4  -1 52438.0 659.563   3
  -3   4  -2 208564. 2358.42   6
  -3   4  -2 225037. 1075.22   8
  -3   4  -2 231183. 1397.28  11
   3  -4   2 240328. 1074.82   9
   3  -4   2 219673. 982.714   2
  -3   4  -2 214332. 1814.35   5
   3  -4   2 195144. 1150.37   3
  -3   4  -2 228311. 1978.03   7
  -3   4  -2 216237. 1313.44   3
  -3   4  -3 4322.74 257.046   3
  -3   4  -3 3984.38 545.888   6
  -3   4  -3 4864.53 250.085  11
  -3   4  -3 4331.07 354.973   5
  -3   4  -3 4605.46 399.658   7
  -3   4  -4 322436. 3247.57   6
  -3   4  -4 318946. 2576.68   7
  -3   4  -4 320011. 1556.62  11
   3  -4   4 306478. 1487.55   8
  -3   4  -4 304544. 1544.56   1
  -3   4  -5 17399.9 468.092   3
  -3   4  -5 17462.4 372.660   1
  -3   4  -5 15366.4 870.136   6
  -3   4  -5 16878.7 393.814  11
   3  -4   5 16887.4 420.193   8
  -3   4  -5 17264.1 732.931   7
  -3   4  -6 119485. 1207.32   3
  -3   4  -6 123415. 1003.03  11
  -3   4  -6 119310. 858.694   1
   3  -4   6 116297. 1075.20   8
  -3   4  -6 121347. 2101.60   6
  -3   4  -7 46796.0 1450.87   6
   3  -4   7 49892.8 754.466   2
  -3   4  -7 50605.5 697.333  11
  -3   4  -7 50115.8 851.372   3
   3  -4   7 44678.2 1216.44   4
   3  -4   7 47864.0 743.262   8
  -3   4  -7 51748.3 511.415   1
  -3   4  -8 31750.4 346.155   1
  -3   4  -8 33874.7 591.195  11
   3  -4   8 34859.1 660.420   2
  -3   4  -8 34807.1 1365.35   6
   3  -4   8 32320.3 1106.01   4
   3  -4   8 31800.9 659.886   8
   3  -4   9 59091.0 871.115   2
  -3   4  -9 55863.5 800.275  11
  -3   4  -9 58373.6 1740.84   6
   3  -4   9 58253.4 1420.32   4
   3  -4  10 13783.0 489.203   2
  -3   4 -10 12959.4 1055.13   6
  -3   4 -10 14050.0 461.602  11
   3  -4  10 13754.7 853.422   4
   3  -4  11 44227.0 840.702   2
  -3   4 -11 42173.6 1616.39   6
  -3   4 -11 43772.9 791.735  11
  -3   4 -11 47850.9 1062.41   3
   3  -4  11 39223.8 1253.12   4
   3  -4  12 400.903 540.828   4
   3  -4  12 688.694 268.647   2
  -3   4 -12 844.967 843.052   6
  -3   4 -12 1166.03 314.765  11
  -3   3  13 106518. 1908.04   7
  -3   3  13 103065. 1302.14   2
  -3   3  12 3075.32 503.566   7
  -3   3  12 3519.80 317.678   2
  -3   3  11 125561. 1847.48   7
  -3   3  11 115932. 1237.15   2
  -3   3  10 38962.9 1019.56   7
  -3   3  10 35907.9 662.151   2
  -3   3   9 77892.4 675.993   8
  -3   3   9 84867.3 1358.46   7
  -3   3   9 80401.6 910.640   2
  -3   3   9 85430.1 1579.51   6
  -3   3   8 37880.3 439.067   8
  -3   3   8 38054.1 600.752   2
  -3   3   7 68877.0 680.555  10
  -3   3   7 67818.4 752.944   9
  -3   3   7 75443.8 548.245   8
  -3   3   7 75563.2 1155.93   7
  -3   3   7 70853.2 749.943   2
  -3   3   7 76010.3 1006.58   6
  -3   3   7 79868.9 1322.66   6
  -3   3   6 33859.4 436.424  10
  -3   3   6 37829.4 490.273   9
  -3   3   6 39482.2 351.762   8
  -3   3   6 40395.9 840.946   7
  -3   3   6 32582.5 469.201   2
  -3   3   6 38490.1 685.683   6
  -3   3   6 41086.0 919.751   6
  -3   3   5 9892.53 232.577  10
  -3   3   5 9816.40 214.967   9
  -3   3   5 9789.76 166.147   8
  -3   3   5 9543.81 405.343   7
  -3   3   5 8902.67 245.233   2
  -3   3   5 10232.4 364.070   6
  -3   3   4 108490. 1348.64   6
   3  -3  -4 100632. 791.268   2
  -3   3   4 102764. 499.930   9
  -3   3   4 111609. 943.859   6
  -3   3   4 104902. 500.383   8
  -3   3   4 106587. 1183.83   7
  -3   3   4 99723.4 694.856   2
  -3   3   3 32318.2 797.032   6
  -3   3   3 30584.6 307.801   8
  -3   3   3 31159.8 348.022   2
   3  -3  -3 32169.0 816.583   6
  -3   3   2 256011. 2108.11   6
   3  -3  -2 258955. 2108.68   6
  -3   3   1 1441.86 363.872   6
   3  -3  -1 1382.36 80.3757   9
   3  -3  -1 1307.48 375.554   6
  -3   3   1 1218.57 90.9898   2
  -3   3   1 1310.21 79.8945   8
   3  -3  -1 1447.16 94.6879   2
  -3   3   1 1310.64 212.785   7
  -3   3   1 1427.73 130.620   3
  -3   3   0 634348. 3383.69   6
  -3   3   0 641584. 2878.17   5
  -3   3  -1 21153.4 556.158   5
   3  -3   1 23616.1 255.027   2
   3  -3   1 20931.4 752.153   6
  -3   3  -1 23137.0 770.804   6
   3  -3   1 21359.8 290.656   9
   3  -3   1 21752.4 329.080   3
  -3   3  -1 20864.6 428.774  11
  -3   3  -1 21797.5 304.727   8
  -3   3  -1 23261.9 613.112   7
  -3   3  -1 20888.4 367.023   3
  -3   3  -2 290875. 1376.99   3
  -3   3  -2 319625. 2688.04   6
  -3   3  -2 315886. 1558.60   1
   3  -3   2 318897. 1279.50   9
  -3   3  -2 295937. 2133.42   5
  -3   3  -2 309509. 1165.20   8
   3  -3   2 302242. 1327.18   3
  -3   3  -2 327076. 2322.28   7
  -3   3  -2 303123. 1492.83  11
  -3   3  -3 76908.3 767.565   3
  -3   3  -3 78407.3 1426.48   6
   3  -3   3 79134.5 697.832   9
  -3   3  -3 77184.7 764.113  11
  -3   3  -3 77612.2 1213.87   7
   3  -3   3 76121.4 705.107   3
  -3   3  -3 77763.8 739.347   1
  -3   3  -4 193102. 1265.08   3
  -3   3  -4 186216. 1178.09  11
  -3   3  -4 182291. 1074.42   1
  -3   3  -4 185195. 2197.96   6
  -3   3  -4 183942. 1964.33   7
   3  -3   4 194493. 1262.90   3
  -3   3  -5 144984. 1066.34  11
  -3   3  -5 148102. 2102.84   6
  -3   3  -5 148426. 882.513   1
   3  -3   6 17843.9 399.908   2
   3  -3   6 17239.9 753.058   4
  -3   3  -6 17757.4 911.435   6
   3  -3   6 16207.5 409.680   8
  -3   3  -6 17620.3 475.565   3
  -3   3  -6 16440.8 295.462   1
  -3   3  -6 15447.3 391.217  11
  -3   3  -7 68646.3 539.749   1
  -3   3  -7 72309.4 1639.38   6
  -3   3  -7 79108.6 1053.79   3
   3  -3   7 68433.3 797.397   2
   3  -3   7 64339.0 813.426   8
   3  -3   7 66793.0 1353.66   4
  -3   3  -7 59787.7 745.450  11
   3  -3   8 314.885 162.235   2
  -3   3  -8 395.529 294.749   3
  -3   3  -8 394.520 550.504   6
  -3   3  -8 471.854 101.391   1
   3  -3   8 398.706 195.878   8
   3  -3   8 610.664 393.811   4
  -3   3  -8 334.997 211.963  11
  -3   3  -9 72020.7 939.388  11
  -3   3  -9 77188.2 1780.72   6
   3  -3   9 77313.1 1518.51   4
  -3   3 -10 1347.95 674.582   6
  -3   3 -10 1546.24 280.072  11
   3  -3  10 1731.50 470.395   4
   3  -3  10 1220.49 240.582   2
  -3   3 -11 70401.1 1930.41   6
  -3   3 -11 73101.2 1090.52  11
   3  -3  11 79066.2 1645.77   4
   3  -3  11 78595.4 1094.76   2
  -3   3 -12 2690.23 813.724   6
  -3   3 -12 2721.05 347.815  11
   3  -3  12 2230.86 353.645   9
   3  -3  12 2956.52 321.392   2
   3  -3  12 2429.98 533.899   4
  -3   2  13 63402.2 1020.79   2
  -3   2  12 42658.6 673.125   8
  -3   2  12 51037.9 893.060   2
  -3   2  11 40360.7 633.674   8
  -3   2  11 43536.7 781.695   2
  -3   2  10 69946.5 759.675   8
  -3   2  10 70950.3 926.212   2
  -3   2   9 39224.0 535.640   8
  -3   2   9 39678.3 644.700   2
   3  -2  -8 47461.3 579.878   4
  -3   2   8 52005.6 577.093   8
  -3   2   8 50531.2 676.312   2
  -3   2   8 56653.1 1029.16   7
  -3   2   8 55855.4 877.166   6
  -3   2   7 11022.2 345.970   9
  -3   2   7 12730.1 390.913   6
  -3   2   7 11790.9 280.259   8
  -3   2   7 11632.1 319.506   2
  -3   2   7 12129.9 478.898   7
   3  -2  -7 11401.8 261.439   4
  -3   2   6 123608. 956.961   6
  -3   2   6 112432. 902.026   9
  -3   2   6 109765. 758.104   8
  -3   2   6 109268. 844.914   2
  -3   2   6 121036. 1299.17   7
  -3   2   6 122523. 1208.80   6
   3  -2  -5 345.788 122.478   2
  -3   2   5 322.245 108.882   9
  -3   2   5 502.782 151.433   6
  -3   2   5 541.623 119.202   8
  -3   2   5 458.828 107.595   2
  -3   2   5 912.911 232.777   6
  -3   2   5 742.707 213.387   7
  -3   2   4 456070. 2066.58   6
   3  -2  -4 470694. 1595.40   2
  -3   2   4 496173. 1434.36   9
  -3   2   4 485848. 2321.41   7
  -3   2   4 499098. 1524.50   6
  -3   2   3 55094.3 744.845   6
  -3   2   3 57022.3 415.607   9
   3  -2  -3 55329.7 487.980   2
   3  -2  -3 50938.9 758.854   7
  -3   2   3 51763.7 409.000   2
  -3   2   3 55867.8 768.540   7
   3  -2  -3 56088.1 777.051   6
   3  -2  -2 688549. 2849.92   6
  -3   2   2 694610. 2623.68   6
   3  -2  -1 220025. 1729.71   6
  -3   2   1 230781. 1643.65   6
   3  -2  -1 229246. 852.757   9
  -3   2   1 225240. 1599.21   5
   3  -2  -1 227864. 642.132   2
   3  -2  -1 225478. 1518.17   7
  -3   2   1 225378. 758.800   9
  -3   2   1 238749. 1567.13   7
  -3   2   1 235300. 801.260   3
   3  -2   0 286965. 2035.85   6
  -3   2   0 294980. 1943.06   5
  -3   2   0 287943. 1430.40   1
  -3   2   0 285757. 1501.48  11
   3  -2   0 288106. 1019.29   9
  -3   2   0 275623. 989.402   3
   3  -2   0 270265. 1716.18   7
  -3   2   0 294954. 1827.86   7
  -3   2   0 295723. 2030.50   6
  -3   2  -1 281243. 1033.65   3
   3  -2   1 302813. 2202.24   6
   3  -2   1 296034. 1110.80   9
  -3   2  -1 265124. 1337.49   1
  -3   2  -1 285550. 1043.05   8
   3  -2   1 283236. 1003.22   3
  -3   2  -1 296490. 1981.40   7
  -3   2  -1 273097. 1378.44  11
  -3   2  -1 272476. 2060.08   6
   3  -2   2 66751.5 1104.85   6
  -3   2  -2 70756.5 575.281   3
   3  -2   2 70885.8 753.340  11
  -3   2  -2 65312.8 676.533  11
   3  -2   2 66206.3 824.439   5
   3  -2   2 71926.1 450.016   2
  -3   2  -2 70567.8 1165.20   6
  -3   2  -2 71420.0 580.612   8
   3  -2   2 70486.3 613.155   9
  -3   2  -2 69928.9 653.521   1
   3  -2   2 64343.8 954.158   7
  -3   2  -2 67946.0 1066.45   7
   3  -2   2 77530.5 649.505   3
   3  -2   3 186896. 1403.60   5
  -3   2  -3 175661. 1099.59  11
  -3   2  -3 194387. 1961.39   6
   3  -2   3 200762. 894.980   2
  -3   2  -3 199175. 1056.70   3
   3  -2   3 210237. 1910.14   4
   3  -2   3 205776. 1135.43   9
  -3   2  -3 208007. 1095.05   1
  -3   2  -3 194096. 1015.75   8
  -3   2  -3 176767. 1788.15   7
   3  -2   3 199361. 1026.41   3
   3  -2   4 643.326 135.523   3
  -3   2  -4 570.990 138.824  11
  -3   2  -4 493.811 148.122   3
   3  -2   4 577.797 180.812   5
   3  -2   4 587.900 104.938   2
  -3   2  -4 604.764 375.193   6
   3  -2   4 496.933 139.472   9
   3  -2   4 416.908 280.049   4
  -3   2  -4 595.592 114.041   1
   3  -2   5 145002. 1100.63   9
   3  -2   5 145614. 946.331   2
   3  -2   5 146289. 1695.75   4
  -3   2  -5 149194. 835.142   1
  -3   2  -6 5452.28 182.343   1
   3  -2   6 5279.48 280.379   9
   3  -2   6 5468.60 228.673   2
   3  -2   6 6443.21 499.702   4
  -3   2  -6 5644.72 586.237   6
  -3   2  -6 6155.05 318.495   3
  -3   2  -7 98013.4 1031.98  11
   3  -2   7 114793. 1134.07   9
  -3   2  -7 103668. 679.949   1
   3  -2   7 114899. 1595.38   4
  -3   2  -7 123997. 1973.57   6
   3  -2   7 119237. 1009.23   2
  -3   2  -8 1486.21 136.401   1
  -3   2  -8 1065.95 226.724  11
   3  -2   8 1033.54 236.058   9
   3  -2   8 1359.86 203.594   2
  -3   2  -8 1773.76 591.114   6
   3  -2   8 1344.32 388.965   4
  -3   2  -9 98245.6 1929.00   6
   3  -2   9 100995. 1047.83   2
  -3   2 -10 18607.4 560.620  11
  -3   2 -10 23094.8 1105.36   6
   3  -2  10 25147.5 594.008   2
   3  -2  10 20016.6 589.908   9
   3  -2  10 24189.6 867.356   4
   3  -2  11 75634.9 995.719   2
  -3   2 -11 66821.5 1069.83  11
   3  -2  11 66335.0 1056.28   9
  -3   2 -11 77410.8 1924.27   6
   3  -2  11 81118.3 1558.40   4
  -3   2 -12 38159.5 862.999  11
  -3   2 -12 44414.6 1600.25   6
   3  -2  12 36254.0 847.821   9
   3  -2  12 47891.1 1243.73   4
   3  -2  12 47196.6 869.687   2
  -3   1  14 61904.2 1071.04   2
  -3   1  14 55423.5 904.134   8
  -3   1  13 14546.7 536.656   2
  -3   1  13 12101.6 447.680   8
  -3   1  12 66596.7 1009.44   2
  -3   1  12 59362.3 827.987   8
  -3   1  11 4781.05 318.164   2
  -3   1  11 4697.22 284.143   8
  -3   1  10 92443.4 1057.77   2
  -3   1  10 85532.1 899.657   8
  -3   1   9 1466.37 337.872   6
   3  -1  -9 1192.51 215.169   6
  -3   1   9 1384.53 176.239   8
  -3   1   9 1054.77 190.142   2
  -3   1   8 141203. 1233.48   6
   3  -1  -8 137844. 892.178   6
  -3   1   8 123666. 1059.32   2
  -3   1   8 114676. 946.409   8
  -3   1   7 35428.0 549.731   2
  -3   1   7 34924.7 725.226   7
  -3   1   6 232588. 1303.50   8
  -3   1   6 235915. 1036.74   6
  -3   1   6 252504. 1743.86   7
  -3   1   6 244136. 1389.75   9
  -3   1   6 248647. 1286.27   2
  -3   1   6 233251. 1325.41   3
  -3   1   6 246625. 1171.84   6
  -3   1   5 174792. 1293.27   5
  -3   1   5 174739. 1095.93   9
  -3   1   5 167765. 998.726   8
  -3   1   5 168401. 982.654   2
  -3   1   4 217709. 1080.32   9
  -3   1   4 224197. 1459.13   5
  -3   1   4 215672. 980.629   2
  -3   1   4 217463. 1422.38   7
  -3   1   4 227981. 1098.44   8
   3  -1  -3 434903. 1897.14   7
  -3   1   3 442433. 1982.05   7
   3  -1  -2 134391. 969.294   6
  -3   1   2 126557. 829.846   6
  -3   1   2 118080. 864.592   1
  -3   1   2 122461. 672.451   9
  -3   1   2 122031. 477.627   2
   3  -1  -2 132805. 765.924   9
   3  -1  -2 129989. 1028.49   7
  -3   1   2 137883. 1091.41   7
   3  -1  -1 567006. 2225.40   6
   3  -1  -1 559884. 2237.01   5
  -3   1   1 557123. 2131.22   6
   3  -1  -1 572748. 2169.87   7
   3  -1   0 3789.34 313.126   6
  -3   1   0 4191.49 333.648   6
  -3   1   0 3702.92 179.173   1
  -3   1   0 3010.23 68.8785   3
  -3   1   0 3703.92 136.490   9
   3  -1   0 3872.14 154.960   9
   3  -1   0 3441.96 67.7712   3
   3  -1   0 3697.67 261.057   5
   3  -1   0 3979.50 269.858   4
   3  -1   0 3320.12 201.866  11
   3  -1   0 3841.41 249.913   7
  -3   1   0 3393.43 189.911  11
  -3   1   0 4401.80 282.876   7
  -3   1  -1 176313. 648.285   3
  -3   1  -1 176690. 864.215   9
   3  -1   1 171920. 1491.50   6
  -3   1  -1 180189. 1535.58   6
  -3   1  -1 171322. 1003.42  11
   3  -1   1 183052. 939.917   9
   3  -1   1 176602. 1375.19   4
  -3   1  -1 185773. 996.146   1
   3  -1   1 173580. 1009.24   1
   3  -1   1 158450. 1327.15   7
  -3   1  -1 161928. 1426.76   7
   3  -1   1 177238. 1094.51  11
   3  -1   1 186521. 676.946   3
   3  -1   2 878.913 122.060   1
   3  -1   2 870.868 106.936   3
   3  -1   2 684.905 146.128  11
  -3   1  -2 1373.22 156.027  11
   3  -1   2 998.127 242.769   4
   3  -1   2 1302.49 319.259   6
   3  -1   2 754.486 123.771   9
   3  -1   2 782.526 66.2283   2
  -3   1  -2 808.267 114.949   8
  -3   1  -2 800.650 112.656   1
  -3   1  -2 495.872 284.927   6
   3  -1   2 674.342 241.168   7
  -3   1  -2 800.508 269.416   7
  -3   1  -2 860.327 108.963   3
   3  -1   3 171521. 894.391   3
  -3   1  -3 166975. 1719.08   6
   3  -1   3 167755. 1077.40  11
  -3   1  -3 160161. 1038.37  11
   3  -1   3 152533. 903.987   1
   3  -1   3 154965. 1665.97   6
   3  -1   3 158514. 714.670   2
   3  -1   3 179608. 1588.71   4
   3  -1   3 172347. 1056.47   9
  -3   1  -3 168265. 892.976   1
   3  -1   4 22455.3 320.937   2
   3  -1   4 22037.7 370.204   3
  -3   1  -4 23343.8 339.113   1
  -3   1  -4 22130.4 426.789  11
   3  -1   4 22503.5 423.394   9
   3  -1   4 21624.1 353.934   1
   3  -1   4 22917.4 635.505   4
  -3   1  -4 23546.1 770.272   6
  -3   1  -5 86447.7 654.551   1
  -3   1  -5 76470.1 786.030  11
   3  -1   5 80872.1 676.102   1
   3  -1   5 83266.4 676.305   2
   3  -1   5 91270.4 1245.55   4
   3  -1   5 86585.0 867.866   9
  -3   1  -5 87427.2 1444.85   6
   3  -1   6 62735.4 606.890   1
   3  -1   6 64721.1 656.471   2
  -3   1  -6 64079.9 584.766   1
  -3   1  -6 66394.0 1349.96   6
   3  -1   6 65189.9 806.171   9
   3  -1   7 113129. 1113.29   9
   3  -1   7 114943. 947.615   2
   3  -1   7 104622. 794.714   1
  -3   1  -7 120452. 1837.92   6
   3  -1   7 130312. 1631.78   4
  -3   1  -7 100858. 747.151   1
  -3   1  -7 101748. 1061.63  11
  -3   1  -8 45807.1 1275.10   6
  -3   1  -8 35872.2 696.907  11
   3  -1   8 36648.9 693.660   9
  -3   1  -8 43728.1 536.543   1
   3  -1   8 46116.6 670.773   2
   3  -1   8 44855.3 977.896   4
  -3   1  -9 52438.3 1448.88   6
  -3   1  -9 55134.2 641.771   1
   3  -1   9 51943.3 743.279   2
   3  -1   9 51818.5 1071.81   4
  -3   1 -10 144465. 2351.73   6
   3  -1  10 149197. 1846.98   4
  -3   1 -11 17778.4 1046.56   6
   3  -1  11 18224.4 538.854   2
   3  -1  11 18897.2 783.987   4
  -3   1 -12 43558.9 966.045  11
  -3   1 -12 58625.8 1740.43   6
   3  -1  12 52093.8 1009.51   9
   3  -1  12 64192.2 1008.90   2
   3  -1  12 68016.4 1379.27   4
  -3   0  14 42730.8 803.920   8
  -3   0  14 53295.5 1010.97   2
  -3   0  13 1121.27 275.958   2
  -3   0  13 863.455 243.465   8
  -3   0  12 81285.5 1150.79   2
  -3   0  12 65400.7 880.564   8
  -3   0  11 1335.16 173.340   1
   3   0 -11 1005.85 309.466   6
  -3   0  11 1524.68 275.811   2
  -3   0  11 1441.30 231.352   8
  -3   0  10 71351.2 718.857   1
  -3   0  10 72760.2 938.690   2
  -3   0   9 60843.0 998.540   6
  -3   0   9 57029.1 699.967   5
  -3   0   9 57562.6 811.258   2
  -3   0   9 54961.2 627.218   1
  -3   0   9 53445.2 762.043   8
   3   0  -9 60909.1 763.192   6
   3   0  -8 81455.8 754.748   6
  -3   0   8 81750.6 908.754   2
  -3   0   8 83999.7 845.497   5
  -3   0   7 206899. 1326.76   6
  -3   0   7 197193. 1121.99   1
  -3   0   7 196301. 1281.62   2
   3   0  -7 194766. 945.773   6
  -3   0   7 185844. 1283.44   8
  -3   0   6 145365. 938.597   1
  -3   0   6 132657. 1101.91   9
   3   0  -6 118253. 554.968   6
  -3   0   6 152220. 1066.83   2
  -3   0   6 132227. 919.465   3
  -3   0   6 146915. 1251.46   7
  -3   0   6 138276. 1025.64   8
  -3   0   5 545163. 2077.02   9
  -3   0   4 15819.1 270.255   3
  -3   0   4 16154.1 299.503   2
   3   0  -4 15990.4 346.436   9
  -3   0   4 16678.9 320.375   1
  -3   0   4 15701.0 367.827   7
  -3   0   4 15835.3 344.285   9
  -3   0   3 471836. 1615.55   9
   3   0  -3 452419. 1217.75   6
  -3   0   2 7370.10 234.228  11
  -3   0   2 6872.51 207.209   6
   3   0  -2 7589.69 249.026   6
  -3   0   2 6711.65 200.704   9
  -3   0   2 8467.04 251.463   4
  -3   0   2 7532.39 217.746   1
   3   0  -2 6653.29 171.214   4
   3   0  -2 7603.23 227.365   9
   3   0  -2 7501.83 237.716   7
  -3   0   2 7959.99 271.689   7
   3   0  -2 7574.08 234.027   1
  -3   0   2 7038.62 113.006   3
   3   0  -1 215426. 1170.33  11
   3   0  -1 225281. 1323.28   6
  -3   0   1 227386. 1057.45  11
  -3   0   1 237864. 1036.63   9
  -3   0   1 221810. 1248.39   6
   3   0  -1 239890. 1085.46   9
   3   0  -1 231452. 1098.26   1
  -3   0   1 240156. 1295.52   4
   3   0  -1 222544. 1052.72   4
   3   0  -1 236468. 1241.13   7
  -3   0   1 207970. 1291.00   7
   3   0   0 32867.0 442.935  11
  -3   0   0 34549.7 427.272  11
   3   0   0 28616.3 188.206   3
   3   0   0 34418.8 425.546   9
  -3   0   0 34462.5 392.047   9
  -3   0   0 32391.9 209.036   2
  -3   0   0 30789.4 554.216   6
  -3   0   0 33149.5 541.581   4
   3   0   0 32050.5 470.757   4
   3   0   0 35003.8 436.688   1
  -3   0   0 34275.5 404.161   1
   3   0   0 29762.4 532.484   7
   3   0   0 33057.4 599.853   6
  -3   0   0 30838.9 571.962   7
   3   0   1 77244.0 667.657  11
  -3   0  -1 72316.9 933.822   6
  -3   0  -1 75566.3 635.164  11
  -3   0  -1 79760.6 624.495   9
   3   0   1 70241.4 622.426   9
  -3   0  -1 70439.4 388.225   2
   3   0   1 70798.4 426.725   3
  -3   0  -1 71909.5 852.083   4
   3   0   1 74086.8 628.213   1
   3   0   1 69771.4 747.517   4
   3   0   1 71999.5 957.559   6
  -3   0  -1 74580.6 591.206   1
   3   0   1 71043.0 917.762   7
  -3   0  -1 80002.7 1030.92   7
   3   0   1 75042.4 371.044   2
  -3   0  -2 123045. 764.936   1
   3   0   2 132788. 904.792  11
  -3   0  -2 122959. 838.148  11
   3   0   2 121786. 698.750   3
  -3   0  -2 124498. 1357.53   6
   3   0   2 139300. 1510.42   6
  -3   0  -2 119683. 621.983   2
  -3   0  -2 126265. 824.038   9
   3   0   2 126156. 867.102   9
  -3   0  -2 120242. 1188.32   4
   3   0   2 123166. 802.809   1
   3   0   2 125038. 1091.26   4
   3   0   2 122641. 566.943   2
   3   0   2 133216. 1370.88   7
  -3   0  -3 158143. 1050.71  11
  -3   0  -3 156112. 885.525   1
   3   0   3 151817. 999.591   9
  -3   0  -3 148508. 1604.26   6
   3   0   3 143530. 872.680   3
   3   0   3 151477. 1289.26   4
  -3   0  -3 140227. 787.948   2
   3   0   3 138934. 834.480   1
   3   0   3 145751. 722.615   2
   3   0   3 152807. 1547.80   7
   3   0   4 67162.9 656.399   3
  -3   0  -4 70596.9 1175.99   6
   3   0   4 69229.6 735.955   9
  -3   0  -4 67594.2 617.940   2
  -3   0  -4 76768.1 647.216   1
  -3   0  -4 74143.9 763.711  11
   3   0   4 75533.5 976.225   4
   3   0   4 74496.7 594.305   2
   3   0   4 67012.7 604.564   1
  -3   0  -5 99285.2 935.404  11
   3   0   5 103577. 1174.64   4
   3   0   5 99701.6 749.493   2
  -3   0  -5 93354.4 707.668   1
   3   0   5 95984.5 727.434   1
   3   0   5 106470. 971.343   9
  -3   0  -5 85212.2 1373.16   6
  -3   0  -6 144055. 958.012   1
  -3   0  -6 153147. 1256.31  11
  -3   0  -6 160557. 1956.84   6
   3   0   6 153067. 1236.74   9
   3   0   6 157025. 1034.26   2
   3   0   6 157711. 1527.25   4
   3   0   6 142158. 911.836   1
  -3   0  -7 42291.4 745.350  11
  -3   0  -7 43034.5 1131.20   6
   3   0   7 40081.9 676.666   9
   3   0   7 41023.0 579.696   2
   3   0   7 43408.1 876.695   4
   3   0   8 149692. 1343.87   9
  -3   0  -8 142375. 1378.56  11
  -3   0  -8 162038. 2157.07   6
   3   0   8 160770. 1210.32   2
   3   0   8 168405. 1730.60   4
  -3   0  -8 153998. 1129.83   1
  -3   0  -9 3310.22 345.616  11
  -3   0  -9 2882.22 596.887   6
   3   0   9 2881.02 297.884   9
  -3   0  -9 3071.59 243.516   1
   3   0   9 3153.51 243.923   2
   3   0   9 3076.32 375.479   4
  -3   0 -10 154325. 2365.10   6
  -3   0 -10 121626. 1436.07  11
   3   0  10 134951. 1418.16   9
   3   0  10 149143. 1302.59   2
   3   0  10 167014. 1830.88   4
   3   0  11 5657.60 339.469   2
  -3   0 -11 4284.24 411.426  11
  -3   0 -11 5805.35 756.224   6
   3   0  11 5109.77 407.686   9
   3   0  11 6316.58 481.041   4
   3   0  12 52157.8 1029.98   9
  -3   0 -12 56387.2 1687.06   6
  -3  -1  14 34292.0 760.913   8
  -3  -1  14 45421.3 968.376   2
  -3  -1  13 14226.6 566.318   2
  -3  -1  13 11875.6 462.697   8
   3   1 -12 69781.7 1155.72   6
  -3  -1  12 66689.1 953.383   8
  -3  -1  11 83288.9 1125.92   2
  -3  -1  11 74091.6 974.107   8
  -3  -1  11 73895.7 587.862   1
   3   1 -11 81378.4 1145.27   6
  -3  -1  10 51173.1 828.309   2
  -3  -1  10 49636.8 805.960   8
  -3  -1  10 49539.3 500.137   1
  -3  -1   9 231905. 2067.49   6
   3   1  -9 239610. 1682.25   6
  -3  -1   9 230346. 1627.06   8
  -3  -1   9 224497. 1057.11   1
  -3  -1   9 241127. 958.198   4
  -3  -1   9 243657. 1696.91   2
  -3  -1   8 2727.18 361.315   6
   3   1  -8 4076.00 276.763   3
   3   1  -8 3354.79 281.247   6
  -3  -1   8 3755.35 255.816   2
  -3  -1   8 3252.38 264.069   8
  -3  -1   8 3530.44 165.833   1
  -3  -1   8 3482.87 128.969   4
  -3  -1   7 441858. 2039.49   2
  -3  -1   7 422330. 2277.98   6
  -3  -1   7 407740. 1991.34   8
  -3  -1   7 433898. 1454.04   1
  -3  -1   7 412347. 1097.04   4
   3   1  -7 453372. 1985.81   6
  -3  -1   6 5045.72 224.415   3
   3   1  -6 4952.05 264.460   6
  -3  -1   6 5205.78 257.650   8
  -3  -1   6 5170.09 175.007   1
   3   1  -6 5523.14 252.158   3
  -3  -1   6 6046.14 270.943   7
  -3  -1   6 5635.52 320.714   6
   3   1  -5 436411. 1768.43   6
  -3  -1   5 435317. 1577.65   3
  -3  -1   5 419245. 1975.03   9
   3   1  -5 445390. 1759.65   5
  -3  -1   5 467200. 1893.68   7
  -3  -1   5 446074. 1939.03   8
   3   1  -4 92799.3 859.375   6
   3   1  -4 84196.6 712.428   1
   3   1  -4 90140.7 846.896   9
   3   1  -4 84111.7 632.379   3
  -3  -1   4 87454.2 715.267   7
  -3  -1   4 85513.3 618.078   1
  -3  -1   4 86719.0 834.021   9
  -3  -1   4 88632.3 647.601   3
   3   1  -3 273866. 992.839   3
   3   1  -3 272519. 1241.29   6
   3   1  -3 266074. 1397.02   9
   3   1  -3 282301. 1133.70   7
  -3  -1   3 272725. 978.593   4
   3   1  -3 280604. 1250.92   1
  -3  -1   3 273034. 1158.44   7
  -3  -1   3 273618. 1362.68   9
  -3  -1   3 280876. 1105.39   3
   3   1  -3 274065. 1544.05   6
   3   1  -2 21149.6 357.073  11
  -3  -1   2 22685.1 313.306  11
  -3  -1   2 19759.2 351.041   6
   3   1  -2 20352.5 412.026   6
  -3  -1   2 22569.9 387.458   9
   3   1  -2 23025.3 370.091   1
   3   1  -2 22553.1 394.993   9
  -3  -1   2 21040.0 337.651   4
   3   1  -2 22661.1 326.360   7
  -3  -1   2 24069.7 254.715   3
  -3  -1   2 19323.1 353.027   7
  -3  -1   2 21473.1 316.727   1
   3   1  -2 20303.2 251.813   3
  -3  -1   1 60842.4 519.110   1
  -3  -1   1 64944.4 419.203   2
  -3  -1   1 54406.7 640.563   6
  -3  -1   1 65262.1 607.476   9
   3   1  -1 61004.3 763.988   6
   3   1  -1 63399.0 635.174   9
  -3  -1   1 68677.7 541.588  11
   3   1  -1 58313.6 558.419  11
  -3  -1   1 60201.8 609.310   4
   3   1  -1 64190.9 578.953   1
   3   1  -1 61543.9 599.728   7
   3   1  -1 63224.2 377.310   3
  -3  -1   1 66601.2 689.766   7
  -3  -1   0 115909. 760.788   1
   3   1   0 113369. 786.118  11
  -3  -1   0 119703. 752.459  11
  -3  -1   0 117007. 815.078   9
   3   1   0 99989.0 1040.68   6
   3   1   0 104866. 788.638   9
  -3  -1   0 103411. 882.041   4
   3   1   0 108151. 742.386   1
   3   1   0 95341.6 922.635   7
  -3  -1   0 107353. 1094.05   6
  -3  -1   0 106430. 534.712   2
   3   1   1 117120. 621.002   2
  -3  -1  -1 104003. 576.787   2
   3   1   1 104444. 639.043  10
   3   1   1 113163. 814.025  11
  -3  -1  -1 115043. 790.652  11
  -3  -1  -1 113243. 750.115   1
   3   1   1 105713. 809.957   9
  -3  -1  -1 107350. 773.772   9
   3   1   1 102554. 1157.51   6
  -3  -1  -1 110792. 1042.57   4
  -3  -1  -1 100023. 1117.86   6
   3   1   1 104669. 822.340   4
   3   1   1 108563. 750.701   1
   3   1   1 111001. 1123.62   7
   3   1   2 276701. 1306.58  11
   3   1   2 250656. 1931.22   6
   3   1   2 257896. 1091.75  10
  -3  -1  -2 244768. 1863.59   6
  -3  -1  -2 263458. 1274.67   9
   3   1   2 267427. 1341.71   9
  -3  -1  -2 269812. 1278.71  11
  -3  -1  -2 282456. 1236.36   1
  -3  -1  -2 258469. 1700.86   4
  -3  -1  -2 258373. 1025.44   2
   3   1   2 247533. 1359.59   4
   3   1   2 270540. 1947.35   7
   3   1   2 263159. 986.635   2
   3   1   2 270067. 1195.31   1
  -3  -1  -3 39424.4 560.391  11
   3   1   3 36094.1 516.740   9
  -3  -1  -3 35819.0 800.657   6
  -3  -1  -3 32723.8 407.792   2
  -3  -1  -3 37366.7 478.059   1
   3   1   3 31221.6 547.754   4
   3   1   3 34099.7 389.214   2
   3   1   3 36351.4 463.039   1
  -3  -1  -4 317093. 2412.97   6
  -3  -1  -4 345542. 1727.14  11
  -3  -1  -4 303158. 1392.71   2
   3   1   4 324952. 1816.90   4
   3   1   4 324548. 1603.07   9
   3   1   4 321540. 1281.39   2
  -3  -1  -4 351741. 1526.07   1
   3   1   5 3127.04 263.307   4
  -3  -1  -5 3498.63 421.646   6
   3   1   5 2982.93 177.960   2
   3   1   5 2883.72 211.934   9
  -3  -1  -5 3051.38 202.128   1
  -3  -1  -5 3035.04 248.617  11
   3   1   6 308773. 1761.83   9
  -3  -1  -6 309735. 2687.38   6
   3   1   6 305922. 1476.43   2
   3   1   7 16364.4 514.927   4
   3   1   7 14510.1 366.853   2
  -3  -1  -7 15597.4 754.316   6
  -3  -1  -7 14456.8 481.012  11
   3   1   7 14072.2 439.896   9
  -3  -1  -8 175699. 1586.12  11
   3   1   8 174651. 1470.67   9
   3   1   8 176065. 1255.99   2
  -3  -1  -9 32379.5 784.721  11
   3   1   9 31828.5 692.953   9
  -3  -1  -9 32263.6 1100.55   6
   3   1   9 31363.9 584.859   2
   3   1  10 27864.2 699.262   9
   3   1  10 27851.9 596.137   2
   3   1  11 33843.2 793.107   9
  -3  -1 -11 35162.8 1290.60   6
   3   1  11 34129.5 704.158   2
  -3  -1 -12 5025.26 798.807   6
   3   1  12 5845.72 457.539   9
   3   1  12 6260.68 391.055   2
  -3  -2  15 21813.5 753.055   2
  -3  -2  15 17949.2 631.465   8
  -3  -2  14 21457.3 707.775   2
  -3  -2  14 16946.8 584.656   8
  -3  -2  13 81983.6 1272.21   2
  -3  -2  13 73684.0 1082.35   8
  -3  -2  12 813.420 281.513   2
   3   2 -12 1088.55 445.078   6
  -3  -2  12 1073.20 285.055   8
  -3  -2  11 211779. 1847.42   2
   3   2 -11 209630. 1818.94   3
  -3  -2  11 198374. 1633.16   8
  -3  -2  11 206981. 1351.49   4
   3   2 -11 196697. 1969.65   6
  -3  -2  10 22504.7 292.663   1
  -3  -2  10 22300.1 619.953   2
   3   2 -10 23241.3 789.498   6
  -3  -2  10 23624.3 507.055   4
  -3  -2   9 177407. 792.345   1
  -3  -2   9 165542. 1953.96   6
  -3  -2   9 179695. 1520.76   2
   3   2  -9 178798. 1720.36   6
  -3  -2   9 167515. 988.783  11
  -3  -2   9 188887. 1304.72   4
  -3  -2   9 170985. 1430.34   8
   3   2  -9 190268. 1564.51   3
   3   2  -8 57743.0 980.671   6
  -3  -2   8 54629.1 533.094  11
  -3  -2   8 56034.6 841.114   8
   3   2  -8 58150.8 827.731   3
  -3  -2   8 53910.9 452.564   1
  -3  -2   8 52078.5 1073.61   6
  -3  -2   7 298533. 1066.14   1
   3   2  -7 293155. 1989.96   6
   3   2  -7 304958. 1678.33   3
  -3  -2   7 293963. 1697.04   8
  -3  -2   7 287180. 2237.61   6
  -3  -2   6 75418.2 564.649   1
   3   2  -6 67014.5 990.557   6
   3   2  -6 73049.2 777.952   3
   3   2  -6 73535.5 683.546   1
  -3  -2   6 68670.6 843.184   8
  -3  -2   6 76139.6 744.877   7
  -3  -2   6 79761.9 1152.89   6
  -3  -2   6 69382.7 734.797   3
   3   2  -5 96189.1 1189.44   6
  -3  -2   5 93570.1 621.921   1
   3   2  -5 91925.4 798.006   3
   3   2  -5 94434.2 968.326   9
   3   2  -5 98817.9 780.921   1
  -3  -2   5 94055.6 949.778   8
  -3  -2   5 99782.4 617.406  11
  -3  -2   5 91414.0 671.433   7
  -3  -2   5 96936.6 1261.33   6
  -3  -2   5 88253.4 767.135   3
   3   2  -4 49522.5 565.238   3
  -3  -2   4 47311.9 463.345   1
  -3  -2   4 51237.4 704.319   9
   3   2  -4 53897.2 610.222   6
   3   2  -4 53047.2 696.621   9
   3   2  -4 54728.3 574.279   1
  -3  -2   4 49953.6 430.455   7
  -3  -2   4 54004.6 405.534  11
  -3  -2   4 48826.2 554.598   3
   3   2  -4 53943.3 897.302   6
  -3  -2   3 30686.9 372.570   1
  -3  -2   3 31466.6 318.021  11
  -3  -2   3 31572.6 536.028   9
   3   2  -3 25004.9 478.144   9
   3   2  -3 30807.9 429.398   1
   3   2  -3 33874.7 569.034   6
  -3  -2   3 29262.5 394.127   3
  -3  -2   3 30689.7 339.037   7
   3   2  -3 29932.0 674.523   6
   3   2  -3 24455.0 386.303   3
  -3  -2   2 155222. 713.782  11
   3   2  -2 145769. 1051.58   9
  -3  -2   2 148043. 838.507   1
   3   2  -2 144535. 1160.08   6
  -3  -2   2 146519. 1035.47   9
  -3  -2   2 149508. 762.426   3
   3   2  -2 152166. 689.387   7
   3   2  -2 150528. 910.908   1
   3   2  -2 142605. 834.662   3
  -3  -2   1 7394.40 198.868   2
  -3  -2   1 6895.10 192.205  11
  -3  -2   1 6982.55 249.742   9
   3   2  -1 7316.66 360.491   6
  -3  -2   1 6501.59 291.670   6
   3   2  -1 6177.52 248.349   9
  -3  -2   1 6851.54 215.738   1
   3   2  -1 6819.81 185.062   3
   3   2  -1 6348.97 232.373   7
   3   2  -1 6605.64 213.124  11
   3   2  -1 7181.84 226.553   1
   3   2   0 495803. 1679.06   1
   3   2   0 479808. 1600.23  11
  -3  -2   0 478613. 1750.32   9
   3   2   0 467922. 2461.93   6
  -3  -2   0 467751. 1453.12  10
  -3  -2   0 442818. 1852.08   4
   3   2   0 443113. 2013.10   7
  -3  -2   0 433848. 2118.76   6
  -3  -2   0 468962. 1349.19   2
   3   2   1 1801.84 127.409   2
   3   2   1 1892.84 157.765   1
  -3  -2  -1 1680.51 253.326   6
  -3  -2  -1 1920.48 155.848  11
   3   2   1 1633.08 160.826   9
   3   2   1 1925.96 302.586   6
  -3  -2  -1 2055.09 159.842   9
  -3  -2  -1 1812.93 213.714   4
  -3  -2  -1 1861.17 161.382   1
   3   2   1 2197.24 169.244  11
  -3  -2  -1 1870.93 123.282   2
   3   2   1 1600.93 290.036   7
   3   2   2 315191. 1253.72   2
   3   2   2 305690. 1481.27   9
  -3  -2  -2 311527. 1261.71   2
  -3  -2  -2 322617. 1460.50   1
  -3  -2  -2 324468. 1531.03  11
  -3  -2  -3 18802.9 400.787   1
   3   2   3 17701.9 390.104   9
   3   2   3 17449.3 344.323  10
  -3  -2  -3 18283.8 410.267  11
  -3  -2  -3 19304.1 614.164   6
   3   2   3 17164.7 307.157   2
  -3  -2  -4 292547. 1661.44  11
  -3  -2  -4 289824. 1511.21   1
   3   2   4 288784. 1587.59   9
   3   2   4 292771. 1327.92   2
   3   2   5 52281.3 660.933  10
  -3  -2  -5 61136.7 1240.57   6
   3   2   5 52582.7 714.345   9
  -3  -2  -5 59965.9 852.364  11
  -3  -2  -5 57507.2 765.129   1
   3   2   5 52876.8 602.920   2
   3   2   6 85044.3 884.210  10
   3   2   6 84090.1 955.243   9
   3   2   6 84568.3 820.897   2
  -3  -2  -7 55283.7 866.802   1
  -3  -2  -7 65352.1 981.433  11
   3   2   7 66055.9 897.852   9
  -3  -2  -7 74391.5 1505.27   6
   3   2   7 62571.6 741.411   2
  -3  -2  -8 20913.8 630.406  11
   3   2   8 21014.4 556.889   9
   3   2   8 20442.7 485.822   2
  -3  -2  -9 65060.5 1516.60   6
   3   2   9 59463.8 814.400   2
   3   2  10 2638.40 313.409   9
  -3  -2 -10 3014.65 631.944   6
   3   2  10 3201.16 275.195   2
  -3  -2 -11 40697.4 1346.51   6
   3   2  11 40320.2 788.218   2
  -3  -3  14 1154.94 312.107   8
  -3  -3  14 949.099 332.240   2
   3   3 -13 95201.1 1430.49   3
  -3  -3  13 93229.9 1386.04   2
   3   3 -12 24454.1 1013.80   6
  -3  -3  12 23346.0 711.992   2
  -3  -3  12 22461.7 606.864   8
   3   3 -11 103018. 1627.76   6
  -3  -3  11 103700. 1267.31   4
  -3  -3  11 102347. 1212.21   8
   3   3 -10 100498. 1261.72   3
   3   3 -10 86654.9 1449.37   6
  -3  -3  10 95603.3 1163.54   8
  -3  -3  10 88705.6 516.489   1
   3   3  -9 86165.3 1422.00   6
  -3  -3   9 83222.8 550.731  11
   3   3  -9 93335.3 1131.24   3
  -3  -3   9 91221.6 567.120   1
  -3  -3   9 85842.8 1051.66   8
   3   3  -8 79137.7 1338.38   6
   3   3  -8 86008.4 1023.63   3
   3   3  -8 87771.8 768.958   1
  -3  -3   8 83047.0 570.939   1
  -3  -3   8 79233.1 979.071   8
  -3  -3   8 82212.4 492.305  11
   3   3  -7 65349.6 1218.00   6
   3   3  -7 66786.1 850.978   3
  -3  -3   7 63925.6 417.648  11
   3   3  -7 68129.5 660.841   1
  -3  -3   7 64559.7 518.652   1
  -3  -3   7 64534.8 388.338  11
  -3  -3   7 65838.5 834.844   8
   3   3  -6 129207. 1641.31   6
   3   3  -6 122352. 1116.13   3
  -3  -3   6 109951. 427.791  11
  -3  -3   6 123267. 739.549   1
  -3  -3   6 122815. 1168.50   8
   3   3  -6 137169. 940.170   1
  -3  -3   6 121937. 732.575   7
  -3  -3   6 123841. 1695.78   6
   3   3  -5 17015.0 659.329   6
   3   3  -5 14501.7 385.647   3
   3   3  -5 16926.0 449.135   9
  -3  -3   5 17596.4 456.972   8
  -3  -3   5 17180.8 295.690   1
   3   3  -5 17148.7 341.934   1
  -3  -3   5 15679.1 154.127  11
  -3  -3   5 15863.2 377.009   3
  -3  -3   5 15902.0 716.465   6
   3   3  -4 97811.5 952.804   6
  -3  -3   4 96136.6 438.515  11
   3   3  -4 92521.9 956.668   9
  -3  -3   4 89991.2 674.348   1
  -3  -3   4 84375.7 780.057   3
   3   3  -4 93353.5 749.049   1
   3   3  -4 82731.1 819.159   3
   3   3  -4 92724.0 1339.13   6
   3   3  -3 6067.34 174.032  11
  -3  -3   3 6195.00 146.900  11
   3   3  -3 6196.58 338.420   6
  -3  -3   3 5181.51 193.717   1
   3   3  -3 5273.13 268.531   9
  -3  -3   3 5517.27 221.068   3
   3   3  -3 5900.80 266.618   3
   3   3  -3 5993.87 465.479   6
   3   3  -3 5783.63 221.397   1
  -3  -3   2 262236. 1248.22   2
   3   3  -2 219014. 985.902  11
  -3  -3   2 257178. 964.428  11
   3   3  -2 256906. 1747.76   6
   3   3  -2 247863. 1454.36   9
  -3  -3   2 235046. 1124.83   1
   3   3  -2 239510. 775.177   7
   3   3  -2 260209. 1248.66   3
   3   3  -2 239343. 2189.65   6
  -3  -3   1 14899.4 312.082   2
  -3  -3   1 14992.3 282.448  11
  -3  -3   1 13340.2 321.511   1
   3   3  -1 13846.0 361.971   9
   3   3  -1 13700.2 482.433   6
   3   3  -1 13601.3 285.928   3
   3   3  -1 13227.3 270.084  11
   3   3   0 356822. 1445.09  11
  -3  -3   0 371911. 1483.80  11
   3   3   0 355661. 1700.92   9
   3   3   0 347017. 1335.05   3
  -3  -3   0 331609. 1925.18   6
  -3  -3   0 347881. 1355.06   2
  -3  -3   0 349576. 1551.83   1
   3   3   1 99962.2 739.356   2
  -3  -3  -1 95363.2 1110.39   6
  -3  -3  -1 104122. 845.975  11
   3   3   1 101523. 897.003   9
  -3  -3  -1 109810. 922.809   1
   3   3   2 182545. 1047.67   2
   3   3   2 174203. 1198.36   9
  -3  -3  -2 176197. 1615.63   6
  -3  -3  -2 181582. 1220.57   1
   3   3   3 121009. 905.227   2
  -3  -3  -3 128190. 1126.06  11
  -3  -3  -3 114878. 1363.00   6
   3   3   3 115510. 1006.79   9
  -3  -3  -3 124448. 1104.70   1
   3   3   4 126988. 1110.95   9
  -3  -3  -4 129652. 1188.44  11
   3   3   4 124389. 1012.56  10
  -3  -3  -4 124459. 1500.20   6
  -3  -3  -4 124760. 1147.26   1
   3   3   4 127639. 947.707   2
  -3  -3  -5 110833. 1162.27   1
  -3  -3  -5 118072. 1212.96  11
   3   3   5 115334. 1026.55  10
  -3  -3  -5 117323. 1534.39   6
   3   3   5 111513. 1066.31   9
   3   3   5 112275. 926.051   2
  -3  -3  -6 9158.73 559.482   6
   3   3   6 8686.79 371.188   9
  -3  -3  -6 7819.81 402.526   1
  -3  -3  -6 8151.66 412.765  11
   3   3   6 8176.29 329.297  10
   3   3   6 7663.38 304.475   2
   3   3   7 78071.0 925.465  10
   3   3   7 78213.6 1002.13   9
   3   3   7 76637.6 853.963   2
   3   3   8 2363.80 272.452  10
   3   3   8 2040.67 270.922   9
  -3  -3  -8 2283.58 503.497   6
   3   3   8 2192.51 233.541   2
  -3  -3  -9 47526.4 1238.11   6
   3   3   9 47726.0 825.521  10
   3   3   9 44619.7 845.681   9
   3   3   9 46910.4 756.760   2
   3   3  10 3278.45 333.390  10
   3   3  10 3165.55 359.551   9
  -3  -3 -10 3644.36 638.580   6
   3   3  10 3230.65 290.898   2
  -3  -4  14 47160.0 1076.18   2
  -3  -4  14 45896.0 898.249   8
   3   4 -13 57432.9 1193.10   3
  -3  -4  13 55307.6 1138.48   2
  -3  -4  13 54540.9 979.858   8
  -3  -4  12 106687. 1440.69   2
  -3  -4  12 109655. 1329.89   8
  -3  -4  11 17035.9 539.432   8
   3   4 -11 17277.1 610.540   3
   3   4 -10 114580. 1840.51   6
   3   4 -10 125212. 1401.46   3
  -3  -4  10 119328. 684.243   1
  -3  -4  10 127011. 1340.13   8
   3   4  -9 40778.8 1165.81   6
   3   4  -9 43826.3 827.906   3
   3   4  -9 45011.7 576.502   1
  -3  -4   9 44071.8 805.753   8
  -3  -4   9 41444.3 435.944   1
   3   4  -8 69237.7 1437.39   6
  -3  -4   8 68102.2 584.946   1
  -3  -4   8 68819.4 759.597   7
   3   4  -8 69129.5 696.028   1
  -3  -4   8 68821.7 938.741   8
   3   4  -7 125.505 205.405   3
  -3  -4   7 250.900 180.641   8
   3   4  -7 228.090 422.919   6
  -3  -4   7 153.399 114.769   1
   3   4  -7 151.686 124.461   1
  -3  -4   7 219.363 105.621   7
  -3  -4   6 108234. 779.914   1
   3   4  -6 108023. 1707.62   6
  -3  -4   6 109955. 1125.34   8
   3   4  -6 105808. 845.999   1
   3   4  -5 22056.2 506.032   3
  -3  -4   5 22517.5 380.693   1
  -3  -4   5 22223.6 511.721   8
   3   4  -5 21867.1 533.364   9
  -3  -4   4 148264. 979.175   1
   3   4  -4 144755. 1236.26   9
  -3  -4   4 144350. 1136.08   8
   3   4  -4 146956. 1193.17   3
   3   4  -4 147890. 1914.18   6
  -3  -4   3 100977. 829.913   1
  -3  -4   3 100338. 590.658  11
   3   4  -3 100910. 1048.33   9
   3   4  -3 102779. 611.164  11
   3   4  -3 95422.7 911.176   3
   3   4  -3 97434.6 1545.07   6
   3   4  -2 250234. 1049.55  11
  -3  -4   2 302745. 1563.03   1
  -3  -4   2 280833. 1095.56  11
   3   4  -2 284712. 1712.50   9
   3   4  -2 287230. 1423.85   3
   3   4  -2 265734. 2486.12   6
  -3  -4   1 292389. 1273.40  11
  -3  -4   1 299882. 1531.06   1
   3   4  -1 297654. 1669.72   9
   3   4  -1 299217. 1410.92   3
   3   4  -1 289642. 2750.71   6
  -3  -4   0 147214. 1000.87  11
   3   4   0 144968. 1162.08   9
   3   4   0 148146. 983.477   3
   3   4   0 147237. 988.182  11
  -3  -4  -1 207097. 1326.32  11
  -3  -4  -1 189661. 1537.22   6
  -3  -4  -1 228493. 1561.56   1
   3   4   1 213170. 1267.70   2
   3   4   1 202956. 1372.83   9
   3   4   2 24318.5 452.813   2
  -3  -4  -2 24373.2 511.146  11
  -3  -4  -2 24169.5 648.847   6
  -3  -4  -2 24663.4 548.237   1
   3   4   2 23071.6 486.313   9
  -3  -4  -3 150076. 1365.80   1
   3   4   3 149532. 1100.23   2
   3   4   4 964.581 190.360   9
  -3  -4  -4 349.160 314.747   6
   3   4   4 717.557 161.068   2
  -3  -4  -4 818.987 251.204   1
   3   4   5 77475.9 937.787   9
  -3  -4  -5 74405.0 1243.80   6
  -3  -4  -5 76225.1 1110.17   1
   3   4   5 72999.8 801.247   2
  -3  -4  -6 22483.1 661.193   1
   3   4   6 24330.6 568.288   9
   3   4   6 24437.8 515.685   2
  -3  -4  -6 24977.9 805.937   6
   3   4   7 56179.2 885.726   9
  -3  -4  -7 59214.4 1310.84   6
   3   4   8 13252.4 483.355  10
   3   4   8 13509.2 494.236   9
   3   4   8 13986.5 453.925   2
   3   4   9 37522.5 808.773   9
   3   4   9 35956.2 775.510  10
   3   4   9 36009.7 698.157   2
   3   4  10 28846.1 757.583   9
  -3  -4 -10 30941.2 1119.09   6
   3   4  10 31595.8 762.934  10
   3   4  10 30809.2 703.341   2
   3   5 -14 73020.1 1418.39   3
  -3  -5  14 72531.0 1418.70   2
  -3  -5  14 71108.3 1106.22   8
   3   5 -13 5608.35 533.889   3
  -3  -5  13 5268.34 413.727   8
   3   5 -12 77148.4 1315.23   3
  -3  -5  12 83620.5 1181.70   8
   3   5 -11 120.750 303.356   3
   3   5 -11 597.948 599.658   6
  -3  -5  11-45.1437 276.954   8
   3   5 -10 68349.9 1617.49   6
  -3  -5  10 68361.3 1021.73   8
  -3  -5   9 1703.11 190.286   1
  -3  -5   9 2005.31 288.197   8
   3   5  -9 1204.17 288.262   3
   3   5  -9 1665.74 585.176   6
   3   5  -8 65390.8 1027.11   3
  -3  -5   8 66861.2 958.526   8
  -3  -5   8 66357.9 668.570   1
   3   5  -7 53740.9 895.439   3
   3   5  -7 53186.9 1394.21   6
  -3  -5   7 52193.7 803.960   8
  -3  -5   7 52637.3 615.685   1
   3   5  -6 73746.6 1578.72   6
  -3  -5   6 71151.6 734.753   1
  -3  -5   6 73404.7 928.156   8
   3   5  -5 182523. 2357.18   6
  -3  -5   5 179621. 1238.70   1
  -3  -5   5 176187. 1437.97   8
   3   5  -5 179823. 1515.57   9
   3   5  -5 184742. 1485.93   3
   3   5  -4 55720.3 1352.31   6
  -3  -5   4 55104.4 721.615   1
   3   5  -4 55129.1 393.280  11
  -3  -5   4 53891.1 748.158   8
   3   5  -4 56812.0 839.650   9
   3   5  -3 234300. 979.637  11
   3   5  -3 225756. 1607.03   9
  -3  -5   3 220524. 1397.30   1
   3   5  -3 230816. 1527.32   3
   3   5  -3 216032. 2516.47   6
   3   5  -2 24902.1 560.080   9
   3   5  -2 24716.3 377.771  11
  -3  -5   2 24706.3 516.107   1
   3   5  -2 22883.9 260.253   7
   3   5  -2 24860.6 486.449   3
   3   5  -2 25194.9 957.977   6
   3   5  -1 276583. 1341.28  11
   3   5  -1 288521. 1737.84   9
   3   5  -1 287156. 1178.46   7
  -3  -5   1 292040. 1754.29   1
   3   5  -1 301855. 1570.95   3
   3   5  -1 274308. 2850.36   6
   3   5   0 227.008 165.334   3
   3   5   0 719.934 529.776   6
   3   5   0 24.7105 164.414   9
  -3  -5   0 264.360 214.570   1
  -3  -5  -1 98918.3 1159.12   1
   3   5   1 97261.1 1025.61   9
   3   5   1 96718.3 1871.63   6
   3   5   2 5212.25 296.055   9
   3   5   2 4948.70 268.143   2
  -3  -5  -2 5419.21 371.675   1
   3   5   3 60087.1 829.996   9
  -3  -5  -3 60747.2 1020.48   6
  -3  -5  -3 61886.8 1013.69   1
   3   5   4 30857.1 563.028   2
  -3  -5  -4 31304.5 781.933   6
   3   5   4 29509.8 589.810   9
   3   5   5 36377.2 653.630   2
  -3  -5  -5 34734.0 876.253   6
   3   5   5 35687.6 696.720   9
   3   5   6 54609.8 796.159   2
  -3  -5  -6 55406.6 1174.31   6
   3   5   6 52713.7 857.715   9
   3   5   7 15324.5 493.275   2
  -3  -5  -7 16562.4 749.945   6
   3   5   7 14860.2 508.026   9
  -3  -5  -8 42134.7 1138.72   6
   3   5   8 42189.2 855.628   9
   3   5   9 11337.6 515.103   9
   3   5   9 11997.6 477.594   2
   3   6 -13 1717.27 421.450   3
   3   6 -13 2417.60 814.745   6
  -3  -6  13 1905.01 354.992   8
   3   6 -12 41054.7 1003.76   3
   3   6 -12 39757.3 1451.89   6
   3   6 -11 4883.07 767.255   6
   3   6 -11 6392.90 476.468   3
  -3  -6  11 6169.23 427.827   8
   3   6 -10 21394.1 1103.97   6
   3   6 -10 23523.6 724.856   3
  -3  -6  10 22636.9 637.299   8
   3   6  -9 61971.9 1109.41   3
   3   6  -9 57460.2 1614.27   6
  -3  -6   9 59586.2 971.061   8
   3   6  -8 16534.9 996.827   6
  -3  -6   8 16827.8 551.842   8
  -3  -6   8 16327.2 431.013   1
  -3  -6   7 131225. 1151.88   1
  -3  -6   7 127602. 1269.20   8
   3   6  -6 5130.18 690.917   6
  -3  -6   6 5448.51 310.884   1
  -3  -6   6 5154.38 317.163   8
   3   6  -6 6346.34 414.604   3
   3   6  -5 200223. 2677.48   6
  -3  -6   5 199709. 1583.71   8
   3   6  -4 2090.78 117.329  11
   3   6  -4 2849.95 285.917   9
  -3  -6   4 2385.49 255.105   8
   3   6  -4 2218.13 599.672   6
  -3  -6   4 2788.51 285.026   1
   3   6  -4 3353.29 339.465   3
  -3  -6   3 232571. 1489.66   8
   3   6  -3 241882. 1087.14  11
   3   6  -3 240521. 1722.37   9
   3   6  -3 237755. 1658.24   3
  -3  -6   3 244489. 1759.92   1
   3   6  -3 231236. 2815.37   6
   3   6  -2 549.478 205.050   3
   3   6  -2 1014.18 549.708   6
   3   6  -2 480.872 145.361  11
   3   6  -2 355.920 199.766   9
   3   6  -2 447.372 100.509   7
  -3  -6   2 523.493 248.150   1
   3   6  -1 78884.8 973.009   9
  -3  -6   1 80202.0 1123.01   1
   3   6  -1 78227.6 677.634   7
   3   6   0 28430.3 604.058   9
  -3  -6   0 29824.1 718.533   1
   3   6   0 29129.2 491.523   7
   3   6   0 30101.8 580.058   3
   3   6   1 34798.3 614.962   3
   3   6   1 33686.0 654.226   9
  -3  -6  -1 32221.0 765.200   1
   3   6   1 33965.2 1298.81   6
  -3  -6  -2 51416.2 991.296   1
   3   6   2 50382.6 771.264   2
   3   6   2 47956.8 766.144   9
   3   6   2 50621.3 748.101   3
   3   6   2 46928.2 1536.31   6
   3   6   3 12270.0 434.178   9
   3   6   3 11563.7 400.175   2
   3   6   4 83393.5 959.559   2
   3   6   4 87047.9 1078.74   9
   3   6   4 84531.3 2125.81   6
   3   6   5 11018.1 426.663   2
   3   6   5 9585.47 421.801   9
   3   6   6 62303.0 900.796   2
   3   6   6 63444.7 970.309   9
   3   6   7 2636.19 319.271   2
   3   6   7 2625.12 320.784   9
  -3  -7  12 10857.6 540.317   8
   3   7 -12 13251.2 690.600   3
   3   7 -11 45475.6 1660.81   6
  -3  -7  11 46402.0 891.990   8
   3   7 -10 3387.04 435.794   3
   3   7 -10 3706.79 832.340   6
  -3  -7  10 3425.55 362.579   8
   3   7  -9 107504. 2267.97   6
  -3  -7   9 108829. 1276.24   8
   3   7  -8-149.021 678.782   6
   3   7  -8 215.535 331.896   3
  -3  -7   8 239.532 262.076   8
   3   7  -7 162933. 2649.34   6
  -3  -7   7 171601. 1536.24   8
  -3  -7   6 10738.8 425.447   8
   3   7  -6 11781.8 513.843   3
   3   7  -5 119539. 2208.25   6
  -3  -7   5 119262. 1173.07   8
  -3  -7   5 121857. 1308.11   1
   3   7  -4 29552.2 1234.11   6
  -3  -7   4 30378.7 718.251   1
  -3  -7   4 30587.4 656.385   8
   3   7  -3 85413.1 1946.76   6
  -3  -7   3 87925.3 1190.99   1
   3   7  -3 91603.9 1151.82   9
  -3  -7   3 86782.5 1019.09   8
   3   7  -3 90058.1 1113.60   3
  -3  -7   2 40418.7 848.666   1
   3   7  -2 43364.3 792.892   9
  -3  -7   2 42808.9 669.029   8
   3   7  -2 39813.0 706.322   3
   3   7  -1 3437.67 294.013   9
  -3  -7   1 3236.23 389.576   1
   3   7  -1 3490.80 312.458   3
   3   7  -1 3168.61 681.276   6
   3   7   0 75186.0 1007.94   9
   3   7   0 74532.9 797.803   7
   3   7   0 72277.3 1848.68   6
   3   7   1 3752.07 301.259   9
   3   7   1 3911.16 285.355   7
   3   7   1 4278.25 315.674   3
   3   7   1 3360.89 747.149   6
   3   7   2 70496.6 997.137   9
   3   7   2 63822.1 883.407   7
   3   7   2 69391.2 929.344   3
   3   7   2 60046.3 1769.71   6
   3   7   3 182.749 235.613   3
   3   7   3 98.7343 219.372   9
   3   7   3 303.993 675.188   6
   3   7   3 549.620 258.104   7
   3   7   4 92826.6 1144.40   9
   3   7   4 96855.4 1167.20   2
   3   7   4 91301.9 2323.21   6
   3   7   5 3337.15 336.837   9
   3   7   5 2887.80 933.153   6
   3   7   5 2609.48 300.641   2
   3   7   6 68081.7 991.923   2
   3   7   6 72308.8 2340.93   6
   3   8 -11 63354.3 2004.37   6
  -3  -8  11 69736.7 1119.66   8
   3   8 -10 20235.0 1333.73   6
  -3  -8  10 21677.7 675.804   8
   3   8  -9 69855.4 1993.77   6
  -3  -8   9 75596.0 1102.60   8
   3   8  -8 37916.7 1576.21   6
  -3  -8   8 39370.3 823.454   8
   3   8  -7 84114.2 1298.49   3
  -3  -8   7 73912.7 1067.16   8
   3   8  -6 39943.8 1528.98   6
  -3  -8   6 41675.8 785.026   8
  -3  -8   5 20503.5 534.075   8
   3   8  -5 21302.1 666.114   3
   3   8  -4 34960.8 1422.45   6
  -3  -8   4 37623.6 683.593   8
   3   8  -3 274.161 687.241   6
   3   8  -3 341.644 241.525   9
  -3  -8   3 410.308 238.206   8
   3   8  -3 462.405 296.803   3
   3   8  -2 53756.7 937.077   9
  -3  -8   2 49156.6 794.075   8
   3   8  -2 51900.5 896.232   3
   3   8  -2 47654.5 1618.77   6
  -3  -8   1 2286.75 255.192   8
   3   8  -1 1971.80 285.306   9
   3   8  -1 2339.01 314.178   3
   3   8   0 77987.5 1112.57   9
   3   8   0 78554.4 1060.71   3
   3   8   1 6555.17 394.923   9
   3   8   1 7048.28 396.987   3
   3   8   1 5908.08 898.133   6
   3   8   2 82747.4 1165.14   9
   3   8   2 85816.7 1123.43   3
   3   8   3 10966.8 475.789   3
   3   8   3 9352.23 1092.62   6
   3   8   4 54349.1 937.655   3
   3   8   4 46652.1 1866.35   6
   3   9  -8 35088.8 1673.45   6
  -3  -9   8 39725.8 832.200   8
   3   9  -7 5565.83 501.217   3
  -3  -9   7 4647.83 388.011   8
  -3  -9   6 43515.5 842.798   8
   3   9  -6 46193.4 1008.96   3
   3   9  -5 231.513 327.221   3
   3   9  -5-588.044 803.847   6
  -3  -9   5 188.262 244.815   8
   3   9  -4 36236.0 1610.27   6
  -3  -9   4 37369.4 709.289   8
   3   9  -3 11315.1 1112.34   6
  -3  -9   3 12037.8 432.227   8
   3   9  -3 12845.6 578.487   3
   3   9  -2 51737.7 957.785   9
   3   9  -2 50768.6 968.866   3
   3   9  -1 9755.95 1103.68   6
   3   9  -1 11934.5 501.304   3
   3   9   0 44136.9 912.775   3
   3   9   0 31240.3 1547.99   6
   3   9   1 29884.0 750.482   3
   3   9   1 24291.7 1464.48   6
  -4   9   2 18183.7 756.295   7
  -4   9   2 19125.7 594.538   3
  -4   9   1 20715.4 792.865   7
  -4   9   1 18734.0 632.407   3
  -4   9   0 44099.2 1844.96   6
  -4   9   0 46503.8 977.608  11
  -4   9   0 43920.2 1113.86   7
  -4   9   0 47402.7 961.620   3
  -4   9  -1 8815.17 1183.89   6
  -4   9  -1 9389.84 491.610  11
  -4   9  -1 8672.64 651.158   7
  -4   9  -1 9842.84 559.134   3
  -4   9  -2 83126.5 2407.52   6
  -4   9  -2 84480.7 1128.69  11
  -4   9  -2 82593.9 1583.54   7
  -4   9  -3 746.679 296.149  11
  -4   9  -3 1131.55 925.009   6
  -4   9  -3 343.092 449.259   5
  -4   9  -3 543.141 332.052   3
  -4   9  -3 1830.65 514.323   7
  -4   9  -4 104404. 2670.42   6
  -4   9  -4 105992. 1887.72   5
  -4   9  -4 98666.1 1749.50   7
  -4   9  -5 2501.51 556.242   5
  -4   9  -5 2664.54 440.343   3
  -4   9  -5 2597.63 1040.63   6
  -4   9  -5 1569.72 544.005   7
  -4   8   6 23072.6 843.009   7
  -4   8   6 22586.9 626.407   3
  -4   8   5 14866.2 490.286   2
  -4   8   5 16284.2 759.043   7
  -4   8   5 15686.0 534.189   3
  -4   8   4 34843.5 997.182   7
  -4   8   4 35066.8 732.374   3
  -4   8   3 6454.97 977.508   6
  -4   8   3 5835.70 484.902   7
  -4   8   3 6073.61 369.495   3
  -4   8   2 74239.4 2073.48   6
  -4   8   2 74284.5 1359.02   7
  -4   8   1 846.632 259.091   3
  -4   8   1 1021.19 797.259   6
  -4   8   1 740.733 360.285   7
  -4   8   0 138427. 1784.82   7
  -4   8   0 138103. 1424.62   3
  -4   8   0 138959. 1540.08  11
  -4   8  -1 3752.42 359.796  11
  -4   8  -1 3471.07 485.464   7
  -4   8  -1 4178.18 420.004   3
  -4   8  -2 89936.4 1117.28  11
  -4   8  -2 90478.7 1589.48   7
  -4   8  -3 43694.6 793.788  11
  -4   8  -3 45673.9 1181.56   5
  -4   8  -3 43176.6 1154.11   7
  -4   8  -3 46124.8 906.045   3
  -4   8  -4 53099.9 1255.07   5
  -4   8  -4 54946.2 819.553  11
  -4   8  -4 52993.0 1300.26   7
  -4   8  -5 32687.5 1600.79   6
  -4   8  -5 35342.2 679.675  11
  -4   8  -5 34655.2 1088.26   5
  -4   8  -5 34035.8 1108.02   7
  -4   8  -6 17362.8 678.253   3
  -4   8  -6 12512.0 1235.72   6
  -4   8  -6 16223.6 473.812  11
  -4   8  -6 14135.3 857.562   7
  -4   8  -7 28178.7 1666.44   6
  -4   8  -7 29615.1 1329.86   7
  -4   7   8 24005.0 594.391   2
  -4   7   8 23937.6 889.476   7
  -4   7   7 9995.02 406.955   2
  -4   7   7 11323.4 654.624   7
  -4   7   6 41558.2 699.302   2
  -4   7   6 44003.1 1076.71   7
  -4   7   5 754.213 242.951   3
  -4   7   5 724.562 191.073   2
  -4   7   5 63.5795 696.510   6
  -4   7   5 936.777 354.333   7
  -4   7   4 93671.6 2077.34   6
  -4   7   4 93038.5 1032.77   3
  -4   7   3 4531.66 419.416   7
  -4   7   3 4633.00 320.033   3
  -4   7   2 133275. 1688.29   7
  -4   7   2 134371. 1253.76   3
  -4   7   1 52593.1 1652.70   6
  -4   7   1 49258.3 1002.82   7
  -4   7   1 51536.9 769.446   3
  -4   7   0 83596.2 2021.45   6
  -4   7   0 82001.6 1137.65  11
  -4   7   0 81962.4 1321.36   7
  -4   7   0 81554.8 1010.11   3
  -4   7  -1 75200.8 1964.32   6
  -4   7  -1 75805.0 1056.44  11
  -4   7  -1 71926.8 1305.43   7
  -4   7  -2 42246.2 1542.80   6
  -4   7  -2 44122.6 768.590  11
  -4   7  -2 44593.8 1110.81   5
  -4   7  -2 44273.2 1100.63   7
  -4   7  -2 45953.3 840.614   3
  -4   7  -3 69305.6 921.695  11
  -4   7  -3 66928.4 1314.37   5
  -4   7  -3 69508.6 1390.90   7
  -4   7  -4 10344.0 498.018   3
  -4   7  -4 8125.85 957.000   6
  -4   7  -4 8992.26 373.919  11
  -4   7  -4 9495.85 609.945   5
  -4   7  -4 9748.00 658.166   7
  -4   7  -5 40568.2 881.361   3
  -4   7  -5 32514.8 1483.01   6
  -4   7  -5 37161.6 760.108   1
   4  -7   5 26767.5 527.496   9
  -4   7  -5 34083.7 1066.41   5
  -4   7  -5 36134.6 649.483  11
  -4   7  -5 32879.1 1059.25   7
   4  -7   6 893.534 209.707   9
  -4   7  -6 1123.03 328.604   3
  -4   7  -6 1928.75 258.253  11
  -4   7  -6 1462.98 259.778   1
  -4   7  -6 1792.51 814.986   6
  -4   7  -6 961.396 527.470   7
  -4   7  -7 37414.0 887.506   3
  -4   7  -7 38774.3 665.282  11
  -4   7  -8 3474.37 436.867   3
  -4   7  -8 4028.76 318.829  11
  -4   7  -9 60683.6 1193.18   3
  -4   7  -9 55269.1 2059.68   6
  -4   6   9 2926.12 487.510   7
  -4   6   9 2085.83 252.823   2
  -4   6   8 69862.4 1362.75   7
  -4   6   8 64965.5 858.658   2
  -4   6   7 4423.39 463.539   7
  -4   6   7 3201.64 248.447   2
  -4   6   6 106682. 2033.81   6
  -4   6   6 107559. 1578.22   7
  -4   6   5 50225.1 1474.16   6
  -4   6   5 46706.3 650.590   2
  -4   6   5 50835.5 1047.85   7
  -4   6   4 96448.3 1925.73   6
  -4   6   4 93543.8 867.497   2
  -4   6   4 98690.2 1418.84   7
  -4   6   4 92589.3 947.234   3
  -4   6   3 93992.6 1920.54   6
  -4   6   3 94602.0 1372.60   7
  -4   6   3 95103.5 965.130   3
  -4   6   2 82084.7 1759.81   6
  -4   6   2 83157.4 1245.92   7
  -4   6   1 130332. 2261.93   6
  -4   6   1 126978. 1098.89   3
  -4   6   0 3789.72 681.169   6
  -4   6   0 4546.74 343.522  11
  -4   6   0 4574.73 408.571   7
  -4   6   0 4697.09 293.069   3
  -4   6  -1 145876. 2386.66   6
  -4   6  -1 158820. 1435.75  11
  -4   6  -1 153872. 1799.43   7
   4  -6   1 147137. 776.423   9
  -4   6  -2 6588.39 788.267   6
  -4   6  -2 8642.92 403.060  11
   4  -6   2 7002.05 233.591   9
  -4   6  -2 7285.92 499.881   5
  -4   6  -2 7423.29 521.006   7
  -4   6  -2 7826.22 367.735   3
  -4   6  -3 69409.0 933.800   3
  -4   6  -3 66951.5 1277.91   5
  -4   6  -3 68418.6 875.212  11
  -4   6  -3 67320.7 1319.72   7
  -4   6  -4 4424.58 353.743   3
  -4   6  -4 3356.17 710.633   6
   4  -6   4 3226.98 224.109   9
  -4   6  -4 4287.46 492.080   5
  -4   6  -4 3732.04 301.819   1
  -4   6  -4 4247.17 508.019   7
  -4   6  -4 4137.50 290.309  11
  -4   6  -5 79886.5 1116.76   3
  -4   6  -5 69738.7 1915.34   6
  -4   6  -5 75193.5 876.207  11
   4  -6   5 64788.9 793.333   9
  -4   6  -5 77222.7 972.458   1
  -4   6  -5 78670.7 1516.82   7
  -4   6  -6 21500.7 635.797   3
  -4   6  -6 22438.8 524.824   1
  -4   6  -6 21899.9 506.202  11
  -4   6  -6 20690.5 982.756   7
  -4   6  -7 49901.2 959.949   3
  -4   6  -7 52023.5 747.808  11
  -4   6  -8 37780.6 871.933   3
  -4   6  -8 36931.0 1592.25   6
  -4   6  -8 41471.7 705.907  11
   4  -6   8 39834.8 768.557   2
  -4   6  -9 40459.6 960.696   3
   4  -6   9 32365.6 747.268   9
   4  -6   9 39729.0 774.142   2
  -4   6  -9 36965.2 1648.91   6
   4  -6   9 34332.9 1377.60   4
  -4   6  -9 44809.6 739.456  11
  -4   6 -10 60520.8 2114.94   6
   4  -6  10 56014.0 1692.46   4
  -4   5  11 276.248 226.888   2
  -4   5  11 198.793 396.607   7
  -4   5  10 48743.6 1210.79   7
  -4   5  10 44591.0 745.687   2
  -4   5   9 18949.4 758.736   7
  -4   5   9 18523.6 483.963   2
  -4   5   8 64461.5 1247.60   7
  -4   5   8 62353.7 786.118   2
  -4   5   7 105008. 1810.32   6
  -4   5   7 104453. 1506.76   7
  -4   5   6 51140.7 1308.26   6
  -4   5   6 52927.5 1050.86   7
  -4   5   5 145478. 2099.78   6
  -4   5   5 152237. 1696.04   7
  -4   5   4 10518.0 292.078   2
  -4   5   4 10816.7 729.121   6
  -4   5   4 10471.4 501.305   7
  -4   5   3 242040. 1202.93   2
  -4   5   3 247496. 1353.92   3
  -4   5   2 75.0740 472.471   6
  -4   5   2 127.684 52.3005   8
  -4   5   2 33.3122 160.047   3
  -4   5   2 223.830 254.029   7
   4  -5  -1 158837. 910.125  10
  -4   5   1 159157. 1693.22   7
  -4   5   1 157689. 1136.23   3
  -4   5   0 8327.94 694.268   6
   4  -5   0 8776.03 182.326   9
  -4   5   0 8739.25 400.036  11
  -4   5   0 9742.20 249.564   8
   4  -5   0 9471.60 243.442   2
  -4   5   0 8447.87 440.238   7
  -4   5   0 9003.06 325.980   3
  -4   5  -1 83116.1 1693.11   6
   4  -5   1 93840.6 657.743   9
  -4   5  -1 97812.9 1101.83  11
  -4   5  -1 85387.0 1324.39   5
  -4   5  -1 93471.6 739.458   8
  -4   5  -1 98447.5 1426.12   7
   4  -5   1 98604.6 695.040   2
  -4   5  -1 94072.2 968.644   3
   4  -5   2 9384.87 240.772   2
  -4   5  -2 9042.57 740.653   6
   4  -5   2 8085.06 250.781   9
  -4   5  -2 9511.21 522.914   5
  -4   5  -2 8987.10 353.589  11
  -4   5  -2 10195.0 572.465   7
  -4   5  -2 8873.84 355.167   3
  -4   5  -3 36326.8 656.597   3
   4  -5   3 29175.8 403.715   2
  -4   5  -3 29658.0 1154.55   6
  -4   5  -3 34980.1 657.630   1
   4  -5   3 34123.9 507.890   9
  -4   5  -3 33190.8 938.368   5
  -4   5  -3 34896.1 624.740  11
  -4   5  -3 36939.2 955.894   7
  -4   5  -4 59020.1 860.375   3
  -4   5  -4 68465.7 868.172  11
   4  -5   4 57324.4 710.191   9
  -4   5  -4 59496.1 1622.65   6
  -4   5  -4 66188.6 1346.61   7
  -4   5  -4 62687.8 843.757   1
  -4   5  -5 29832.1 650.919   3
  -4   5  -5 29602.1 1221.91   6
  -4   5  -5 32026.0 584.775  11
   4  -5   5 28126.3 539.708   9
  -4   5  -5 32610.1 589.249   1
  -4   5  -5 29958.7 978.012   7
  -4   5  -6 114506. 1281.15   3
  -4   5  -6 107751. 2188.89   6
   4  -5   6 101165. 1051.09   9
   4  -5   6 109669. 1023.68   2
  -4   5  -6 120379. 1038.83   1
  -4   5  -6 118965. 1104.38  11
  -4   5  -6 117742. 2154.66   7
  -4   5  -7 33131.3 747.823   3
  -4   5  -7 30912.6 1365.47   6
  -4   5  -7 34371.5 623.371  11
   4  -5   7 34088.7 638.354   2
   4  -5   7 29826.8 1125.56   4
  -4   5  -7 34488.5 524.710   1
  -4   5  -8 125175. 1506.13   3
  -4   5  -8 116428. 1133.45  11
  -4   5  -8 111442. 2474.54   6
   4  -5   8 107003. 2069.29   4
   4  -5   8 118176. 1188.43   2
  -4   5  -9 5666.47 348.156  11
  -4   5  -9 4033.17 888.933   6
   4  -5   9 3574.79 337.457   9
   4  -5   9 5325.43 325.237   2
   4  -5   9 5341.74 679.383   4
  -4   5  -9 6506.38 486.738   3
  -4   5 -10 89848.3 1104.28  11
  -4   5 -10 84576.3 2317.80   6
   4  -5  10 84653.5 1082.25   2
   4  -5  10 70476.7 1089.28   9
   4  -5  10 78527.3 1865.70   4
  -4   5 -10 102052. 1560.27   3
  -4   5 -11-123.946 392.790   3
   4  -5  11 491.908 586.511   4
  -4   5 -11 437.836 286.116  11
  -4   5 -11 213.952 809.978   6
   4  -5  11 132.518 278.463   9
  -4   4  12 25992.2 623.675  10
  -4   4  12 27652.0 1023.13   7
  -4   4  12 27459.2 688.050   2
  -4   4  11 26182.8 575.342  10
  -4   4  11 27006.2 957.440   7
  -4   4  11 26004.3 632.691   2
  -4   4  10 19023.6 472.029  10
  -4   4  10 20367.8 813.980   7
  -4   4  10 19769.6 525.796   2
  -4   4   9 146804. 1846.14   7
  -4   4   9 145832. 1149.54  10
  -4   4   9 142316. 1214.82   2
  -4   4   8 16306.1 657.560   7
  -4   4   8 15122.5 398.803   2
  -4   4   7 228392. 2249.89   6
  -4   4   7 231383. 2131.18   7
  -4   4   6 528.230 45.6820   8
  -4   4   6 889.411 147.340   2
  -4   4   6 774.012 282.264   7
  -4   4   5 142666. 1759.89   6
  -4   4   5 138136. 915.573   2
  -4   4   4 4027.62 492.796   6
  -4   4   4 4036.20 339.962   7
  -4   4   4 3523.33 94.8339   8
  -4   4   4 3413.93 162.706   2
  -4   4   3 140536. 804.693   2
  -4   4   3 129810. 1729.41   6
   4  -4  -3 152434. 953.175   2
  -4   4   3 142411. 519.859   8
  -4   4   3 145392. 1537.77   7
   4  -4  -3 138839. 1793.78   6
  -4   4   2 31515.6 924.208   6
  -4   4   2 30405.2 365.262   2
   4  -4  -2 34025.3 420.392   2
  -4   4   2 33873.5 307.015   8
  -4   4   2 32455.9 736.269   7
  -4   4   2 34806.8 484.768   3
   4  -4  -2 28140.2 904.944   6
  -4   4   1 57867.1 1225.57   6
   4  -4  -1 69878.8 481.233   9
  -4   4   1 59300.0 1064.93   5
  -4   4   1 70621.2 503.830   8
   4  -4  -1 72028.6 545.113   2
  -4   4   1 68612.1 1030.71   7
  -4   4   1 70510.5 681.945   3
  -4   4   0 29904.7 614.387  11
   4  -4   0 29865.6 357.893   9
  -4   4   0 28567.2 765.335   5
  -4   4   0 29505.4 362.234   8
  -4   4   0 28448.8 726.844   7
  -4   4   0 28697.2 463.819   3
  -4   4  -1 31860.8 1009.70   6
  -4   4  -1 33619.8 831.445   5
   4  -4   1 35355.1 430.760   9
  -4   4  -1 33538.6 418.035   8
  -4   4  -1 34340.5 852.659   7
   4  -4   1 36927.4 347.933   2
  -4   4  -1 33212.0 616.161  11
  -4   4  -1 32790.5 509.756   3
  -4   4  -2 107683. 970.490   3
   4  -4   2 118067. 654.397   2
  -4   4  -2 111411. 1859.60   6
  -4   4  -2 110485. 1090.63   1
   4  -4   2 117222. 855.619   9
  -4   4  -2 102181. 1495.14   5
   4  -4   2 99852.1 814.077   3
  -4   4  -2 107800. 1004.68  11
  -4   4  -2 119695. 1611.36   7
  -4   4  -3 44882.6 660.452   3
   4  -4   3 48774.8 611.553   9
  -4   4  -3 47707.2 684.594  11
  -4   4  -3 52659.4 1133.14   7
  -4   4  -3 49372.7 1314.62   6
  -4   4  -3 46083.0 685.471   1
  -4   4  -4 199627. 2565.48   6
  -4   4  -4 200079. 1325.72  11
   4  -4   4 200916. 1291.10   9
  -4   4  -5 1556.25 596.125   6
   4  -4   5 1660.80 207.942   9
  -4   4  -5 1870.68 237.142  11
   4  -4   5 1646.02 180.781   2
  -4   4  -5 1386.17 234.292   3
  -4   4  -5 1799.44 197.449   1
  -4   4  -5 1329.69 456.808   7
  -4   4  -6 172326. 2610.21   6
  -4   4  -6 174815. 1311.54  11
   4  -4   6 177377. 1212.64   2
   4  -4   6 169714. 2303.19   4
  -4   4  -6 178097. 1130.52   1
  -4   4  -6 183744. 1528.31   3
   4  -4   7 576.672 181.502   2
  -4   4  -7 265.630 258.600   3
  -4   4  -7 1014.33 618.172   6
   4  -4   7 446.951 198.927   9
   4  -4   7 627.538 460.627   4
  -4   4  -7 903.851 218.658  11
  -4   4  -7 803.791 153.760   1
  -4   4  -8 148493. 1301.26  11
   4  -4   8 128734. 1299.61   9
   4  -4   8 152732. 1261.18   2
  -4   4  -8 167690. 1653.83   3
   4  -4   8 140903. 2168.91   4
  -4   4  -8 169485. 2970.30   6
  -4   4  -9 8709.99 415.234  11
  -4   4  -9 8549.48 981.612   6
   4  -4   9 6981.15 393.470   9
   4  -4   9 8541.86 357.499   2
   4  -4   9 8193.69 740.282   4
  -4   4 -10 37118.1 767.465  11
   4  -4  10 38209.9 744.978   2
  -4   4 -11 20324.8 1374.06   6
  -4   4 -11 19679.8 619.582  11
   4  -4  11 19992.3 575.156   2
   4  -4  11 21962.3 1059.66   4
  -4   3  13 50681.1 1355.17   7
  -4   3  13 51879.9 947.093   2
  -4   3  12 5402.70 568.855   7
  -4   3  12 5562.16 371.888   2
  -4   3  11 124006. 1837.28   7
  -4   3  11 121078. 1249.63   2
  -4   3  10 1098.93 218.952   2
  -4   3  10 985.649 368.014   7
  -4   3   9 194291. 2071.15   7
  -4   3   9 190395. 1054.24   8
  -4   3   8 10478.6 304.364  10
  -4   3   8 11282.0 275.851   8
  -4   3   8 10762.6 531.051   7
  -4   3   7 148169. 1448.00   6
  -4   3   7 143002. 1194.56   6
  -4   3   7 140394. 892.293  10
  -4   3   7 145024. 1044.32   2
  -4   3   7 134036. 1002.07   9
  -4   3   7 158875. 877.155   8
  -4   3   7 153722. 1675.02   7
  -4   3   6 46041.9 835.395   6
  -4   3   6 49913.2 500.348  10
  -4   3   6 48445.6 527.077   9
  -4   3   6 49599.5 667.944   6
  -4   3   6 50409.8 939.988   7
  -4   3   6 45640.6 540.322   2
  -4   3   6 53596.3 521.361   8
  -4   3   5 131133. 1354.76   6
  -4   3   5 138356. 1007.84   6
  -4   3   5 144796. 778.588   9
  -4   3   5 130693. 777.143   8
  -4   3   5 139265. 1449.19   7
  -4   3   5 136957. 865.585   2
  -4   3   4 44532.5 822.766   6
   4  -3  -4 43641.0 519.199   2
  -4   3   4 42242.2 352.320   9
  -4   3   4 44456.1 825.493   7
  -4   3   4 42488.3 434.292   2
  -4   3   3 78106.3 1096.67   6
  -4   3   3 70763.1 411.469   9
  -4   3   3 81124.1 1153.65   5
  -4   3   3 83335.6 1110.69   7
   4  -3  -3 76401.5 603.153   2
  -4   3   3 72859.4 498.662   2
   4  -3  -3 75255.8 1175.13   6
  -4   3   2 121260. 577.935   2
  -4   3   2 122502. 1421.56   6
   4  -3  -2 127851. 722.464   9
   4  -3  -2 125856. 666.322   2
  -4   3   2 122751. 1420.18   5
  -4   3   2 126946. 741.891   3
  -4   3   2 119575. 1270.85   7
  -4   3   2 124837. 574.633   9
  -4   3   1 20671.5 687.902   6
  -4   3   1 20260.1 495.076  11
  -4   3   1 21672.9 647.320   5
   4  -3  -1 21446.8 238.969   2
   4  -3  -1 20930.6 191.947  10
  -4   3   1 21687.9 569.487   7
  -4   3   1 20806.6 309.536   3
   4  -3   0 164911. 1914.22   6
  -4   3   0 182205. 1953.03   6
  -4   3   0 174258. 1334.43   1
   4  -3   0 179326. 925.015   9
  -4   3   0 157113. 1229.74  11
  -4   3   0 175802. 1779.72   5
   4  -3   0 175298. 561.328   2
  -4   3   0 172683. 873.422   8
  -4   3   0 180775. 1675.64   7
  -4   3   0 164369. 922.655   3
  -4   3  -1 935.057 142.476   3
  -4   3  -1 866.616 193.661  11
  -4   3  -1 627.301 171.017   1
  -4   3  -1 523.500 356.242   6
   4  -3   1 516.262 116.775   9
  -4   3  -1 528.503 112.258   8
   4  -3   1 595.418 112.982   3
   4  -3   1 528.307 49.9425   2
  -4   3  -1 522.045 272.924   7
  -4   3  -2 337203. 1464.38   3
  -4   3  -2 334374. 1718.77   1
  -4   3  -2 321598. 1668.17  11
   4  -3   2 341152. 1447.45   9
  -4   3  -2 333680. 2824.07   6
   4  -3   2 330073. 972.314   2
  -4   3  -2 347302. 2556.63   7
  -4   3  -3 16988.0 377.612   3
  -4   3  -3 16821.6 795.468   6
  -4   3  -3 14685.4 386.949  11
   4  -3   3 14722.3 341.703   9
  -4   3  -3 16384.5 391.380   1
   4  -3   3 16787.2 354.047   3
  -4   3  -3 15245.2 648.469   7
   4  -3   3 16758.0 271.107   2
  -4   3  -4 341645. 1687.84   3
  -4   3  -4 356952. 3303.33   6
   4  -3   4 316818. 1630.39   9
   4  -3   4 329913. 1286.05   2
  -4   3  -4 305411. 1631.11  11
  -4   3  -4 334295. 1579.03   1
  -4   3  -4 335573. 2945.69   7
   4  -3   4 357769. 1767.08   3
   4  -3   4 341931. 2876.11   4
  -4   3  -5 27210.5 552.236  11
  -4   3  -5 29222.4 1084.06   6
   4  -3   5 29601.6 436.453   2
   4  -3   5 31080.6 984.042   4
  -4   3  -5 29075.1 462.401   1
   4  -3   5 27201.8 533.989   9
   4  -3   6 124985. 1168.11   9
  -4   3  -6 148774. 1322.49   3
  -4   3  -6 144459. 2290.05   6
   4  -3   6 138974. 1013.63   2
   4  -3   6 132652. 1872.47   4
  -4   3  -6 137044. 1232.83  11
  -4   3  -6 131171. 905.790   1
  -4   3  -7 44961.1 1398.71   6
  -4   3  -7 42328.0 715.601  11
   4  -3   7 48111.1 1268.09   4
   4  -3   7 41554.5 729.839   9
  -4   3  -7 42756.0 519.603   1
   4  -3   7 47668.4 654.889   2
  -4   3  -8 62176.0 1657.77   6
  -4   3  -8 58606.1 856.810  11
   4  -3   8 57587.9 895.717   9
  -4   3  -8 65378.6 619.272   1
   4  -3   8 69427.5 847.481   2
   4  -3   8 64067.3 1395.27   4
   4  -3   9 27081.7 681.829   9
  -4   3  -9 37966.1 1459.02   6
  -4   3  -9 29960.5 671.247  11
   4  -3   9 32252.2 1081.22   4
   4  -3   9 33835.2 629.993   2
   4  -3  10 700.390 211.691   2
  -4   3 -10 347.906 703.089   6
   4  -3  10 516.641 266.026   9
  -4   3 -10 609.047 273.487  11
   4  -3  10 309.967 446.928   4
  -4   3 -11 62486.0 1889.56   6
  -4   3 -11 61417.0 1028.03  11
   4  -3  11 65995.9 940.829   2
  -4   2  13 92244.5 1228.67   2
  -4   2  13 87766.0 1658.79   7
  -4   2  12 26277.5 656.725   2
  -4   2  12 25092.5 901.731   7
  -4   2  11 157542. 1434.07   2
  -4   2  11 157115. 1952.58   7
  -4   2  10 44028.9 623.642   8
  -4   2  10 44693.1 727.851   2
  -4   2   9 122777. 995.525   8
  -4   2   9 124820. 1111.72   2
  -4   2   8 73938.9 679.229   6
  -4   2   8 65097.3 584.767   6
  -4   2   8 83271.7 789.531   8
  -4   2   8 84578.9 845.852   2
  -4   2   8 92300.3 1313.43   7
  -4   2   7 35925.1 569.153   9
  -4   2   7 36771.8 533.703   8
  -4   2   7 39568.6 548.637   2
  -4   2   7 40377.7 827.904   7
  -4   2   6 93311.0 1179.34   7
  -4   2   6 87774.3 808.526   9
  -4   2   6 93427.0 1168.93   5
  -4   2   6 85883.8 735.211   2
  -4   2   5 20668.4 581.933   5
  -4   2   5 20113.0 349.078   9
  -4   2   5 20811.2 406.536   8
  -4   2   5 20294.1 334.893   2
  -4   2   5 21260.3 567.674   7
  -4   2   4 144584. 976.194   6
  -4   2   4 150841. 824.396   9
  -4   2   4 149613. 1477.47   5
  -4   2   4 142169. 733.406   2
  -4   2   4 151103. 1390.18   7
  -4   2   3 8175.57 320.083   1
  -4   2   3 8152.93 192.856   9
  -4   2   3 8077.18 332.322   6
   4  -2  -3 8880.51 239.704   9
  -4   2   3 8164.04 400.694   5
  -4   2   3 7781.99 156.954   2
  -4   2   3 9442.64 398.263   7
   4  -2  -3 9102.41 417.099   6
   4  -2  -2 280487. 2015.58   6
  -4   2   2 280710. 1701.50  11
  -4   2   2 285189. 1770.61   6
  -4   2   2 255523. 1559.04   1
  -4   2   2 280289. 1012.33   9
   4  -2  -2 297273. 1230.53   9
  -4   2   2 299760. 2198.88   5
  -4   2   2 305272. 1977.17   7
   4  -2  -1 24584.4 666.499   6
  -4   2   1 23837.4 500.809  11
  -4   2   1 24564.3 631.502   6
  -4   2   1 23886.7 300.718   9
  -4   2   1 26413.4 493.552   1
   4  -2  -1 27321.2 382.307   9
  -4   2   1 23737.8 574.080   7
  -4   2   1 24934.8 273.255   3
  -4   2   0 304694. 939.696   3
   4  -2   0 318117. 2315.49   6
  -4   2   0 304762. 2194.57   6
  -4   2   0 276662. 1529.06  11
  -4   2   0 289348. 1125.14   9
   4  -2   0 320309. 1327.20   9
  -4   2   0 305463. 1595.91   1
  -4   2   0 293532. 2106.26   7
   4  -2   1 34227.7 841.111   6
  -4   2  -1 36209.1 362.323   3
  -4   2  -1 37669.4 901.304   6
   4  -2   1 37072.3 498.416   9
  -4   2  -1 33622.5 519.380   1
   4  -2   1 35199.6 794.782   4
  -4   2  -1 31851.6 403.731   8
   4  -2   1 34143.5 332.736   3
  -4   2  -1 32944.8 809.671   7
  -4   2  -1 31733.8 515.907  11
   4  -2   2 324607. 1497.57   9
  -4   2  -2 325622. 2637.49   6
  -4   2  -2 280708. 1492.69  11
  -4   2  -2 311139. 1195.59   3
   4  -2   2 335624. 2460.74   4
   4  -2   2 300306. 715.110   2
  -4   2  -2 328458. 1557.99   1
  -4   2  -2 291880. 2315.34   7
   4  -2   2 319008. 1206.37   3
  -4   2  -3 188687. 1276.35  11
  -4   2  -3 218590. 2278.19   6
  -4   2  -3 223690. 1168.21   3
   4  -2   3 216918. 798.746   2
   4  -2   3 217846. 1302.51   9
   4  -2   3 213839. 1969.57   4
  -4   2  -3 209454. 1178.10   1
  -4   2  -3 193592. 2073.74   7
   4  -2   3 211352. 1090.93   3
   4  -2   4 116997. 886.093   3
  -4   2  -4 117773. 1761.67   6
  -4   2  -4 122384. 985.265   3
   4  -2   4 121183. 734.729   2
   4  -2   4 123854. 1629.59   4
  -4   2  -4 118964. 887.907   1
  -4   2  -5 100019. 779.961   1
  -4   2  -5 98769.8 1701.27   6
  -4   2  -5 89070.3 959.329  11
   4  -2   5 104103. 1027.07   9
   4  -2   5 101811. 745.676   2
   4  -2   5 90222.9 1419.44   4
  -4   2  -6 21359.9 380.903   1
  -4   2  -6 24782.3 991.730   6
   4  -2   6 20541.7 505.485   9
  -4   2  -6 17983.7 476.839  11
   4  -2   6 22167.2 399.161   2
   4  -2   6 22621.7 776.801   4
  -4   2  -7 94057.0 1847.59   6
   4  -2   7 94547.2 856.830   2
   4  -2   7 96851.4 1562.29   4
   4  -2   8 641.252 177.783   2
  -4   2  -8 264.078 226.227  11
  -4   2  -8 889.853 589.628   6
   4  -2   8 507.483 224.692   9
   4  -2   8 778.834 403.288   4
  -4   2  -8 566.519 154.983   1
  -4   2  -9 65987.8 1760.53   6
   4  -2   9 53723.5 909.379   9
  -4   2  -9 49617.2 871.622  11
   4  -2   9 63957.9 818.403   2
   4  -2   9 61854.0 1316.17   4
  -4   2 -10 14064.0 1029.90   6
  -4   2 -10 11801.2 499.130  11
   4  -2  10 12394.0 514.520   9
   4  -2  10 14586.3 443.084   2
   4  -2  10 15549.1 771.261   4
  -4   2 -11 41902.8 1572.79   6
  -4   2 -11 39107.5 902.835  11
   4  -2  11 36944.4 857.947   9
   4  -2  11 47373.9 819.011   2
   4  -2  11 45564.6 1220.09   4
  -4   1  14 31093.0 770.444   2
  -4   1  14 30704.8 1090.59   7
  -4   1  13 66559.8 1059.25   2
  -4   1  13 64131.0 1418.13   7
  -4   1  12 92053.1 1013.70   1
  -4   1  12 95321.4 1169.08   2
  -4   1  12 92910.3 1079.07   8
  -4   1  11 36802.3 655.429   1
  -4   1  11 35625.4 735.928   5
  -4   1  11 36127.5 705.172   2
  -4   1  11 37859.1 976.259   7
  -4   1  10 81810.6 951.632   1
  -4   1  10 81531.8 1062.02   5
  -4   1  10 80129.2 972.645   2
  -4   1  10 79320.4 1285.10   7
  -4   1   9 15893.8 441.967   1
  -4   1   9 15373.2 486.810   5
  -4   1   9 15637.8 430.743   2
  -4   1   9 15194.7 577.143   7
  -4   1   8 90811.8 965.556   1
  -4   1   8 91158.1 1106.19   5
  -4   1   8 91209.8 933.875   2
  -4   1   8 91148.7 1261.75   7
  -4   1   7 445.197 134.582   2
  -4   1   7 459.415 175.217   1
  -4   1   7 635.558 206.047   5
  -4   1   7 454.074 162.681   8
  -4   1   7 253.249 199.938   7
  -4   1   6 109116. 1010.67   1
  -4   1   6 103849. 941.148   9
  -4   1   6 110693. 871.389   2
  -4   1   6 107789. 979.077   8
  -4   1   6 114156. 1246.87   5
  -4   1   6 110952. 1201.93   7
  -4   1   5 4308.77 234.556   1
  -4   1   5 3732.29 197.401   9
  -4   1   5 3703.55 169.935   2
  -4   1   5 4429.40 219.030   8
  -4   1   5 3698.33 174.912   3
  -4   1   5 4567.53 288.924   7
  -4   1   4 175868. 1041.87   9
  -4   1   4 166311. 833.703   3
   4  -1  -4 175173. 1085.86   9
  -4   1   4 170302. 836.561   2
   4  -1  -4 159988. 766.851   4
  -4   1   4 179394. 1387.03   7
  -4   1   4 178291. 1213.65   1
  -4   1   3 85786.0 668.095   6
   4  -1  -3 89770.0 835.132   6
  -4   1   3 83428.7 904.041  11
  -4   1   3 85719.1 671.689   9
  -4   1   3 86541.1 829.726   1
  -4   1   3 86428.8 496.652   3
   4  -1  -3 88422.0 751.709   9
  -4   1   3 82141.5 487.553   2
   4  -1  -3 84698.1 692.712   4
   4  -1  -3 84894.2 930.767   7
  -4   1   3 89131.8 979.834   7
   4  -1  -2 388192. 1943.13   6
  -4   1   2 345640. 1653.17   6
  -4   1   2 341586. 1719.67  11
  -4   1   2 357104. 1328.80   9
  -4   1   2 368437. 1672.36   1
   4  -1  -2 361533. 2049.47   5
   4  -1  -2 367665. 1669.54   4
   4  -1  -2 358131. 1890.53   7
  -4   1   2 358163. 1932.64   7
   4  -1  -1 190949. 1513.36   6
  -4   1   1 167461. 1137.21  11
  -4   1   1 180716. 1395.53   6
   4  -1  -1 200364. 1108.43   9
  -4   1   1 186720. 941.916   9
  -4   1   1 192376. 1189.95   1
   4  -1  -1 188932. 1338.67   4
   4  -1  -1 204095. 1501.85   7
  -4   1   1 180571. 1498.58   7
   4  -1   0 182118. 1619.48   6
   4  -1   0 173180. 1162.48   1
  -4   1   0 186385. 1598.36   6
   4  -1   0 187181. 556.467  10
  -4   1   0 183898. 958.873   9
   4  -1   0 188953. 1075.41   9
   4  -1   0 176952. 1379.03   4
  -4   1   0 188300. 1157.26   1
  -4   1   0 168613. 1107.33  11
   4  -1   0 173817. 1462.58   7
  -4   1   0 175909. 1638.52   7
   4  -1   1 305649. 2221.93   6
  -4   1  -1 318523. 2270.12   6
   4  -1   1 292085. 1512.85   1
  -4   1  -1 307260. 1301.56   9
   4  -1   1 332072. 1492.10   9
   4  -1   1 303882. 1905.51   4
  -4   1  -1 312654. 1428.14   1
  -4   1  -1 289683. 1474.23  11
  -4   1  -1 284981. 2136.84   7
   4  -1   1 316737. 887.182   3
   4  -1   2 114192. 669.855   3
  -4   1  -2 103456. 1397.90   6
  -4   1  -2 95779.2 857.224  11
   4  -1   2 104958. 880.656   9
   4  -1   2 105692. 1224.60   4
   4  -1   2 108301. 465.873   2
  -4   1  -2 108294. 830.779   1
  -4   1  -2 91127.5 1352.79   7
   4  -1   3 241292. 1114.67   3
  -4   1  -3 237436. 2209.23   6
   4  -1   3 237353. 1379.84   9
   4  -1   3 243032. 862.511   2
  -4   1  -3 244005. 1230.73   1
   4  -1   4 1428.68 151.947   3
  -4   1  -4 1441.96 148.645   1
   4  -1   4 1531.71 196.331   9
  -4   1  -4 1316.00 398.682   6
  -4   1  -4 1502.74 206.513  11
   4  -1   4 1870.67 307.900   4
   4  -1   4 1372.62 114.610   2
  -4   1  -5 78695.6 721.180   1
   4  -1   5 75690.8 875.450   9
   4  -1   5 77772.9 1209.92   4
   4  -1   5 76309.1 649.218   2
  -4   1  -6 3880.86 535.113   6
   4  -1   6 3471.63 257.684   9
  -4   1  -6 4083.11 213.692   1
   4  -1   6 4450.79 392.835   4
   4  -1   6 4244.85 202.959   2
  -4   1  -6 3229.24 280.436  11
  -4   1  -7 45902.5 1322.26   6
   4  -1   7 47567.4 800.886   9
   4  -1   7 47212.2 615.727   2
   4  -1   7 48740.4 1037.61   4
  -4   1  -8 40085.0 1286.91   6
  -4   1  -8 36435.5 543.016   1
  -4   1  -8 32159.2 697.401  11
   4  -1   8 37080.9 740.740   9
   4  -1   8 39533.6 615.163   2
   4  -1   8 44407.1 1037.85   4
  -4   1  -9 75968.3 1756.88   6
   4  -1   9 77175.0 896.732   2
   4  -1   9 78193.2 1384.46   4
  -4   1 -10 27657.0 765.392  11
  -4   1 -10 34421.4 1336.05   6
   4  -1  10 30574.1 754.134   9
   4  -1  10 32005.5 628.294   2
   4  -1  10 35564.1 1022.03   4
  -4   1 -11 47998.8 1631.41   6
   4  -1  11 50439.6 837.718   2
   4  -1  11 50082.3 1206.48   4
  -4   0  14 83628.4 1285.80   2
  -4   0  14 65646.3 997.452   8
  -4   0  13 18055.8 595.805   2
  -4   0  13 14050.6 506.045   8
  -4   0  12 95956.9 1237.29   2
  -4   0  12 88914.1 1468.64   7
  -4   0  11 4521.12 252.036   1
  -4   0  11 3804.47 305.798   8
  -4   0  11 4467.13 423.677   7
  -4   0  11 4841.19 326.752   2
  -4   0  10 79051.2 1006.68   2
   4   0 -10 68595.9 565.861   6
  -4   0  10 78379.8 809.119   1
  -4   0  10 70092.5 919.745   8
  -4   0  10 79262.0 1235.68   7
  -4   0   9 398.908 180.090   2
  -4   0   9 410.827 155.789   1
  -4   0   9 413.597 190.242   8
  -4   0   9 322.988 233.733   7
  -4   0   8 75726.2 875.178   2
  -4   0   8 75473.1 1062.42   7
  -4   0   7 54074.4 648.720   1
  -4   0   7 54302.0 728.372   8
  -4   0   7 53021.6 675.378   2
  -4   0   6 203371. 1134.28   3
  -4   0   6 208763. 1234.66   2
  -4   0   6 203657. 1209.55   1
  -4   0   6 211300. 1456.50   8
  -4   0   6 215002. 1547.34   7
  -4   0   5 224684. 1093.07   3
  -4   0   5 228986. 1213.24   2
   4   0  -5 224288. 1394.02   9
  -4   0   5 222446. 1262.21   1
  -4   0   5 227603. 1502.65   7
  -4   0   4 223924. 935.616   3
  -4   0   4 216150. 1234.78   1
   4   0  -4 213243. 814.699   6
  -4   0   4 204423. 1328.87  11
  -4   0   4 213541. 1028.99   2
  -4   0   4 210936. 1252.21   9
   4   0  -4 222603. 1332.82   9
   4   0  -4 220379. 1529.48   5
   4   0  -4 210018. 1323.49   7
  -4   0   4 219240. 1438.96   7
   4   0  -4 211907. 886.300   6
   4   0  -3 371434. 1515.34   6
   4   0  -3 353516. 1699.04   1
  -4   0   3 347196. 1256.75   6
  -4   0   3 361422. 1523.78   9
   4   0  -3 367285. 1671.18   9
  -4   0   3 362632. 1683.97  11
   4   0  -3 370082. 2088.86   5
  -4   0   3 363266. 1567.12   1
   4   0  -3 361754. 1695.10   7
  -4   0   3 368251. 1865.42   7
  -4   0   2 101197. 847.690  11
   4   0  -2 104137. 979.192   6
  -4   0   2 98610.6 869.439   6
  -4   0   2 108982. 439.866  10
   4   0  -2 103139. 906.563   1
  -4   0   2 105783. 804.918   9
   4   0  -2 99684.2 839.603   9
  -4   0   2 111011. 999.520   4
  -4   0   2 99690.0 796.669   1
   4   0  -2 99614.8 740.621   4
   4   0  -2 104573. 961.962   7
  -4   0   2 101401. 1034.36   7
   4   0  -1 357002. 2024.65   6
  -4   0   1 365873. 1471.99   9
  -4   0   1 325291. 1780.65   6
   4   0  -1 386945. 1671.25   9
   4   0  -1 358097. 1630.33   1
   4   0  -1 317622. 1675.83  11
  -4   0   1 376095. 1996.90   4
   4   0  -1 330528. 1493.22   4
   4   0  -1 356477. 1782.70   7
  -4   0   1 327281. 2005.63   7
   4   0   0 12953.6 130.506   3
   4   0   0 13533.6 355.378  11
   4   0   0 14861.2 518.538   6
  -4   0   0 14641.8 467.035   4
  -4   0   0 13920.8 463.922   6
   4   0   0 14534.8 352.134   1
  -4   0   0 14353.8 324.125  11
  -4   0   0 14929.9 310.985   9
   4   0   0 15059.1 342.755   9
   4   0   0 13825.4 366.701   4
  -4   0   0 14549.7 166.215   2
   4   0   0 13601.1 419.462   7
  -4   0   0 15178.2 332.205   1
  -4   0   0 13789.1 480.283   7
  -4   0  -1 375762. 1633.12  11
   4   0   1 350621. 974.510   3
  -4   0  -1 346320. 2236.00   6
   4   0   1 356928. 1102.24  10
   4   0   1 373249. 1644.55   9
   4   0   1 341172. 2290.83   6
  -4   0  -1 361895. 2246.55   4
   4   0   1 362486. 1881.96   4
   4   0   1 317375. 2123.21   7
  -4   0  -1 367657. 2482.15   7
  -4   0  -1 367175. 1476.85   1
  -4   0  -2 3294.81 184.394   1
   4   0   2 3022.92 143.354   3
   4   0   2 3250.16 214.862   9
  -4   0  -2 2809.96 124.759   2
  -4   0  -2 3080.54 356.715   6
  -4   0  -2 2801.57 205.285  11
   4   0   2 3338.87 260.767   4
   4   0   2 3279.62 118.138   2
   4   0   3 95463.4 721.767   3
  -4   0  -3 102836. 926.342  11
  -4   0  -3 105534. 823.613   1
   4   0   3 105599. 955.444   9
  -4   0  -3 96127.8 682.381   2
   4   0   3 102812. 1136.90   4
   4   0   3 103266. 618.497   2
  -4   0  -3 98875.7 1391.60   6
  -4   0  -4 44307.5 528.956   2
   4   0   4 42924.3 537.728   3
  -4   0  -4 46614.8 677.301  11
  -4   0  -4 48188.9 1060.85   6
   4   0   4 50340.1 703.363   9
  -4   0  -4 48944.5 570.459   1
   4   0   4 51036.6 878.520   4
   4   0   4 50271.6 489.773   2
  -4   0  -5 82796.2 931.108  11
  -4   0  -5 86396.1 1481.87   6
   4   0   5 81019.2 916.470   9
  -4   0  -5 85710.1 779.958   1
   4   0   5 87985.0 1179.42   4
   4   0   5 86495.0 707.043   2
  -4   0  -6 63322.4 1342.27   6
   4   0   6 57637.5 832.396   9
   4   0   6 66378.8 1087.49   4
   4   0   6 64832.3 663.428   2
  -4   0  -6 62651.0 699.376   1
  -4   0  -6 60162.5 857.381  11
  -4   0  -7 45499.2 631.599   1
  -4   0  -7 47878.4 804.636  11
   4   0   7 50140.9 826.263   9
  -4   0  -7 54604.5 1363.83   6
   4   0   7 55349.2 1041.67   4
   4   0   7 51754.2 647.988   2
  -4   0  -8 88472.5 1147.49  11
  -4   0  -8 110340. 1983.22   6
  -4   0  -8 93138.3 945.581   1
   4   0   8 99636.6 1196.92   9
   4   0   8 111648. 1491.63   4
   4   0   8 101652. 958.476   2
  -4   0  -9 24442.1 713.665  11
   4   0   9 25346.2 677.186   9
   4   0   9 29790.9 839.505   4
   4   0   9 24715.0 528.227   2
  -4   0  -9 29057.3 1161.60   6
  -4   0  -9 25007.4 544.517   1
   4   0  10 74559.6 1156.87   9
  -4   0 -10 81962.8 1882.32   6
   4   0  10 85381.4 1368.21   4
   4   0  10 78231.7 946.026   2
   4   0  11 13182.9 582.828   9
  -4   0 -11 11598.3 571.993  11
  -4   0 -11 14875.2 1045.18   6
   4   0  11 16820.9 712.553   4
   4   0  11 14247.2 476.635   2
  -4  -1  14 89757.0 1353.44   2
  -4  -1  14 79417.8 1153.53   8
  -4  -1  13 2744.09 337.833   2
  -4  -1  13 2429.83 301.356   8
  -4  -1  12 56028.6 973.619   2
  -4  -1  12 49633.3 847.285   8
  -4  -1  11 17316.9 543.829   2
  -4  -1  11 16484.9 512.824   8
  -4  -1  11 17106.9 341.762   1
   4   1 -10 36312.8 567.400   6
  -4  -1  10 41588.5 780.498   2
  -4  -1  10 39752.0 749.585   8
  -4  -1  10 38489.3 490.467   1
  -4  -1  10 42024.2 875.110   7
   4   1  -9 76285.8 737.266   6
  -4  -1   9 88069.9 1049.00   2
  -4  -1   9 83978.4 1064.47   8
  -4  -1   9 79398.3 703.901   1
  -4  -1   9 85582.5 1119.59   7
  -4  -1   9 78774.4 991.722   6
   4   1  -8 68129.2 828.454   3
  -4  -1   8 68443.2 879.890   8
  -4  -1   8 70559.9 964.861   7
   4   1  -7 232723. 1418.08   3
  -4  -1   7 229571. 1477.96   2
   4   1  -7 212329. 830.523   6
  -4  -1   7 229989. 1614.53   8
  -4  -1   7 215075. 1119.20   1
  -4  -1   7 226784. 1542.62   7
  -4  -1   6 31879.8 481.763   3
   4   1  -6 28196.9 407.517   6
   4   1  -6 30194.1 350.191   6
   4   1  -6 30113.4 476.341   3
  -4  -1   6 31126.7 606.045   8
  -4  -1   6 29520.8 428.555   1
  -4  -1   6 31507.5 554.565   7
   4   1  -5 417170. 1783.94   6
  -4  -1   5 386358. 1636.22  11
   4   1  -5 405039. 1538.82   3
   4   1  -5 399099. 1821.40   1
   4   1  -5 399763. 1411.41   6
   4   1  -5 402960. 1977.10   9
   4   1  -5 419280. 2116.32   5
  -4  -1   5 402995. 1259.34   4
  -4  -1   5 410690. 1809.99   7
  -4  -1   5 403938. 1532.29   3
  -4  -1   4 23285.3 396.380  11
   4   1  -4 25524.9 438.864   6
   4   1  -4 23047.8 323.817   3
   4   1  -4 25278.5 464.935   1
   4   1  -4 27306.8 537.998   9
  -4  -1   4 27376.6 395.126   4
   4   1  -4 24269.6 416.594   7
  -4  -1   4 23848.6 432.666   7
  -4  -1   4 24463.7 389.218   1
  -4  -1   4 25165.6 385.701   3
   4   1  -4 26878.7 534.535   6
   4   1  -3 406459. 1837.77   6
  -4  -1   3 386015. 1443.59   6
   4   1  -3 417656. 1886.31   9
   4   1  -3 410083. 1766.37   1
  -4  -1   3 429522. 1684.52   4
   4   1  -3 428854. 1666.93   7
  -4  -1   3 416954. 1837.34   9
  -4  -1   3 384899. 1765.67   7
   4   1  -2 31076.5 301.569   3
   4   1  -2 28639.6 498.224  11
  -4  -1   2 34019.1 459.837  11
  -4  -1   2 27560.7 486.768   6
   4   1  -2 29756.2 579.894   6
  -4  -1   2 31239.1 491.602   9
   4   1  -2 30618.0 507.723   9
  -4  -1   2 33681.2 568.597   4
   4   1  -2 35141.3 524.937   7
  -4  -1   2 29593.2 557.755   7
  -4  -1   2 29305.1 421.697   1
  -4  -1   1 335195. 1385.61   1
  -4  -1   1 333641. 1056.67  10
   4   1  -1 338870. 1637.93   9
  -4  -1   1 334322. 1792.55   4
   4   1  -1 335427. 1649.00   7
  -4  -1   1 332875. 1863.44   7
   4   1   0 52636.8 865.039   6
  -4  -1   0 53108.5 852.217   6
   4   1   0 56258.9 659.181   9
  -4  -1   0 58324.4 608.813  11
  -4  -1   0 54965.9 802.113   4
   4   1   0 50177.8 788.601   7
  -4  -1   0 55155.1 416.959   2
  -4  -1   0 56460.4 587.780   1
   4   1   0 53782.4 640.518  11
   4   1   1 116816. 637.619   2
  -4  -1  -1 124569. 951.116  11
   4   1   1 117204. 966.371   9
  -4  -1  -1 119118. 870.151   1
  -4  -1  -1 107895. 1281.18   6
  -4  -1  -1 114839. 658.212   2
   4   1   1 111283. 948.234   4
   4   1   1 98318.5 1207.32   7
   4   1   2 105998. 661.540   2
  -4  -1  -2 102596. 903.854  11
   4   1   2 98067.5 717.513  10
  -4  -1  -2 91531.1 1256.52   6
   4   1   2 94449.5 906.576   9
  -4  -1  -2 99080.2 797.623   1
  -4  -1  -2 91801.8 639.948   2
   4   1   2 95374.9 941.296   4
  -4  -1  -3 11631.9 358.446  11
   4   1   3 12164.7 297.867  10
  -4  -1  -3 12011.4 561.449   6
   4   1   3 11698.7 360.384   9
  -4  -1  -3 10506.2 263.069   2
  -4  -1  -3 11449.8 313.793   1
   4   1   3 11652.8 383.049   4
   4   1   3 11012.3 235.633   2
  -4  -1  -4 133055. 1145.92  11
  -4  -1  -4 135224. 1727.26   6
   4   1   4 135968. 974.653  10
   4   1   4 135667. 1250.62   4
   4   1   4 135118. 850.824   2
  -4  -1  -5 12095.4 416.384  11
   4   1   5 11269.7 387.015   9
   4   1   5 11776.5 437.186   4
   4   1   5 11809.2 292.973   2
  -4  -1  -5 11087.5 339.435   1
   4   1   6 123942. 1222.26   9
   4   1   6 133329. 1378.37   4
  -4  -1  -6 133737. 1331.42  11
   4   1   6 128811. 967.437   2
  -4  -1  -6 125434. 1112.11   1
  -4  -1  -7 10600.1 449.148  11
  -4  -1  -7 12244.5 760.534   6
   4   1   7 11067.9 437.044   9
   4   1   7 11472.1 346.209   2
  -4  -1  -8 136265. 1486.90  11
   4   1   8 135824. 1399.94   9
  -4  -1  -9 887.532 602.255   6
   4   1   9 328.396 185.851   2
  -4  -1  -9 667.116 305.058  11
   4   1   9 46.4907 245.592   9
  -4  -1  -9 336.042 251.666   1
  -4  -1 -10 80177.5 1828.51   6
   4   1  10 75981.5 1169.22   9
   4   1  10 79414.3 980.472   2
   4   1  11 886.685 258.072   2
  -4  -1 -11 1484.41 711.676   6
   4   1  11 694.108 345.062   9
  -4  -2  14 33134.2 875.173   2
  -4  -2  14 27769.0 703.330   8
  -4  -2  13 18966.0 658.823   2
  -4  -2  13 16937.3 583.986   8
  -4  -2  12 15610.9 579.089   2
  -4  -2  12 14099.6 515.907   8
  -4  -2  11 49569.7 488.722   1
   4   2 -11 50463.0 940.545   6
   4   2 -11 53885.2 934.703   3
  -4  -2  11 54949.5 953.100   2
  -4  -2  11 53953.0 931.094   8
  -4  -2  10 2825.44 313.635   2
   4   2 -10 2212.51 396.857   6
  -4  -2  10 1721.76 273.674   8
  -4  -2  10 2417.89 303.025   7
  -4  -2  10 2605.87 156.436   1
   4   2 -10 2700.74 298.528   3
   4   2  -9 239846. 1777.11   6
  -4  -2   9 231563. 1740.91   8
  -4  -2   9 245244. 1733.19   7
  -4  -2   9 232852. 2069.46   6
  -4  -2   9 242994. 1106.13   1
   4   2  -8 18832.1 575.059   6
  -4  -2   8 19276.2 511.449   8
  -4  -2   8 19202.1 695.263   6
  -4  -2   8 20068.5 334.826   1
   4   2  -7 339936. 2102.70   6
  -4  -2   7 376591. 1570.24  11
   4   2  -7 360929. 1822.30   3
   4   2  -7 356807. 1801.94   5
  -4  -2   7 347899. 2092.69   8
  -4  -2   7 362216. 1766.07   7
  -4  -2   7 350368. 1359.44   1
  -4  -2   6 15406.2 303.823   1
   4   2  -6 17037.0 558.130   6
   4   2  -6 16276.7 391.191   3
  -4  -2   6 16401.4 304.367  11
   4   2  -6 17678.0 405.804   6
   4   2  -6 15973.4 456.637   9
  -4  -2   6 14940.1 444.659   8
  -4  -2   6 16680.5 367.798   7
  -4  -2   6 14339.5 360.230   3
   4   2  -5 312156. 2096.08   6
  -4  -2   5 302994. 1327.72   1
   4   2  -5 291174. 1414.16   3
  -4  -2   5 302182. 1173.10  11
   4   2  -5 304676. 1577.01   6
   4   2  -5 290973. 1743.90   9
  -4  -2   5 278076. 1252.01   7
  -4  -2   5 281034. 1403.52   3
   4   2  -4 43583.0 535.476   3
  -4  -2   4 40625.2 486.743   1
  -4  -2   4 45735.5 458.447  11
   4   2  -4 44936.3 677.222   6
   4   2  -4 42069.3 682.233   9
  -4  -2   4 43336.7 515.306   7
  -4  -2   4 39266.8 489.517   3
   4   2  -4 45061.7 839.890   6
   4   2  -3 132530. 960.008  11
  -4  -2   3 124815. 878.344   1
  -4  -2   3 140242. 805.852  11
   4   2  -3 126767. 1195.32   6
   4   2  -3 127798. 1122.67   9
  -4  -2   3 122265. 906.222   4
   4   2  -3 128912. 765.515   7
  -4  -2   3 127871. 767.699   3
  -4  -2   3 140855. 951.827   7
   4   2  -3 121220. 1420.49   6
   4   2  -3 115625. 816.312   3
  -4  -2   2 134045. 820.428   2
   4   2  -2 115801. 903.813  11
  -4  -2   2 130949. 797.741  11
  -4  -2   2 120499. 858.229   1
   4   2  -2 119778. 1224.72   6
  -4  -2   2 114136. 1029.05   6
   4   2  -2 121745. 1046.32   9
  -4  -2   2 117207. 977.857   4
   4   2  -2 130744. 859.586   7
   4   2  -2 118568. 780.114   3
  -4  -2   1 25338.9 351.215   2
   4   2  -1 19320.2 375.713  11
  -4  -2   1 25793.4 401.068  11
   4   2  -1 22631.7 608.794   6
  -4  -2   1 25144.5 368.510  10
  -4  -2   1 23259.2 405.543   1
  -4  -2   1 20181.7 496.081   6
   4   2  -1 22690.9 461.353   9
  -4  -2   1 22188.9 483.490   4
   4   2  -1 22220.5 453.742   7
   4   2  -1 25291.2 338.818   3
  -4  -2   0 143282. 958.512  11
  -4  -2   0 125829. 1257.06   6
   4   2   0 139538. 1124.57   9
  -4  -2   0 146789. 1007.58   1
   4   2   0 140721. 765.049   3
   4   2   0 118255. 1189.68   7
  -4  -2   0 143856. 812.365   2
   4   2   1 6231.39 204.577   2
  -4  -2  -1 5450.96 242.836  11
  -4  -2  -1 5282.31 352.851   6
   4   2   1 6345.34 268.637   9
  -4  -2  -1 5842.62 246.509   1
  -4  -2  -1 5935.81 198.045   2
  -4  -2  -2 115995. 1420.25   6
   4   2   2 115898. 1053.62   9
  -4  -2  -2 120937. 995.730  11
  -4  -2  -2 120623. 956.630   1
   4   2   3 12381.7 295.778   2
  -4  -2  -3 12619.2 395.120  11
   4   2   3 11280.9 311.622  10
  -4  -2  -3 12779.7 577.724   6
   4   2   3 11483.0 367.508   9
  -4  -2  -3 11415.7 342.909   1
  -4  -2  -4 199472. 1352.66   1
  -4  -2  -4 196867. 1453.91  11
   4   2   4 190819. 1210.38  10
  -4  -2  -4 198682. 2125.59   6
   4   2   4 188606. 1419.87   9
   4   2   4 197026. 1128.19   2
   4   2   5 556.062 146.283   2
  -4  -2  -5 605.798 216.317  11
   4   2   5 976.075 188.365  10
   4   2   5 792.811 204.986   9
  -4  -2  -5 886.078 443.569   6
  -4  -2  -5 822.494 201.530   1
   4   2   6 154275. 1394.90   9
  -4  -2  -6 152271. 1352.68   1
   4   2   6 157065. 1134.22   2
  -4  -2  -7 8718.62 460.161  11
   4   2   7 8673.54 367.461  10
   4   2   7 8148.40 391.561   9
   4   2   7 9105.00 326.116   2
  -4  -2  -7 7633.80 372.645   1
  -4  -2  -8 113711. 1413.56  11
  -4  -2  -8 124730. 2078.00   6
  -4  -2  -8 102229. 1269.26   1
   4   2   8 110405. 1295.87   9
   4   2   8 117542. 1224.36  10
   4   2   8 111199. 1050.48   2
  -4  -2  -9 20423.0 620.563   1
  -4  -2  -9 22261.1 733.917  11
   4   2   9 22965.4 609.501  10
  -4  -2  -9 23463.7 1045.50   6
   4   2   9 21713.6 635.004   9
   4   2   9 22105.0 522.819   2
  -4  -2 -10 28476.0 1156.87   6
   4   2  10 26275.5 739.035   9
   4   2  10 29152.4 724.857  10
   4   2  10 28745.1 629.833   2
  -4  -3  14 5126.55 448.015   2
  -4  -3  14 4460.64 420.868   8
   4   3 -13 85311.3 1338.47   3
  -4  -3  13 84463.2 1345.41   2
  -4  -3  13 80935.1 1195.10   8
  -4  -3  12 248.442 298.635   2
  -4  -3  12 457.390 286.297   8
   4   3 -12 899.899 332.471   3
   4   3 -11 161040. 1627.75   3
  -4  -3  11 159375. 1659.32   2
   4   3 -10 5056.33 513.563   6
  -4  -3  10 6305.62 394.267   8
  -4  -3  10 5051.62 330.573   7
   4   3 -10 6044.65 402.453   3
  -4  -3  10 4492.82 176.347   1
   4   3  -9 241517. 2206.69   6
  -4  -3   9 260383. 1167.64  11
  -4  -3   9 255767. 1135.25   1
   4   3  -9 261782. 1840.17   3
  -4  -3   9 247072. 1840.18   8
  -4  -3   9 232915. 1540.55   7
   4   3  -8 47123.5 1034.35   6
  -4  -3   8 49121.0 515.558   1
  -4  -3   8 52660.2 467.806  11
   4   3  -8 46760.7 663.067   5
  -4  -3   8 48419.6 621.768   7
  -4  -3   8 51262.5 822.290   8
   4   3  -8 47829.9 751.518   3
  -4  -3   8 43972.1 1149.46   6
   4   3  -7 140614. 1714.82   6
   4   3  -7 141233. 1224.25   3
  -4  -3   7 148302. 696.025  11
  -4  -3   7 137664. 867.240   1
  -4  -3   7 137007. 1360.48   8
  -4  -3   7 128976. 855.485   7
   4   3  -6 105075. 1449.93   6
   4   3  -6 100183. 995.205   3
  -4  -3   6 111479. 563.017  11
  -4  -3   6 105186. 774.414   1
   4   3  -6 108236. 1051.10   6
   4   3  -6 104034. 1153.14   9
  -4  -3   6 105079. 1124.60   8
  -4  -3   6 97822.2 630.305   7
   4   3  -5 66499.8 1183.12   6
   4   3  -5 57114.0 723.966   3
  -4  -3   5 64934.1 446.558  11
   4   3  -5 66299.7 891.635   6
  -4  -3   5 57996.0 580.696   1
   4   3  -5 50938.1 784.297   9
  -4  -3   5 52727.3 351.113   7
  -4  -3   4 158374. 744.394  11
   4   3  -4 152390. 1365.43   6
  -4  -3   4 153247. 959.292   1
   4   3  -4 166873. 1431.16   9
  -4  -3   4 143323. 991.929   3
   4   3  -4 144661. 1703.01   6
   4   3  -4 132472. 1067.03   3
   4   3  -3 26906.5 415.874  11
   4   3  -3 26201.5 632.356   6
  -4  -3   3 27357.1 342.883  11
   4   3  -3 26182.0 564.156   9
  -4  -3   3 24986.3 419.578   1
   4   3  -3 24377.3 254.066   7
   4   3  -3 24024.5 450.558   3
   4   3  -3 23912.7 762.941   6
   4   3  -2 126102. 878.326  11
  -4  -3   2 138752. 823.336  11
   4   3  -2 137168. 1192.25   9
  -4  -3   2 141086. 989.296   1
   4   3  -2 153031. 839.338   7
   4   3  -2 141157. 957.592   3
   4   3  -2 131021. 1741.50   6
  -4  -3   1 709.985 138.186  11
   4   3  -1 445.691 128.370  11
  -4  -3   1 478.491 214.063   6
   4   3  -1 421.800 161.617   9
  -4  -3   1 448.236 147.019   1
   4   3  -1 549.835 130.948   3
   4   3  -1 828.783 180.828   7
  -4  -3   0 181722. 1122.43  11
  -4  -3   0 179833. 1552.68   6
   4   3   0 195857. 1387.49   9
   4   3   0 188575. 1019.67   3
  -4  -3   0 192606. 1290.03   1
  -4  -3  -1 991.814 179.840  11
  -4  -3  -1 1420.63 283.345   6
   4   3   1 1503.86 190.532   9
   4   3   1 1123.17 150.760   2
  -4  -3  -1 1171.21 185.427   1
   4   3   1 755.420 257.255   7
  -4  -3  -2 219163. 1434.22   1
   4   3   2 218440. 1219.02   2
  -4  -3  -2 219414. 1444.23  11
  -4  -3  -2 206727. 1885.99   6
   4   3   2 208884. 1437.13   9
   4   3   3 24079.6 441.992   2
  -4  -3  -3 23963.9 518.687   1
  -4  -3  -3 23205.0 515.905  11
  -4  -3  -3 23837.3 721.155   6
   4   3   3 22309.6 507.908   9
  -4  -3  -4 188737. 2015.52   6
   4   3   4 187373. 1196.89   2
   4   3   4 184884. 1451.21   9
   4   3   5 61973.1 800.935  10
   4   3   5 61257.9 887.265   9
  -4  -3  -5 62833.5 888.291   1
   4   3   5 61817.0 715.587   2
  -4  -3  -6 100675. 1241.99  11
   4   3   6 98055.2 1045.43  10
  -4  -3  -6 105882. 1661.92   6
   4   3   6 107233. 1249.91   9
   4   3   6 98195.9 953.390   2
  -4  -3  -6 90993.6 1144.83   1
  -4  -3  -7 71377.0 1152.70  11
   4   3   7 70344.0 946.328  10
  -4  -3  -7 70446.2 1446.27   6
   4   3   7 67302.3 995.606   9
   4   3   7 69327.6 854.705   2
   4   3   8 14084.9 493.167  10
  -4  -3  -8 16491.0 855.959   6
   4   3   8 16214.0 562.268   9
   4   3   8 14556.6 443.543   2
   4   3   9 42407.0 816.299  10
  -4  -3  -9 43738.2 1284.28   6
   4   3   9 41420.4 895.871   9
   4   3   9 41560.1 732.130   2
   4   4 -14 8838.33 624.807   3
  -4  -4  14 8064.57 546.369   2
  -4  -4  14 7364.58 494.144   8
  -4  -4  13 92328.4 1475.39   2
  -4  -4  13 91681.2 1338.56   8
   4   4 -12 59874.6 1149.21   3
  -4  -4  12 54752.0 1009.60   8
  -4  -4  11 107859. 1319.14   8
   4   4 -11 109906. 1382.51   3
   4   4 -10 54158.1 1265.36   6
   4   4 -10 55569.8 948.399   3
  -4  -4  10 58183.8 979.722   8
  -4  -4  10 58601.0 569.852   1
   4   4  -9 78607.2 1508.22   6
   4   4  -9 77872.7 1079.15   3
  -4  -4   9 76695.3 1076.50   8
  -4  -4   9 79233.1 679.754   1
   4   4  -8 159846. 2029.58   6
   4   4  -8 148079. 1390.07   3
  -4  -4   8 150985. 907.127   1
  -4  -4   8 160546. 1446.79   8
   4   4  -7 10308.1 684.841   6
   4   4  -7 9625.27 406.788   3
  -4  -4   7 11006.8 443.824   8
  -4  -4   7 10351.5 272.233   1
   4   4  -6 94636.4 1571.83   6
   4   4  -6 81301.3 985.644   3
  -4  -4   6 82136.6 360.774  11
   4   4  -6 93018.5 1138.68   9
  -4  -4   6 96868.7 1114.88   8
  -4  -4   6 86980.6 732.159   1
   4   4  -5 250.618 178.422   3
  -4  -4   5 458.127 74.1739  11
   4   4  -5 759.902 426.277   6
   4   4  -5 394.718 190.419   9
  -4  -4   5 399.618 189.114   8
  -4  -4   5 278.312 154.870   1
  -4  -4   4 124497. 654.271  11
   4   4  -4 126291. 1279.26   9
  -4  -4   4 126657. 972.258   1
   4   4  -4 123741. 1115.44   3
   4   4  -3 20706.6 351.377  11
   4   4  -3 19651.9 519.126   9
  -4  -4   3 19418.4 408.842   1
   4   4  -3 19721.1 462.060   3
  -4  -4   3 18958.4 306.321  11
   4   4  -3 18375.7 769.898   6
  -4  -4   2 199961. 1079.15  11
   4   4  -2 177640. 1076.70  11
   4   4  -2 184226. 1431.42   9
   4   4  -2 210501. 975.385   7
   4   4  -2 190263. 1185.06   3
   4   4  -2 181897. 2233.60   6
  -4  -4   2 191263. 1241.93   1
  -4  -4   1 34412.3 572.752   1
  -4  -4   1 34108.5 485.468  11
   4   4  -1 33028.5 631.635   9
   4   4  -1 33712.2 512.173   3
   4   4  -1 34796.4 589.919   7
  -4  -4   0 113686. 1056.21   1
  -4  -4   0 113977. 949.376  11
   4   4   0 111018. 1132.76   9
  -4  -4   0 111992. 1227.16   6
   4   4   0 115898. 913.062   3
  -4  -4  -1 57199.8 730.643  11
  -4  -4  -1 54520.4 761.911   1
   4   4   1 56441.8 814.440   9
   4   4   1 56849.4 654.559   3
   4   4   2 159662. 1148.58   2
  -4  -4  -2 157190. 1278.89  11
   4   4   2 153651. 1302.85   9
  -4  -4  -2 151769. 1631.04   6
   4   4   3 123609. 1043.91   2
   4   4   3 113854. 1137.55   9
  -4  -4  -3 116900. 1176.00  11
  -4  -4  -3 118991. 1530.09   6
  -4  -4  -3 121913. 1234.02   1
   4   4   4 26214.6 507.645   2
   4   4   4 26204.5 606.370   9
  -4  -4  -4 25526.7 789.015   6
  -4  -4  -4 27530.7 667.270  11
  -4  -4  -4 25353.2 622.840   1
   4   4   5 125571. 1112.37   2
  -4  -4  -5 118590. 1380.39   1
  -4  -4  -5 121026. 1375.10  11
   4   4   5 116021. 1243.38   9
  -4  -4  -5 122222. 1691.16   6
   4   4   6 2427.20 244.281   2
   4   4   6 2684.66 310.223   9
  -4  -4  -6 1886.73 350.143   1
  -4  -4  -7 56126.8 1079.10   1
   4   4   7 60874.9 986.698   9
  -4  -4  -7 68412.5 1458.16   6
   4   4   7 68014.0 899.284   2
   4   4   8 5751.31 403.472   9
   4   4   8 6435.76 345.010   2
   4   4   9 39597.4 896.914   9
   4   4   9 37922.0 735.431   2
   4   5 -13 31642.7 955.390   3
  -4  -5  13 30960.3 805.991   8
   4   5 -12 86995.7 1379.61   3
  -4  -5  12 92934.4 1328.21   8
   4   5 -11 11416.7 864.857   6
   4   5 -11 13177.1 571.668   3
  -4  -5  11 12378.5 531.709   8
   4   5 -10 87441.4 1732.04   6
  -4  -5  10 90727.9 1226.96   8
   4   5  -9 720.615 267.184   3
   4   5  -9 1046.15 590.785   6
  -4  -5   9 378.064 257.730   8
  -4  -5   9 465.863 156.036   1
   4   5  -8 78234.0 1637.53   6
  -4  -5   8 80143.2 761.142   1
  -4  -5   8 81027.5 1042.08   8
   4   5  -7 8268.01 727.341   6
   4   5  -7 8446.78 421.277   3
  -4  -5   7 8316.86 305.211   1
  -4  -5   7 8617.20 406.846   8
   4   5  -6 62850.6 917.906   3
   4   5  -6 60495.4 1454.98   6
  -4  -5   6 64238.2 751.792   1
   4   5  -6 64099.0 987.809   9
  -4  -5   6 60624.9 910.553   8
   4   5  -5 14586.1 826.164   6
  -4  -5   5 13814.3 396.349   1
   4   5  -5 14214.6 497.718   9
  -4  -5   5 13903.4 436.268   8
   4   5  -5 13894.4 451.837   3
  -4  -5   4 82373.1 861.427   1
   4   5  -4 85684.7 1101.76   9
   4   5  -4 87409.8 1024.24   3
   4   5  -4 81911.5 1615.21   6
   4   5  -3 60718.9 577.887  11
  -4  -5   3 57645.0 741.679   1
   4   5  -3 61979.3 925.327   9
   4   5  -3 58530.1 1394.20   6
   4   5  -2 109560. 859.659  11
  -4  -5   2 112761. 1076.44   1
   4   5  -2 123232. 1293.48   9
   4   5  -2 115932. 732.520   7
   4   5  -2 119047. 1028.00   3
   4   5  -2 112391. 1865.42   6
  -4  -5   1 82423.2 810.165  11
  -4  -5   1 88466.0 1026.38   1
   4   5  -1 82993.0 1019.57   9
   4   5  -1 91559.7 925.573   3
   4   5  -1 80086.6 1699.90   6
  -4  -5   0 30612.2 552.623  11
   4   5   0 30954.4 644.490   9
  -4  -5   0 34693.6 699.010   1
   4   5   0 33255.7 564.826   3
   4   5   0 28757.1 1131.63   6
   4   5   1 204795. 1612.94   9
  -4  -5  -1 201572. 1608.79   1
   4   5   1 201938. 1317.51   3
   4   5   2 13906.2 421.760   2
  -4  -5  -2 13232.1 551.722   6
   4   5   2 13667.4 469.408   9
  -4  -5  -2 12471.4 469.793   1
  -4  -5  -3 156470. 1600.45   1
   4   5   3 160023. 1487.46   9
   4   5   4 3343.50 268.650   2
   4   5   4 3497.29 313.211   9
  -4  -5  -4 2855.39 405.572   6
  -4  -5  -4 3798.17 406.884   1
   4   5   5 47052.7 825.728   9
  -4  -5  -5 46905.9 985.673   1
   4   5   6 17894.2 513.900   2
  -4  -5  -6 16121.3 695.274   1
   4   5   6 16206.4 567.054   9
  -4  -5  -6 18062.6 776.328   6
   4   5   7 18894.6 550.778   2
  -4  -5  -7 18342.2 850.725   6
   4   6 -13 22.7806 385.678   3
  -4  -6  13 216.293 332.385   8
   4   6 -12 52253.1 1612.73   6
   4   6 -12 58005.6 1163.43   3
   4   6 -11 657.477 336.715   3
  -4  -6  11-279.081 297.965   8
   4   6 -11 309.076 668.584   6
   4   6 -10 53965.6 1585.86   6
   4   6 -10 49738.4 1002.55   3
  -4  -6  10 52131.4 961.358   8
   4   6  -9 10384.7 875.731   6
   4   6  -9 10858.4 536.551   3
  -4  -6   9 10408.1 480.330   8
  -4  -6   9 9897.02 351.336   1
   4   6  -8 28435.3 1196.27   6
  -4  -6   8 29863.3 689.037   8
  -4  -6   8 28081.6 534.126   1
   4   6  -7 33273.2 1246.09   6
  -4  -6   7 35279.7 706.260   8
  -4  -6   7 34278.3 599.999   1
  -4  -6   6 52105.4 897.552   8
  -4  -6   6 51344.0 736.460   1
   4   6  -5 87115.9 1817.77   6
   4   6  -5 95721.8 1241.59   9
  -4  -6   5 90454.8 1124.71   8
  -4  -6   5 89113.0 981.064   1
   4   6  -5 99221.2 1201.91   3
  -4  -6   4 61713.4 844.874   8
  -4  -6   4 60435.3 844.920   1
   4   6  -3 218998. 1842.49   9
  -4  -6   3 191253. 1514.26   1
   4   6  -3 204782. 1610.20   3
   4   6  -3 173544. 2472.72   6
   4   6  -2 2030.73 594.589   6
   4   6  -2 2776.26 296.069   9
  -4  -6   2 2727.07 285.093   1
   4   6  -2 3021.06 262.327   3
   4   6  -1 166365. 1526.96   9
   4   6  -1 158749. 963.805   7
   4   6  -1 177442. 1399.90   3
  -4  -6   1 157028. 1492.78   1
   4   6  -1 145334. 2331.02   6
   4   6   0 871.029 230.398   3
   4   6   0 731.906 588.276   6
   4   6   0 389.199 222.019   9
  -4  -6   0 990.395 286.147   1
   4   6   1 123116. 1308.24   9
   4   6   1 129297. 1180.71   3
   4   6   1 125387. 2413.88   6
   4   6   2 25459.7 627.168   9
   4   6   2 25412.5 547.486   3
   4   6   2 26195.6 1270.88   6
   4   6   3 42882.3 762.872   2
   4   6   3 42009.5 809.884   9
  -4  -6  -3 40979.9 936.231   1
   4   6   4 28335.1 624.114   2
  -4  -6  -4 29031.2 859.545   1
   4   6   4 29540.5 714.880   9
   4   6   5 9829.19 406.302   2
   4   6   5 10761.0 468.785   9
   4   6   6 26439.4 658.239   2
   4   6   6 28398.0 740.924   9
   4   7 -12 30457.9 937.275   3
  -4  -7  12 29462.1 828.029   8
   4   7 -11 19384.4 744.055   3
  -4  -7  11 17899.4 634.179   8
   4   7 -10 17054.3 684.071   3
  -4  -7  10 15808.5 599.283   8
   4   7  -9 65021.3 1178.43   3
  -4  -7   9 61231.4 1055.99   8
   4   7  -8 12967.2 1005.52   6
  -4  -7   8 14163.3 530.062   8
  -4  -7   8 13988.6 487.668   1
  -4  -7   7 95158.1 1175.65   8
  -4  -7   7 93888.4 1152.66   1
  -4  -7   6 2152.62 287.376   1
   4   7  -6 2077.04 672.691   6
  -4  -7   6 2689.61 318.880   8
   4   7  -6 2174.11 331.549   3
  -4  -7   5 140418. 1421.99   1
   4   7  -5 142843. 1530.43   9
  -4  -7   5 138024. 1413.36   8
  -4  -7   4 1567.57 313.373   1
   4   7  -4 1749.46 664.146   6
   4   7  -4 1698.16 290.120   9
  -4  -7   4 1887.07 266.509   8
   4   7  -4 2442.85 365.982   3
  -4  -7   3 117314. 1368.37   1
   4   7  -3 123270. 1405.03   9
  -4  -7   3 116721. 1168.01   8
   4   7  -3 125247. 1362.78   3
   4   7  -3 112068. 2216.84   6
   4   7  -2 48782.0 900.073   9
  -4  -7   2 46261.0 943.169   1
   4   7  -2 47704.9 808.608   3
   4   7  -1 87499.8 1193.86   9
  -4  -7   1 84785.8 1257.13   1
   4   7   0 29650.0 722.420   9
  -4  -7   0 28289.4 784.633   1
   4   7   0 28284.1 625.544   3
   4   7   0 30405.1 1334.22   6
   4   7   1 23549.2 646.268   9
   4   7   1 23477.1 589.327   3
   4   7   1 21200.7 1170.66   6
  -4  -7  -1 23305.2 773.325   1
  -4  -7  -2 46681.6 1090.95   1
   4   7   2 45484.2 893.449   9
   4   7   2 46703.4 794.588   3
   4   7   2 43960.0 1641.53   6
   4   7   3 2218.60 306.876   9
   4   7   3 2330.46 297.542   3
   4   7   4 41618.1 823.576   2
   4   7   4 38471.2 827.485   9
   4   7   4 41969.6 806.766   3
   4   7   4 38010.7 1710.21   6
   4   8 -10 380.209 406.022   3
   4   8 -10 21.4051 807.921   6
  -4  -8  10-50.4685 287.600   8
   4   8  -9 67045.0 1999.26   6
  -4  -8   9 68700.2 1123.51   8
   4   8  -8 1407.24 405.691   3
   4   8  -8 538.385 771.571   6
  -4  -8   8 826.156 289.663   8
   4   8  -7 77993.1 2070.12   6
  -4  -8   7 86052.0 1140.38   8
  -4  -8   6 17055.1 631.697   1
  -4  -8   6 16953.4 543.152   8
   4   8  -5 83032.1 2099.24   6
  -4  -8   5 94350.0 1337.96   1
  -4  -8   5 84563.5 1129.15   8
   4   8  -5 94896.3 1300.35   3
   4   8  -4 40125.7 1550.76   6
  -4  -8   4 42390.4 922.845   1
   4   8  -4 45799.6 919.361   9
  -4  -8   4 43710.4 842.116   8
  -4  -8   3 24056.9 771.294   1
   4   8  -3 24545.9 704.293   9
  -4  -8   3 22884.5 618.862   8
   4   8  -3 24635.7 702.572   3
  -4  -8   2 43845.3 1018.11   1
   4   8  -2 45990.6 920.996   9
  -4  -8   2 43277.0 742.075   8
   4   8  -2 46132.1 874.701   3
   4   8  -2 41240.2 1576.39   6
   4   8  -1 5740.65 434.142   9
   4   8  -1 5232.27 369.352   3
   4   8   0 41561.5 892.921   9
   4   8   0 45054.9 868.807   3
   4   8   1 475.640 283.081   3
   4   8   1-168.572 752.207   6
   4   8   1-5.84637 255.424   9
   4   8   2 33707.0 824.097   9
   4   8   2 33826.2 762.553   3
   4   9  -7 18737.7 1350.31   6
  -4  -9   7 24946.5 697.038   8
   4   9  -6 46540.6 1796.51   6
  -4  -9   6 53465.6 925.126   8
  -4  -9   5 9060.51 449.370   8
   4   9  -5 10976.5 589.603   3
   4   9  -4 41131.6 1701.35   6
  -4  -9   4 42404.3 797.433   8
   4   9  -3-11.4789 323.378   3
   4   9  -3 543.988 853.344   6
   4   9  -3 204.594 285.816   9
  -4  -9   3 30.5680 271.424   8
   4   9  -2 26638.7 1495.07   6
   4   9  -2 27384.8 788.525   9
  -5   8   5 37907.0 1077.52   7
  -5   8   5 37756.0 783.966   3
  -5   8   4 14310.2 721.802   7
  -5   8   4 14494.9 511.516   3
  -5   8   3 14102.3 716.822   7
  -5   8   3 14781.0 547.670   3
  -5   8   2 24825.4 1401.94   6
  -5   8   2 23585.1 832.383   7
  -5   8   2 23419.7 604.757   3
  -5   8   1 9435.67 531.940  11
  -5   8   1 9528.06 598.000   7
  -5   8   1 9064.12 472.358   3
  -5   8   0 44083.0 1699.03   6
  -5   8   0 45670.6 945.614  11
  -5   8   0 46391.5 1305.85   5
  -5   8   0 44924.0 1177.35   7
  -5   8  -1 130.212 289.972  11
  -5   8  -1 397.429 308.978   3
  -5   8  -1 987.400 803.607   6
  -5   8  -1 553.419 458.795   5
  -5   8  -1 768.947 436.315   7
  -5   8  -2 115162. 1332.66  11
  -5   8  -2 114718. 1899.79   5
  -5   8  -2 111994. 1859.45   7
  -5   8  -3 95.0535 263.485  11
  -5   8  -3 194.468 330.206   3
  -5   8  -3-346.266 828.978   6
  -5   8  -3 253.777 486.987   5
  -5   8  -3 443.058 437.875   7
  -5   8  -4 79806.7 1240.13   3
  -5   8  -4 64380.3 2160.04   6
  -5   8  -4 74399.7 1003.27  11
  -5   8  -4 71906.6 1160.40   1
  -5   8  -4 68117.8 1662.79   5
  -5   8  -4 75706.6 1628.58   7
  -5   8  -5 2274.77 410.770   3
  -5   8  -5 2165.28 294.744  11
  -5   8  -5 1319.71 935.978   6
  -5   8  -5 3014.22 602.038   7
  -5   8  -6 70881.6 1216.02   3
  -5   8  -6 61199.2 2194.55   6
  -5   8  -6 68011.5 959.725  11
  -5   8  -6 64488.3 1690.62   7
  -5   7   7 22170.9 532.094   2
  -5   7   7 26615.7 925.475   7
  -5   7   6 31406.2 989.101   7
  -5   7   6 28166.5 617.615   3
  -5   7   5 14420.6 701.894   7
  -5   7   5 13512.9 454.367   3
  -5   7   4 23661.5 829.002   7
  -5   7   4 24927.5 589.609   3
  -5   7   3 529.182 241.840   3
  -5   7   3 756.556 692.577   6
  -5   7   3 822.115 375.809   7
  -5   7   2 72617.6 1309.08   7
  -5   7   2 72074.8 909.002   3
  -5   7   1 1912.97 344.110  11
  -5   7   1 1483.34 719.733   6
  -5   7   1 2294.92 391.845   7
  -5   7   1 2107.51 285.806   3
  -5   7   0 116405. 1385.34  11
  -5   7   0 114829. 1862.81   5
  -5   7   0 118041. 1751.47   7
  -5   7  -1 13803.3 1043.51   6
  -5   7  -1 14186.7 533.757  11
  -5   7  -1 14216.2 756.182   5
  -5   7  -1 15706.1 790.372   7
  -5   7  -1 15698.2 538.591   3
  -5   7  -2 169669. 1549.41  11
  -5   7  -2 169560. 2198.31   7
  -5   7  -3 23070.0 655.956   3
  -5   7  -3 21387.5 573.950  11
  -5   7  -3 21769.8 648.908   1
  -5   7  -3 21005.3 938.308   5
  -5   7  -3 20045.6 861.325   7
  -5   7  -4 76671.7 1133.04   3
  -5   7  -4 62438.3 1985.02   6
  -5   7  -4 72201.8 990.970  11
  -5   7  -4 68684.8 1057.17   1
  -5   7  -4 67650.9 1531.91   7
  -5   7  -5 35992.8 1629.68   6
  -5   7  -5 37577.4 692.144  11
  -5   7  -5 39375.8 779.071   1
  -5   7  -5 35818.4 1204.64   7
  -5   7  -6 11528.8 547.278   3
  -5   7  -6 7256.70 1021.94   6
  -5   7  -6 11356.3 441.321  11
   5  -7   6 7728.92 371.439   9
  -5   7  -6 11678.1 862.482   7
  -5   7  -7 50488.6 836.350  11
  -5   7  -7 49633.0 1028.10   3
  -5   7  -8 436.750 278.887  11
  -5   7  -8 346.093 833.153   6
   5  -7   8 486.485 248.594   9
   5  -7   8-358.950 637.091   4
  -5   7  -8 540.197 354.008   3
  -5   6   9 6803.30 596.308   7
  -5   6   9 7716.19 364.711   2
  -5   6   8 41777.1 1107.49   7
  -5   6   8 35663.9 627.231   2
  -5   6   7 1864.88 228.043   2
  -5   6   7 2264.24 424.990   7
  -5   6   6 40762.6 630.212   2
  -5   6   6 43920.4 1047.38   7
  -5   6   5 769.943 176.295   2
  -5   6   5 939.823 219.752   3
  -5   6   5 370.128 569.801   6
  -5   6   5 1064.43 376.357   7
  -5   6   4 78172.1 1732.17   6
  -5   6   4 80943.4 1347.48   7
  -5   6   3 21921.6 736.424   7
  -5   6   3 22592.4 495.052   3
  -5   6   2 141214. 1726.61   7
  -5   6   2 153653. 1250.15   3
  -5   6   1 71848.5 1711.91   6
  -5   6   1 77027.3 1124.57  11
  -5   6   1 74138.6 1433.10   5
  -5   6   1 76642.1 1287.32   7
  -5   6   1 79971.3 916.898   3
  -5   6   0 121224. 2175.64   6
  -5   6   0 146147. 1505.12  11
  -5   6   0 129928. 1878.28   5
  -5   6   0 139923. 1827.80   7
  -5   6   0 149202. 1357.45   3
  -5   6  -1 90268.8 1121.73  11
  -5   6  -1 90831.4 1565.94   7
  -5   6  -1 92883.8 1057.21   3
  -5   6  -2 25099.9 579.456   3
  -5   6  -2 20163.0 1151.50   6
  -5   6  -2 25591.8 625.125  11
  -5   6  -2 22825.6 642.154   1
   5  -6   2 22307.3 421.233   9
  -5   6  -2 23721.0 903.141   5
  -5   6  -2 26725.7 977.469   7
  -5   6  -3 100100. 1160.44   3
  -5   6  -3 83601.2 2040.28   6
  -5   6  -3 94466.8 1089.04  11
   5  -6   3 84957.8 841.534   9
  -5   6  -3 92111.1 1192.64   1
  -5   6  -3 96325.3 1647.58   7
  -5   6  -4 1857.10 311.184   3
   5  -6   4 1430.94 215.774   9
  -5   6  -4 2057.39 279.355   1
  -5   6  -4 1691.88 736.452   6
  -5   6  -4 2397.87 286.810  11
  -5   6  -4 1672.33 498.304   7
  -5   6  -5 64365.1 994.953   3
  -5   6  -5 56675.5 1791.19   6
  -5   6  -5 69107.7 921.458  11
   5  -6   5 57773.5 814.840   9
  -5   6  -5 67075.7 933.614   1
  -5   6  -5 70630.5 1569.68   7
  -5   6  -6 5930.39 403.250   3
  -5   6  -6 6087.87 920.183   6
  -5   6  -6 6089.33 356.734  11
   5  -6   6 4834.01 316.995   9
  -5   6  -6 7460.11 387.952   1
  -5   6  -6 6073.34 802.467   7
  -5   6  -7 34278.4 811.629   3
  -5   6  -7 28662.4 1440.22   6
  -5   6  -7 37471.3 716.066  11
   5  -6   7 27655.6 636.295   9
   5  -6   7 30869.6 1309.87   4
  -5   6  -8 11617.2 579.655   3
  -5   6  -8 12093.5 470.260  11
   5  -6   8 8027.60 414.771   9
  -5   6  -8 7476.78 1115.26   6
   5  -6   8 9631.21 859.408   4
  -5   6  -9 35449.0 1779.19   6
  -5   6  -9 46371.8 1092.66   3
  -5   6  -9 41325.5 801.006  11
   5  -6   9 30330.9 745.683   9
   5  -6   9 33494.2 1344.00   4
  -5   5  10 49490.7 1240.68   7
  -5   5  10 45167.0 753.310   2
  -5   5   9 504.499 194.857   2
  -5   5   9 498.340 402.799   7
  -5   5   8 48808.7 1145.32   7
  -5   5   8 47806.7 686.446   2
  -5   5   7 3892.46 431.237   7
  -5   5   7 4647.00 250.763   2
  -5   5   6 46137.8 1036.65   7
  -5   5   6 42682.9 580.846   2
  -5   5   5 57035.0 630.083   2
  -5   5   5 52316.6 1247.17   6
  -5   5   4 93928.9 768.245   2
  -5   5   4 94530.2 853.514   3
  -5   5   3 147332. 2021.34   6
  -5   5   3 156031. 955.935   2
  -5   5   3 148098. 1906.75   5
  -5   5   3 160091. 1746.60   7
  -5   5   2 34900.2 1087.96   6
  -5   5   2 36880.9 998.114   5
  -5   5   2 42992.1 975.385   7
  -5   5   2 43994.4 632.720   3
  -5   5   1 165961. 2281.25   6
  -5   5   1 187089. 1704.95  11
   5  -5  -1 150274. 732.519   9
  -5   5   1 167450. 2000.25   5
  -5   5   1 168910. 1821.08   7
  -5   5   1 178781. 1228.88   3
  -5   5   0 23034.0 987.663   6
   5  -5   0 25794.2 370.290   9
  -5   5   0 24014.3 826.492   5
  -5   5   0 23777.0 585.211  11
  -5   5   0 26714.3 813.881   7
  -5   5   0 26250.0 528.799   3
  -5   5  -1 118744. 2134.42   6
  -5   5  -1 113902. 1299.83   1
   5  -5   1 122914. 892.466   9
  -5   5  -1 118500. 1800.17   5
  -5   5  -1 117638. 1210.77  11
  -5   5  -1 120384. 1721.26   7
  -5   5  -2 1734.13 237.416   3
  -5   5  -2 1318.55 246.617  11
  -5   5  -2 1625.71 268.753   1
   5  -5   2 1270.17 172.219   9
  -5   5  -2 1139.51 590.849   6
  -5   5  -2 1834.06 417.121   7
  -5   5  -3 54371.3 808.651   3
  -5   5  -3 50806.4 1507.11   6
   5  -5   3 51727.7 670.272   9
  -5   5  -3 53938.1 837.501   1
  -5   5  -3 58011.3 842.807  11
  -5   5  -3 60193.1 1306.96   7
  -5   5  -4 18805.1 512.402   3
  -5   5  -4 18779.7 1066.38   6
  -5   5  -4 19494.3 501.300  11
   5  -5   4 19487.5 474.736   9
   5  -5   4 19158.9 373.727   2
  -5   5  -4 20163.7 528.717   1
  -5   5  -4 20407.3 872.954   7
  -5   5  -5 37247.4 730.724   3
  -5   5  -5 39194.3 683.668  11
   5  -5   5 36351.4 662.603   9
   5  -5   5 37416.7 544.979   2
  -5   5  -5 38136.6 681.202   1
  -5   5  -5 38885.5 1276.86   7
  -5   5  -6 33954.8 744.637   3
  -5   5  -6 27791.1 1363.65   6
  -5   5  -6 32799.3 659.137  11
   5  -5   6 27100.0 606.406   9
   5  -5   6 28105.8 1148.63   4
  -5   5  -6 30992.2 568.200   1
  -5   5  -6 27288.7 1228.00   7
  -5   5  -7 30770.0 1427.80   6
  -5   5  -7 34985.8 826.689   3
  -5   5  -7 34931.5 709.326  11
   5  -5   7 31160.0 1230.20   4
  -5   5  -8 61821.9 2102.12   6
  -5   5  -8 57517.5 884.625  11
  -5   5  -8 62423.1 1092.30   3
   5  -5   8 45797.7 850.524   9
   5  -5   8 50707.8 1482.38   4
  -5   5  -9 38390.2 1689.52   6
  -5   5  -9 41409.1 792.602  11
   5  -5   9 31894.6 757.192   9
   5  -5   9 37945.5 1403.40   4
  -5   5  -9 46442.6 1028.81   3
  -5   4  11 4021.33 517.586   7
  -5   4  11 4355.99 313.493   2
  -5   4  10 45503.7 1174.32   7
  -5   4  10 43847.1 732.649   2
  -5   4   9 22095.8 788.436   7
  -5   4   9 20599.9 474.259   2
  -5   4   8 41110.8 1012.93   7
  -5   4   8 38320.6 607.908   2
  -5   4   7 96476.1 1471.41   7
  -5   4   7 84359.6 809.749   2
  -5   4   6 41512.2 886.371   6
  -5   4   6 41456.2 529.111   2
  -5   4   5 211548. 1914.84   6
  -5   4   5 211829. 1074.39   2
  -5   4   4 34922.4 922.605   5
  -5   4   4 30426.9 824.770   6
   5  -4  -4 35757.6 514.737   2
  -5   4   4 37439.5 875.509   7
   5  -4  -4 29584.4 918.706   6
  -5   4   4 33934.5 416.347   2
  -5   4   3 251661. 1024.70   2
  -5   4   3 249066. 2267.58   6
   5  -4  -3 261863. 1206.51   2
  -5   4   3 249382. 2337.36   5
  -5   4   3 263505. 992.175   8
  -5   4   3 253086. 2085.11   7
  -5   4   3 273753. 1295.48   3
  -5   4   2 1242.69 282.997  11
   5  -4  -2 1309.66 117.107   9
   5  -4  -2 1278.99 122.409   2
  -5   4   2 1146.98 425.010   6
  -5   4   2 1096.66 336.116   5
  -5   4   2 1012.58 117.754   8
  -5   4   2 1343.56 314.057   7
  -5   4   2 1316.18 173.674   3
  -5   4   1 160847. 2031.49   6
  -5   4   1 164641. 1506.15   1
   5  -4  -1 174737. 972.495   9
  -5   4   1 166385. 1475.75  11
   5  -4  -1 176111. 756.601   2
  -5   4   1 160192. 879.586   8
  -5   4   1 168475. 1795.46   7
  -5   4   1 163015. 1036.23   3
  -5   4   0 22681.3 592.762   1
   5  -4   0 20733.9 376.086   9
  -5   4   0 18428.4 828.995   6
  -5   4   0 20993.9 538.187  11
  -5   4   0 19743.2 767.749   5
   5  -4   0 20887.3 222.202   2
  -5   4   0 20041.6 711.781   7
  -5   4   0 20451.7 403.400   3
  -5   4  -1 67881.3 719.091   3
  -5   4  -1 71019.5 1493.82   6
  -5   4  -1 75594.0 957.874  11
  -5   4  -1 73320.6 969.060   1
   5  -4   1 80994.9 789.326   9
   5  -4   1 71897.4 372.278   2
  -5   4  -1 77889.4 1354.90   7
  -5   4  -2 45742.9 629.605   3
  -5   4  -2 46812.2 741.964  11
   5  -4   2 48021.2 626.420   9
   5  -4   2 44423.6 372.842   2
  -5   4  -2 47623.5 762.062   1
  -5   4  -2 46700.3 1315.75   6
   5  -4   2 43974.5 541.413   3
  -5   4  -2 49163.4 1132.54   7
   5  -4   2 46737.2 321.096   2
   5  -4   3 23877.6 278.333   2
  -5   4  -3 26029.9 510.358   3
  -5   4  -3 27350.5 576.692  11
   5  -4   3 25683.3 499.629   9
   5  -4   3 25507.5 318.463   2
  -5   4  -3 24397.7 535.539   1
  -5   4  -3 26247.9 1061.79   6
  -5   4  -3 27758.9 916.336   7
  -5   4  -4 85863.8 926.364   3
  -5   4  -4 94433.8 1966.25   6
  -5   4  -4 88180.8 1013.08  11
   5  -4   4 82399.9 921.995   9
   5  -4   4 90372.8 668.559   2
   5  -4   4 82460.7 1600.53   4
  -5   4  -4 86367.7 949.921   1
  -5   4  -4 87271.7 1590.21   7
  -5   4  -5 27764.5 581.687  11
   5  -4   5 26948.6 574.311   9
  -5   4  -5 28975.7 1227.74   6
  -5   4  -5 31276.3 641.758   3
   5  -4   5 30431.7 442.630   2
   5  -4   5 26667.7 1025.68   4
  -5   4  -5 28609.5 534.009   1
  -5   4  -5 31011.7 1203.34   7
  -5   4  -6 87042.6 2131.05   6
  -5   4  -6 74277.3 932.968  11
  -5   4  -6 86165.2 1101.27   3
   5  -4   6 70916.6 956.383   9
   5  -4   6 81382.3 770.960   2
   5  -4   6 73057.9 1566.38   4
  -5   4  -6 76917.3 838.196   1
  -5   4  -7 24591.1 462.576   1
  -5   4  -7 22934.9 1223.64   6
  -5   4  -7 24697.2 596.474  11
   5  -4   7 22083.2 589.905   9
   5  -4   7 26524.7 503.588   2
   5  -4   7 22693.2 996.844   4
  -5   4  -8 94874.2 1150.78  11
  -5   4  -8 94860.0 2181.20   6
  -5   4  -9 2638.96 317.686  11
   5  -4   9 1696.04 329.523   9
  -5   4  -9 2738.67 811.934   6
   5  -4   9 2566.14 576.241   4
  -5   4 -10 80404.0 1155.61  11
   5  -4  10 79779.0 1820.87   4
  -5   3  12 29974.7 778.673   1
  -5   3  12 28520.5 996.587   7
  -5   3  12 30442.5 701.240   2
  -5   3  11 46486.4 1061.90   5
  -5   3  11 46625.4 706.871  10
  -5   3  11 46739.5 789.120   2
  -5   3  10 28841.8 527.912  10
  -5   3  10 29960.1 879.204   5
  -5   3  10 29722.1 596.797   2
  -5   3  10 31010.4 924.011   7
  -5   3   9 127698. 983.226  10
  -5   3   9 129549. 1689.85   5
  -5   3   9 124421. 1104.99   2
  -5   3   9 133134. 1763.12   7
  -5   3   8 3379.93 409.874   5
  -5   3   8 3482.07 211.530   8
  -5   3   8 3885.99 231.139   2
  -5   3   8 3370.67 393.308   7
  -5   3   8 3407.41 191.187  10
  -5   3   7 242420. 1096.70  10
  -5   3   7 238791. 2226.59   5
  -5   3   7 232067. 1311.01   8
  -5   3   7 231216. 1279.23   2
  -5   3   7 245909. 2167.53   7
  -5   3   6 1892.03 189.204   6
  -5   3   6 2159.82 157.577   9
  -5   3   6 2187.17 350.556   5
  -5   3   6 2327.96 190.998   8
  -5   3   6 2347.96 352.375   7
  -5   3   6 2260.07 158.517   2
  -5   3   5 317442. 1734.78   6
  -5   3   5 309657. 1202.33   9
  -5   3   5 344044. 1634.98   8
  -5   3   5 330415. 2493.15   5
  -5   3   5 341491. 2381.34   7
  -5   3   5 322362. 1242.38   2
  -5   3   5 333281. 1448.68   6
  -5   3   4 65429.5 926.295   6
  -5   3   4 58894.7 482.832   9
  -5   3   4 67010.0 1183.62   5
  -5   3   4 68367.9 1100.37   7
  -5   3   4 61513.1 482.941   2
   5  -3  -4 62114.2 1007.06   6
  -5   3   3 117845. 1325.09   6
  -5   3   3 118861. 1250.64   1
  -5   3   3 115960. 680.619   9
   5  -3  -3 127546. 924.099   9
  -5   3   3 118838. 1583.06   5
  -5   3   3 119673. 712.310   3
  -5   3   3 114169. 1353.27   7
  -5   3   3 120626. 599.942   2
   5  -3  -3 108637. 1438.15   6
  -5   3   2 70642.6 985.796  11
  -5   3   2 70481.9 956.247   1
  -5   3   2 67377.7 532.701   9
   5  -3  -2 72785.6 687.623   9
  -5   3   2 67553.0 1262.38   5
  -5   3   2 69543.7 1068.83   7
  -5   3   2 71171.0 537.853   3
  -5   3   2 65211.1 1086.80   6
   5  -3  -1 49646.2 1134.16   6
  -5   3   1 50209.1 762.245  11
  -5   3   1 55890.1 821.685   1
  -5   3   1 52037.7 1058.97   6
   5  -3  -1 54374.1 588.482   9
  -5   3   1 54441.4 1015.79   7
  -5   3   1 50451.7 473.522   3
  -5   3   0 58155.2 521.357   3
  -5   3   0 58274.0 1182.08   6
  -5   3   0 58451.2 825.313   1
  -5   3   0 56574.9 823.180  11
  -5   3  -1 7226.22 217.956   3
  -5   3  -1 7165.80 323.073  11
  -5   3  -1 6389.62 574.466   6
   5  -3   1 7232.48 277.461   9
  -5   3  -1 6995.71 312.819   1
   5  -3   1 6373.22 466.889   4
  -5   3  -1 7504.25 510.775   7
  -5   3  -2 137389. 902.502   3
  -5   3  -2 138065. 1989.67   6
   5  -3   2 142142. 1095.48   9
  -5   3  -2 138509. 1192.43   1
   5  -3   2 137144. 1774.55   4
  -5   3  -2 142475. 1891.27   7
  -5   3  -3 3201.15 261.656  11
  -5   3  -3 4115.20 576.856   6
  -5   3  -3 3708.12 229.315   3
   5  -3   3 3103.05 231.193   9
   5  -3   3 3291.29 465.910   4
   5  -3   3 3019.38 103.264   2
  -5   3  -3 3442.91 247.054   1
   5  -3   3 3051.68 188.643   3
  -5   3  -3 3342.56 452.727   7
  -5   3  -4 172436. 2409.01   6
   5  -3   4 152312. 1221.07   9
  -5   3  -4 159684. 1325.95  11
  -5   3  -4 175437. 1247.07   3
   5  -3   4 168001. 792.523   2
   5  -3   4 158746. 1996.47   4
  -5   3  -4 165846. 1210.12   1
  -5   3  -4 158725. 2233.88   7
  -5   3  -5 4212.68 638.798   6
  -5   3  -5 4933.53 308.610  11
  -5   3  -5 5835.20 327.147   3
   5  -3   5 4567.21 294.309   9
   5  -3   5 4704.31 184.630   2
   5  -3   5 5367.57 555.603   4
  -5   3  -5 4442.63 243.961   1
  -5   3  -6 208256. 1257.09   1
  -5   3  -6 227540. 2933.04   6
  -5   3  -6 225679. 1709.78  11
   5  -3   6 202530. 1578.57   9
   5  -3   6 234290. 1238.20   2
   5  -3   6 229210. 2567.99   4
  -5   3  -7 1663.59 279.217  11
  -5   3  -7 1621.61 186.285   1
   5  -3   7 1288.95 252.251   9
   5  -3   7 1839.67 189.544   2
   5  -3   7 1652.53 462.523   4
  -5   3  -8 83357.9 2025.54   6
   5  -3   8 75604.8 1098.36   9
   5  -3   8 88131.5 885.067   2
   5  -3   8 84288.9 1664.75   4
  -5   3  -8 78967.2 1076.84  11
  -5   3  -9 30681.9 1401.43   6
  -5   3  -9 29636.6 717.977  11
   5  -3   9 29641.8 763.941   9
  -5   3 -10 36130.3 844.509  11
  -5   3 -10 38456.0 1643.41   6
   5  -3  10 38967.2 1288.60   4
  -5   2  13 46663.8 887.851   2
  -5   2  13 47343.5 1283.23   7
  -5   2  12 2612.05 311.670   1
  -5   2  12 2493.14 296.514   2
  -5   2  12 3137.20 499.153   7
  -5   2  11 133258. 1414.32   1
  -5   2  11 127463. 1617.60   5
  -5   2  11 130421. 1302.07   2
  -5   2  11 129455. 1795.74   7
  -5   2  10 7956.08 490.780   5
  -5   2  10 7807.36 410.303   1
  -5   2  10 7007.27 328.589   8
  -5   2  10 7520.43 343.956   2
  -5   2  10 7944.23 544.549   7
  -5   2   9 216807. 1720.27   1
  -5   2   9 218639. 2028.64   5
  -5   2   9 209154. 1426.84   2
  -5   2   9 210586. 2077.19   7
  -5   2   8 46039.9 961.868   5
  -5   2   8 44382.2 623.526   2
  -5   2   8 45462.7 793.529   1
  -5   2   8 45163.8 953.514   7
  -5   2   7 127629. 1277.98   1
  -5   2   7 127352. 1554.01   5
  -5   2   7 128534. 1504.55   7
  -5   2   6 74746.0 800.783   3
  -5   2   6 80721.4 1018.28   1
  -5   2   6 72009.0 750.238   9
  -5   2   6 78707.3 872.316   8
  -5   2   6 77453.0 1237.76   5
  -5   2   6 76810.7 686.778   2
  -5   2   6 83351.7 1189.80   7
  -5   2   5 80243.8 727.265   3
  -5   2   5 84128.2 1012.99   1
  -5   2   5 76464.3 690.960   9
  -5   2   5 83989.0 1307.01   5
   5  -2  -5 71437.6 684.731   4
  -5   2   5 79296.5 612.791   2
  -5   2   5 84975.1 1154.25   7
  -5   2   4 110544. 878.158   6
  -5   2   4 117560. 1153.73   1
  -5   2   4 112020. 807.072   9
   5  -2  -4 114538. 910.730   9
   5  -2  -4 114615. 1025.11   4
  -5   2   4 113678. 630.865   2
  -5   2   4 118697. 1325.20   7
   5  -2  -4 117833. 1068.57   6
   5  -2  -3 9445.66 465.354   6
  -5   2   3 10981.0 376.072   1
  -5   2   3 9474.21 364.658   6
  -5   2   3 10680.9 223.764   3
  -5   2   3 10398.3 258.237   9
  -5   2   3 9978.97 394.442  11
   5  -2  -3 10742.4 306.357   9
   5  -2  -3 9733.24 381.341   4
  -5   2   3 10448.4 176.594   3
  -5   2   3 11517.4 466.357   7
  -5   2   3 9743.98 152.250   2
   5  -2  -2 67843.9 1105.84   6
  -5   2   2 64344.2 893.685  11
  -5   2   2 69565.3 982.935   6
   5  -2  -2 67937.8 699.931   9
  -5   2   2 70584.4 863.630   1
   5  -2  -2 66663.9 945.522   4
  -5   2   2 66033.8 999.475   7
  -5   2   2 64006.0 579.252   9
  -5   2   2 64109.0 379.311   3
   5  -2  -1 4826.60 453.457   6
  -5   2   1 4048.11 264.577  11
  -5   2   1 4535.30 387.841   6
  -5   2   1 4181.12 179.887   9
   5  -2  -1 5498.23 237.754   9
  -5   2   1 5029.93 273.842   1
   5  -2  -1 4653.60 329.089   4
  -5   2   1 4685.85 376.260   7
  -5   2   0 134197. 1157.39  11
  -5   2   0 140487. 1617.72   6
  -5   2   0 139846. 541.907   3
   5  -2   0 123009. 411.150  10
   5  -2   0 147983. 1063.00   9
  -5   2   0 141550. 1174.21   1
   5  -2   0 133254. 1452.25   4
  -5   2   0 137107. 1623.11   7
  -5   2  -1 1216.40 218.163  11
   5  -2   1 1288.61 175.797   9
  -5   2  -1 1223.10 363.516   6
   5  -2   1 1503.10 313.516   4
  -5   2  -1 1152.14 182.209   1
   5  -2   1 1251.12 87.7095   3
  -5   2  -1 1865.08 342.778   7
  -5   2  -2 265440. 1620.62  11
  -5   2  -2 286660. 2583.44   6
   5  -2   2 305860. 1663.10   9
   5  -2   2 308216. 2481.71   4
  -5   2  -2 287216. 1548.97   1
   5  -2   2 294391. 1116.18   3
  -5   2  -2 263471. 2465.79   7
  -5   2  -3 5677.68 303.260  11
  -5   2  -3 7050.06 596.176   6
   5  -2   3 5511.82 275.765   9
   5  -2   3 6042.00 445.905   4
   5  -2   3 6385.82 134.474   2
  -5   2  -3 6048.91 258.181   1
  -5   2  -3 5231.57 520.319   7
   5  -2   3 6884.53 246.279   3
  -5   2  -4 138898. 1224.64  11
  -5   2  -4 165098. 2253.07   6
   5  -2   4 158137. 1297.09   9
   5  -2   4 153499. 1813.73   4
   5  -2   4 173320. 803.137   2
  -5   2  -4 157685. 1112.46   1
   5  -2   4 155201. 1039.59   3
  -5   2  -5 36064.1 563.162   1
  -5   2  -5 28622.7 621.260  11
   5  -2   5 30797.5 610.314   9
   5  -2   5 35442.1 965.457   4
  -5   2  -5 36237.0 1173.27   6
   5  -2   5 36506.4 439.828   2
  -5   2  -6 125053. 986.283   1
  -5   2  -6 132598. 2179.21   6
   5  -2   6 123439. 1257.22   9
   5  -2   6 134581. 1845.74   4
   5  -2   6 132026. 901.023   2
  -5   2  -7 76231.7 788.248   1
  -5   2  -7 79392.0 1772.93   6
   5  -2   7 79216.1 1464.25   4
  -5   2  -8 12260.7 483.429  11
  -5   2  -8 17406.1 1052.62   6
   5  -2   8 13323.4 522.015   9
   5  -2   8 16029.5 747.603   4
   5  -2   8 15220.0 387.574   2
  -5   2  -8 13651.1 363.172   1
  -5   2  -9 60459.1 1806.56   6
   5  -2   9 64294.5 1424.06   4
   5  -2   9 61180.7 782.960   2
  -5   2 -10 1098.28 346.792  11
  -5   2 -10 1190.45 770.018   6
   5  -2  10 1053.61 300.803   9
   5  -2  10 1535.71 488.502   4
  -5   1  13 106054. 1344.75   2
  -5   1  13 104196. 1815.87   7
  -5   1  12 18018.4 510.905   1
  -5   1  12 18348.9 551.287   2
  -5   1  12 18908.1 783.791   7
  -5   1  11 107565. 1134.28   1
  -5   1  11 104098. 1156.04   2
  -5   1  11 106941. 1609.83   7
  -5   1  10 75034.0 937.055   1
  -5   1  10 74357.9 938.252   2
  -5   1  10 74310.9 1259.12   7
  -5   1   9 62730.2 850.322   1
  -5   1   9 65246.8 827.312   2
  -5   1   9 63561.3 1132.36   7
  -5   1   8 136657. 1222.06   1
  -5   1   8 140514. 1581.15   7
  -5   1   7 48394.8 722.436   1
  -5   1   7 46845.3 614.540   2
  -5   1   7 46096.9 734.726   8
  -5   1   7 48862.9 898.955   7
  -5   1   6 134118. 939.656   3
  -5   1   6 136205. 1177.08   1
  -5   1   6 135082. 957.813   2
  -5   1   6 137254. 1416.49   7
  -5   1   5 6045.87 204.237   3
   5  -1  -5 6140.75 269.251   9
  -5   1   5 5194.06 227.455   9
  -5   1   5 5877.08 287.511   1
  -5   1   5 5891.84 203.947   2
  -5   1   5 6297.17 359.324   7
   5  -1  -4 115652. 919.774   6
  -5   1   4 120316. 645.032   3
  -5   1   4 104676. 1086.45  11
  -5   1   4 100334. 644.013   6
  -5   1   4 116773. 908.635   9
   5  -1  -4 123320. 1045.34   9
  -5   1   4 118327. 1066.72   1
  -5   1   4 114614. 669.668   2
   5  -1  -4 112538. 757.762   4
  -5   1   4 115267. 1223.01   7
   5  -1  -3 2017.34 293.350   6
  -5   1   3 1583.01 226.244  11
  -5   1   3 1531.18 211.546   6
  -5   1   3 1497.84 142.322   9
   5  -1  -3 1891.73 176.022   9
  -5   1   3 1678.91 85.3444   2
  -5   1   3 1852.14 200.178   1
   5  -1  -3 1363.86 164.498   4
  -5   1   3 1543.16 224.423   7
  -5   1   3 1363.96 56.1684   3
   5  -1  -2 102271. 1175.88   6
  -5   1   2 87100.4 913.515  11
  -5   1   2 94504.4 1014.48   6
  -5   1   2 94192.0 780.754   9
   5  -1  -2 99277.9 886.993   9
  -5   1   2 79543.8 862.111   1
   5  -1  -2 92512.8 929.635   4
  -5   1   2 95079.1 1186.75   7
   5  -1  -1 26901.0 698.873   6
  -5   1   1 25292.6 495.723  11
  -5   1   1 26789.2 658.381   6
   5  -1  -1 26090.1 565.788   4
  -5   1   1 27557.3 503.541   1
  -5   1   1 25949.9 696.099   7
   5  -1   0 304431. 1575.44   9
   5  -1   0 282642. 2237.67   6
  -5   1   0 293665. 2194.44   6
  -5   1   0 277866. 1561.15  11
   5  -1   0 297001. 1942.32   4
  -5   1   0 300037. 1556.88   1
  -5   1   0 271626. 2199.02   7
  -5   1  -1 95557.6 942.719  11
  -5   1  -1 99256.0 1389.86   6
   5  -1   1 103329. 575.653  10
   5  -1   1 100945. 933.187   9
   5  -1   1 100700. 1213.69   4
  -5   1  -1 101917. 896.144   1
   5  -1   1 94653.1 451.930   3
  -5   1  -1 89711.3 1361.41   7
   5  -1   2 258342. 708.098   2
  -5   1  -2 224736. 1451.92  11
  -5   1  -2 237551. 2281.87   6
   5  -1   2 247722. 1516.30   9
   5  -1   2 258595. 2091.01   4
  -5   1  -2 241557. 1370.82   1
  -5   1  -2 217520. 2300.26   7
   5  -1   2 271492. 1033.42   3
  -5   1  -3 116753. 948.069   1
   5  -1   3 119704. 809.443   3
  -5   1  -3 102281. 994.096  11
  -5   1  -3 110831. 1673.50   6
   5  -1   3 109412. 1057.02   9
   5  -1   3 114680. 1409.80   4
   5  -1   3 119593. 593.656   2
   5  -1   4 99955.8 823.553   3
  -5   1  -4 94198.3 1027.25  11
   5  -1   4 97289.3 1029.33   9
  -5   1  -4 100329. 1674.66   6
   5  -1   4 97753.3 1338.74   4
   5  -1   4 106797. 667.514   2
  -5   1  -4 105691. 927.949   1
  -5   1  -5 162255. 2254.26   6
  -5   1  -5 157262. 1129.62   1
   5  -1   5 152272. 1350.86   9
   5  -1   5 155459. 1722.93   4
   5  -1   5 167071. 962.875   2
  -5   1  -6 10302.4 745.599   6
   5  -1   6 9393.91 413.371   9
  -5   1  -6 10046.2 333.466   1
   5  -1   6 9535.95 556.517   4
   5  -1   6 10288.2 285.095   2
  -5   1  -7 76022.7 1030.30  11
  -5   1  -7 104647. 1987.76   6
   5  -1   7 90355.5 1126.42   9
   5  -1   7 100837. 1511.00   4
  -5   1  -7 86912.9 858.089   1
   5  -1   7 98919.5 859.116   2
  -5   1  -8 5466.87 729.167   6
   5  -1   8 4519.13 365.752   9
   5  -1   8 5913.46 504.993   4
   5  -1   8 5593.69 265.467   2
  -5   1  -8 5026.05 277.852   1
  -5   1  -9 47045.0 1514.84   6
   5  -1   9 44671.8 904.312   9
   5  -1   9 47276.5 691.200   2
  -5   1 -10 9339.84 517.907  11
  -5   1 -10 11952.6 1043.81   6
   5  -1  10 8654.40 505.556   9
   5  -1  10 12181.3 693.084   4
   5  -1  10 11922.6 413.648   2
  -5   0  14 48664.1 897.375   8
  -5   0  14 53492.6 1310.95   7
  -5   0  13 55496.5 1003.28   2
  -5   0  13 50573.6 1204.26   7
  -5   0  12 127233. 1417.70   2
  -5   0  12 125572. 1776.53   7
  -5   0  11 30518.8 693.005   2
  -5   0  11 28975.1 560.310   1
  -5   0  11 28941.5 830.111   7
  -5   0  10 132424. 1293.43   2
  -5   0  10 129789. 1126.39   1
  -5   0   9 763.398 183.015   2
  -5   0   9 614.392 178.719   1
  -5   0   9 885.526 226.631   8
  -5   0   9 214.685 245.969   7
  -5   0   8 138496. 1185.67   2
  -5   0   8 137063. 1122.67   1
  -5   0   8 136546. 1435.33   7
  -5   0   7 1095.79 172.175   3
  -5   0   7 963.405 161.464   2
  -5   0   7 1194.37 184.630   1
  -5   0   7 1019.69 220.876   8
  -5   0   7 1206.61 237.684   7
  -5   0   6 85217.5 798.315   2
  -5   0   6 84369.6 928.165   8
  -5   0   6 84353.5 867.401   1
  -5   0   6 85702.4 1024.94   7
  -5   0   5 23355.2 523.394  11
  -5   0   5 24215.6 411.119   2
   5   0  -5 24525.5 519.274   9
  -5   0   5 23365.7 464.736   1
  -5   0   5 23812.5 572.600   7
   5   0  -4 150445. 1051.77   6
  -5   0   4 117324. 1014.24  11
  -5   0   4 132586. 820.414   2
  -5   0   4 139600. 763.362   6
   5   0  -4 138195. 1172.00   9
  -5   0   4 129705. 1024.07   1
   5   0  -4 130504. 1223.16   7
  -5   0   4 138853. 1300.22   7
  -5   0   4 129649. 680.867   3
   5   0  -3 71901.0 878.449   6
  -5   0   3 63225.2 684.381   6
   5   0  -3 68187.4 811.252   9
  -5   0   3 60808.2 689.584   1
   5   0  -3 63519.1 831.697   7
  -5   0   3 61050.9 893.946   7
  -5   0   3 64864.2 757.834  11
  -5   0   2 220267. 705.607   2
   5   0  -2 202906. 1612.57   6
  -5   0   2 196765. 1256.17  11
  -5   0   2 191294. 1390.94   6
   5   0  -2 202222. 1322.40   9
   5   0  -2 192354. 1157.13   4
   5   0  -2 196906. 1443.10   7
  -5   0   2 201733. 1248.27   1
  -5   0   2 174912. 1579.74   7
   5   0  -1 231656. 1894.68   6
  -5   0   1 239854. 1416.25  11
  -5   0   1 222159. 1687.84   6
   5   0  -1 225538. 1393.10   9
  -5   0   1 230705. 1780.75   4
   5   0  -1 220570. 1397.25   4
  -5   0   1 234432. 659.664   2
  -5   0   1 242082. 1365.55   1
  -5   0   1 207082. 1748.41   7
  -5   0   0 176891. 1203.77  11
  -5   0   0 167925. 1607.07   6
   5   0   0 174277. 1219.03   9
  -5   0   0 173201. 614.770   2
   5   0   0 171933. 1332.50   4
  -5   0   0 181223. 1761.66   7
  -5   0   0 177799. 1153.05   1
  -5   0  -1 404996. 1750.96   1
   5   0   1 404427. 1061.42   3
  -5   0  -1 372855. 1743.42  11
   5   0   1 394166. 1908.10   9
  -5   0  -1 363412. 2551.46   6
  -5   0  -1 394825. 1126.35   2
   5   0   1 376550. 2087.80   4
  -5   0  -1 407701. 3111.99   7
   5   0   2 11094.8 210.636   2
  -5   0  -2 10127.6 305.906   1
   5   0   2 10056.6 228.049   3
  -5   0  -2 9482.98 332.498  11
  -5   0  -2 10043.0 562.787   6
   5   0   2 8886.65 232.301  10
   5   0   2 9600.05 346.460   9
  -5   0  -2 9593.90 220.194   2
   5   0   2 9842.73 413.568   4
   5   0   3 194559. 1047.48   3
  -5   0  -3 195592. 1400.66  11
  -5   0  -3 201095. 1254.53   1
  -5   0  -3 192000. 2098.50   6
   5   0   3 199379. 1095.87  10
   5   0   3 194284. 1425.23   9
  -5   0  -3 194658. 1037.36   2
   5   0   3 201919. 1725.39   4
   5   0   3 209071. 906.261   2
   5   0   4 1139.98 165.735   3
  -5   0  -4 1166.21 232.731  11
   5   0   4 1197.41 229.088   9
  -5   0  -4 1260.65 172.196   1
  -5   0  -4 1036.52 147.918   2
  -5   0  -4 1620.49 443.522   6
   5   0   4 1083.27 280.796   4
   5   0   4 1070.26 120.436   2
  -5   0  -5 112493. 1190.95  11
  -5   0  -5 124553. 1933.03   6
   5   0   5 117602. 1211.59   9
  -5   0  -5 118071. 1000.09   1
   5   0   5 126788. 1513.79   4
   5   0   5 119578. 829.969   2
  -5   0  -6 26006.9 624.200  11
  -5   0  -6 30459.1 1078.69   6
   5   0   6 29092.4 645.962   9
   5   0   6 32086.3 827.431   4
  -5   0  -6 26884.4 497.687   1
   5   0   6 30755.3 478.745   2
  -5   0  -7 28061.6 695.930  11
  -5   0  -7 32449.8 1156.52   6
   5   0   7 31445.9 716.483   9
   5   0   7 33469.5 871.030   4
   5   0   7 33175.5 544.180   2
  -5   0  -7 27082.8 531.693   1
  -5   0  -8 28067.7 746.212  11
  -5   0  -8 27721.1 559.737   1
   5   0   8 32076.2 751.130   9
  -5   0  -8 29101.0 1183.78   6
   5   0   8 38021.8 948.912   4
   5   0   8 35948.2 602.545   2
  -5   0  -9 19553.5 661.982  11
  -5   0  -9 24074.1 1182.24   6
   5   0   9 21340.0 674.788   9
   5   0   9 25791.0 831.961   4
   5   0   9 22826.6 515.043   2
  -5   0 -10 14762.8 648.215  11
  -5   0 -10 18092.4 1151.91   6
   5   0  10 14697.2 617.945   9
   5   0  10 16907.1 487.643   2
  -5  -1  14 85887.6 1242.18   8
  -5  -1  14 83116.6 1521.00   7
  -5  -1  13 980.195 313.766   2
  -5  -1  13 969.598 293.815   8
  -5  -1  13 1032.12 372.427   7
  -5  -1  12 79954.3 1158.89   8
  -5  -1  12 78902.1 1351.05   7
  -5  -1  11 2375.58 294.135   2
  -5  -1  11 2555.20 318.775   8
  -5  -1  11 2284.88 346.055   7
  -5  -1  11 2419.56 193.491   1
  -5  -1  10 79252.6 1157.61   7
  -5  -1  10 79111.6 780.729   1
  -5  -1   9 6081.35 323.172   2
  -5  -1   9 5210.13 332.873   8
  -5  -1   9 5728.43 363.529   7
  -5  -1   9 5560.77 246.798   1
  -5  -1   8 89723.7 1114.02   8
  -5  -1   8 88987.6 821.761   1
  -5  -1   7 19271.2 467.498  11
   5   1  -7 18468.4 406.563   3
  -5  -1   7 19392.0 458.837   2
  -5  -1   7 20087.0 546.273   8
  -5  -1   7 20854.8 519.395   7
  -5  -1   7 18666.4 393.448   1
  -5  -1   6 69623.0 790.681  11
   5   1  -6 62584.1 547.739   6
   5   1  -6 69542.9 697.734   3
   5   1  -6 70859.4 937.128   9
  -5  -1   6 75867.2 924.264   7
  -5  -1   6 67681.6 708.079   1
  -5  -1   6 69371.0 693.668   3
  -5  -1   5 126106. 1032.31  11
   5   1  -5 125418. 950.369   6
   5   1  -5 121645. 1182.06   9
  -5  -1   5 127768. 956.815   4
  -5  -1   5 114026. 1095.17   7
  -5  -1   5 116617. 927.640   1
   5   1  -5 117108. 784.724   3
  -5  -1   5 116956. 829.450   3
   5   1  -5 128041. 1130.88   6
   5   1  -4 57258.3 486.646   3
   5   1  -4 60472.8 767.870   6
   5   1  -4 57871.0 807.202   9
   5   1  -4 57150.2 709.484   7
  -5  -1   4 59441.9 493.548   3
  -5  -1   4 57090.4 657.948   1
  -5  -1   4 57204.4 654.997  11
  -5  -1   3 434319. 1728.16  11
   5   1  -3 428224. 2219.12   6
  -5  -1   3 409400. 1811.27   6
   5   1  -3 425639. 2103.87   9
  -5  -1   3 440732. 2092.82   4
   5   1  -3 444598. 1930.10   7
  -5  -1   3 406866. 2164.73   7
  -5  -1   3 418619. 1717.19   1
   5   1  -2 25719.6 253.568   3
  -5  -1   2 29035.2 347.440   2
  -5  -1   2 24879.8 428.829  11
   5   1  -2 23842.0 610.926   6
  -5  -1   2 25658.3 322.373  10
  -5  -1   2 23527.9 536.428   6
   5   1  -2 24300.5 504.771   9
  -5  -1   2 22975.2 546.943   4
   5   1  -2 28470.5 558.042   7
  -5  -1   2 24539.5 607.847   7
  -5  -1   2 23841.4 431.071   1
  -5  -1   1 445889. 1850.68   1
  -5  -1   1 443123. 1768.86  11
   5   1  -1 397246. 2520.29   6
  -5  -1   1 390407. 2240.72   6
   5   1  -1 432542. 2060.17   9
   5   1  -1 415390. 2075.64   7
  -5  -1   1 438395. 2501.06   7
   5   1  -1 384530. 1080.52   3
  -5  -1   1 436265. 1222.75   2
  -5  -1   0 1355.24 179.877   1
  -5  -1   0 1252.91 188.042  11
   5   1   0 1139.43 191.337   9
  -5  -1   0 962.817 323.121   6
  -5  -1   0 1131.79 105.161   2
   5   1   0 1141.08 104.821   3
  -5  -1  -1 222397. 1317.70   1
   5   1   1 225172. 1508.84   9
  -5  -1  -1 224147. 986.604   2
   5   1   2 18940.4 313.785   2
  -5  -1  -2 16443.9 418.229  11
   5   1   2 16826.0 341.543   3
  -5  -1  -2 18305.8 686.419   6
  -5  -1  -2 17969.1 408.440   1
   5   1   2 17169.6 465.813   9
  -5  -1  -2 15300.4 295.798   2
   5   1   2 17064.8 462.032   4
   5   1   3 63406.1 582.001   2
   5   1   3 55605.7 648.668   3
   5   1   3 60375.6 655.725  10
  -5  -1  -3 59372.3 1190.47   6
   5   1   3 59876.8 840.115   9
  -5  -1  -3 62882.0 752.450   1
  -5  -1  -3 54300.9 598.300   2
  -5  -1  -3 58718.8 780.527  11
   5   1   3 59370.5 857.207   4
  -5  -1  -4 26846.1 616.104  11
   5   1   4 25588.7 467.333  10
  -5  -1  -4 26121.6 879.595   6
  -5  -1  -4 28021.2 534.856   1
   5   1   4 26148.3 618.503   4
   5   1   4 26499.5 402.556   2
  -5  -1  -5 15874.1 496.929  11
   5   1   5 17789.5 428.014  10
  -5  -1  -5 17445.7 797.795   6
   5   1   5 16647.8 505.857   9
   5   1   5 18861.1 563.989   4
  -5  -1  -5 17665.7 450.150   1
   5   1   5 18550.5 377.725   2
  -5  -1  -6 54811.7 773.694   1
  -5  -1  -6 57327.2 931.865  11
   5   1   6 56667.7 769.260  10
  -5  -1  -6 59467.3 1401.42   6
   5   1   6 59575.4 953.003   9
   5   1   6 60562.5 690.971   2
  -5  -1  -7 16715.8 598.197  11
   5   1   7 16691.2 475.204  10
   5   1   7 16101.7 530.157   9
   5   1   7 16685.9 402.563   2
  -5  -1  -8 60110.1 1077.52  11
   5   1   8 63935.5 916.044  10
  -5  -1  -8 72021.7 1726.07   6
   5   1   8 62233.8 1033.61   9
  -5  -1  -8 51788.0 816.801   1
   5   1   8 62756.9 781.758   2
  -5  -1  -9 19614.6 708.515  11
   5   1   9 20515.6 588.337  10
   5   1   9 18988.5 649.966   9
   5   1   9 20339.1 499.175   2
   5   1  10 56504.0 983.726  10
   5   1  10 53611.9 1072.73   9
   5   1  10 55296.4 830.455   2
  -5  -2  14 65654.2 1224.15   2
  -5  -2  14 58092.6 1048.18   8
  -5  -2  13 5237.87 424.985   2
  -5  -2  13 4135.52 377.618   8
  -5  -2  13 4190.20 439.399   7
  -5  -2  12 48108.4 922.898   8
  -5  -2  12 43470.7 976.346   7
  -5  -2  11 18644.1 600.731   2
  -5  -2  11 18739.9 610.345   8
  -5  -2  11 17581.3 356.023   1
   5   2 -10 67949.1 994.685   3
  -5  -2  10 67757.1 1053.62   2
  -5  -2  10 61293.2 998.269   8
  -5  -2  10 59050.0 950.497   7
  -5  -2  10 62621.2 650.244   1
   5   2  -9 29162.0 565.094   6
  -5  -2   9 37723.8 613.989  11
   5   2  -9 37253.0 709.285   3
  -5  -2   9 34662.0 720.374   8
  -5  -2   9 32301.6 656.672   7
  -5  -2   9 33915.0 482.713   1
   5   2  -8 19219.1 507.269   6
  -5  -2   8 23491.0 465.250  11
   5   2  -8 20138.0 424.050   6
  -5  -2   8 20997.6 605.887   8
  -5  -2   8 23230.4 530.996   7
   5   2  -8 24915.7 551.664   3
  -5  -2   8 22005.5 398.621   1
   5   2  -7 193658. 1584.17   6
  -5  -2   7 212478. 1209.89  11
   5   2  -7 209335. 1319.37   6
   5   2  -7 196239. 1306.59   3
  -5  -2   7 202774. 1667.32   8
   5   2  -7 191471. 1605.39   5
  -5  -2   7 183655. 977.848   4
  -5  -2   7 199910. 1379.10   7
  -5  -2   7 204042. 1172.48   1
   5   2  -6 15745.0 555.190   6
  -5  -2   6 15325.0 344.303   1
   5   2  -6 15037.5 360.778   3
  -5  -2   6 15028.4 322.362  11
   5   2  -6 16271.9 452.606   6
   5   2  -6 15445.0 477.579   9
  -5  -2   6 15586.8 354.948   4
  -5  -2   6 16073.6 404.171   7
  -5  -2   6 14421.3 361.330   3
  -5  -2   5 340959. 1569.50   1
   5   2  -5 328389. 1477.45   3
  -5  -2   5 331972. 1365.94  11
   5   2  -5 335442. 1936.11   6
   5   2  -5 332805. 2015.54   9
  -5  -2   5 332597. 1617.70   4
  -5  -2   5 334544. 1652.83   7
   5   2  -5 339113. 2260.71   6
  -5  -2   4 177.509 141.292   1
  -5  -2   4 424.641 128.496  11
  -5  -2   4 396.564 119.182   3
   5   2  -4 147.168 127.532   3
   5   2  -4 645.145 336.490   6
   5   2  -4 256.201 251.657   6
   5   2  -4 341.717 194.309   9
  -5  -2   4 239.481 166.138   4
   5   2  -4 379.852 133.613   7
  -5  -2   4 193.579 169.445   7
   5   2  -3 343018. 1346.98   3
   5   2  -3 345003. 1783.48  11
  -5  -2   3 376295. 1672.89   1
  -5  -2   3 382071. 1497.82  11
  -5  -2   3 385833. 1527.55   2
   5   2  -3 363486. 2293.79   6
   5   2  -3 356799. 2003.12   9
  -5  -2   3 339102. 1851.20   4
   5   2  -3 379263. 1608.16   7
  -5  -2   3 395052. 1925.36   7
  -5  -2   2 24342.0 371.026   2
  -5  -2   2 23314.7 376.367  10
  -5  -2   2 21314.6 523.023   6
   5   2  -2 21742.4 514.841   9
  -5  -2   2 24085.8 412.196  11
   5   2  -2 24873.8 467.877   7
  -5  -2   2 21319.1 411.673   1
   5   2  -2 20276.9 340.540   3
  -5  -2   1 252447. 1350.87  11
  -5  -2   1 237192. 1161.13  10
  -5  -2   1 246399. 1368.57   1
  -5  -2   1 221923. 1721.50   6
   5   2  -1 239232. 1595.52   9
   5   2  -1 236486. 1526.16   7
   5   2  -1 253900. 1044.16   3
  -5  -2   1 244535. 1072.52   2
  -5  -2   0 44764.6 618.281  11
  -5  -2   0 43288.7 854.800   6
   5   2   0 42631.2 706.264   9
  -5  -2   0 42420.4 594.659   1
  -5  -2   0 42652.6 479.966   2
  -5  -2  -1 39370.4 598.839  11
   5   2   1 38784.0 661.833   9
  -5  -2  -1 38826.9 594.692   1
   5   2   2 72401.6 667.524   2
  -5  -2  -2 70140.2 835.080  11
  -5  -2  -2 69584.2 1208.59   6
   5   2   2 70467.8 910.044   9
  -5  -2  -2 73452.0 830.110   1
   5   2   3 21735.8 389.210   2
  -5  -2  -3 21224.5 513.677  11
   5   2   3 22004.5 547.403   9
   5   2   4 87919.9 794.503   2
  -5  -2  -4 86826.5 1054.63  11
  -5  -2  -4 82696.1 1466.30   6
   5   2   4 84131.7 1037.29   9
  -5  -2  -4 82532.2 928.531   1
  -5  -2  -5 3790.33 291.320   1
  -5  -2  -5 3471.75 343.691  11
   5   2   5 3763.75 264.207  10
   5   2   5 4257.66 330.190   9
   5   2   5 3918.63 221.949   2
  -5  -2  -6 116539. 1344.23  11
   5   2   6 112143. 1094.83  10
  -5  -2  -6 109891. 1163.13   1
   5   2   6 115899. 1320.96   9
   5   2   6 121066. 1023.21   2
  -5  -2  -7 3145.24 372.271  11
   5   2   7 3391.89 291.065  10
   5   2   7 2828.65 331.936   9
  -5  -2  -7 2350.52 598.298   6
  -5  -2  -7 2398.42 291.167   1
   5   2   7 2835.64 242.170   2
  -5  -2  -8 74865.5 1224.05  11
   5   2   8 79853.0 1034.83  10
  -5  -2  -8 85322.7 1834.76   6
   5   2   8 78659.4 1205.79   9
   5   2   8 81366.6 934.414   2
   5   2   9 83.7255 210.010   2
  -5  -2  -9 539.275 356.352  11
   5   2   9 225.964 265.238  10
  -5  -2  -9 751.852 614.798   6
   5   2   9 355.768 316.089   9
  -5  -2  -9 515.995 314.217   1
  -5  -3  14 26305.1 841.177   2
  -5  -3  14 24501.3 747.704   8
   5   3 -13 24024.1 748.336   3
  -5  -3  13 23361.2 760.426   2
  -5  -3  13 24966.8 758.639   8
   5   3 -12 21834.2 711.812   3
  -5  -3  12 20371.5 717.497   2
  -5  -3  12 19364.7 643.800   8
  -5  -3  11 68100.1 646.245   1
  -5  -3  11 67045.1 1120.93   2
   5   3 -10 12238.8 612.610   6
   5   3 -10 17089.1 565.296   3
  -5  -3  10 15468.3 335.749   1
  -5  -3  10 15468.3 560.894   8
  -5  -3  10 13389.2 441.425   7
   5   3  -9 132515. 1596.88   6
  -5  -3   9 153125. 910.589  11
   5   3  -9 153560. 1411.06   3
  -5  -3   9 142949. 962.353   1
  -5  -3   9 143108. 1424.44   8
  -5  -3   9 143272. 1182.65   7
   5   3  -8 7292.15 551.491   6
   5   3  -8 7084.25 342.252   3
  -5  -3   8 8514.18 231.510  11
  -5  -3   8 7097.61 254.180   1
   5   3  -8 6603.45 377.159   6
  -5  -3   8 7078.36 419.793   8
  -5  -3   8 8270.04 299.317   7
   5   3  -7 248373. 2252.21   6
   5   3  -7 242542. 1574.62   3
  -5  -3   7 235737. 1266.05   1
   5   3  -7 241310. 1699.60   6
   5   3  -7 239567. 1873.51   9
  -5  -3   7 234315. 1842.02   8
  -5  -3   7 241231. 1180.27   7
   5   3  -6 39865.8 972.124   6
   5   3  -6 36101.0 604.563   3
  -5  -3   6 40684.3 439.412  11
  -5  -3   6 35809.1 521.152   1
   5   3  -6 37242.0 730.066   6
   5   3  -6 35500.4 730.259   9
  -5  -3   6 39169.5 469.835   7
   5   3  -5 282652. 1586.58   3
  -5  -3   5 311320. 1215.40  11
   5   3  -5 289659. 2020.93   6
  -5  -3   5 281035. 1407.06   1
   5   3  -5 295026. 1972.16   9
  -5  -3   5 305585. 1242.07   7
   5   3  -5 294765. 2455.14   6
  -5  -3   4 123973. 770.879  11
  -5  -3   4 110183. 886.348   1
   5   3  -4 125469. 1290.78   9
   5   3  -4 111246. 1538.33   6
   5   3  -3 114552. 996.724  11
  -5  -3   3 116941. 814.390  11
  -5  -3   3 115336. 946.462   1
   5   3  -3 110548. 1196.39   9
   5   3  -3 119302. 774.933   7
   5   3  -3 107091. 1621.12   6
   5   3  -3 103127. 894.170   3
  -5  -3   2 135916. 945.466  11
   5   3  -2 134087. 988.738   3
   5   3  -1 37824.3 671.126   9
  -5  -3   1 37240.4 582.874   1
  -5  -3   1 38193.4 542.047  11
   5   3  -1 38959.3 654.977   7
  -5  -3   0 49528.3 663.787  11
  -5  -3   0 43132.7 854.315   6
   5   3   0 47094.6 779.139   9
  -5  -3   0 48247.8 674.559   1
   5   3   0 52980.5 609.357   3
   5   3   0 42060.8 814.535   7
  -5  -3  -1 1101.16 204.111  11
  -5  -3  -1 1179.36 351.461   6
   5   3   1 763.846 196.889   9
  -5  -3  -1 1212.36 211.988   1
   5   3   2 106656. 893.462   2
  -5  -3  -2 105297. 1072.94  11
  -5  -3  -2 97559.5 1402.33   6
   5   3   2 100415. 1108.46   9
  -5  -3  -2 102932. 1039.83   1
  -5  -3  -3 1754.74 237.706   1
   5   3   3 2021.24 199.631   2
  -5  -3  -3 1982.37 258.621  11
   5   3   3 1788.65 243.669   9
  -5  -3  -3 1934.19 400.596   6
   5   3   4 128817. 1044.55   2
  -5  -3  -4 125627. 1294.11  11
  -5  -3  -4 126186. 1238.11   1
   5   3   4 126270. 1303.39   9
   5   3   5 3445.18 250.037   2
  -5  -3  -5 3743.39 355.877  11
  -5  -3  -5 3149.82 500.928   6
   5   3   5 2754.30 315.689   9
  -5  -3  -5 3751.39 332.764   1
   5   3   6 147764. 1221.99   2
  -5  -3  -6 146599. 1615.79  11
  -5  -3  -6 142471. 2020.97   6
   5   3   6 133986. 1454.52   9
  -5  -3  -6 128534. 1379.46   1
  -5  -3  -7 15514.4 601.889  11
  -5  -3  -7 16380.4 845.357   6
   5   3   7 16218.6 586.101   9
   5   3   7 17485.3 475.396   2
  -5  -3  -8 66085.0 1234.33  11
   5   3   8 66802.6 1012.03  10
  -5  -3  -8 69061.0 1604.58   6
   5   3   8 66625.6 1140.30   9
   5   3   8 63640.9 871.839   2
   5   4 -14 5455.12 550.838   3
  -5  -4  14 5026.19 485.889   2
  -5  -4  14 3993.54 438.358   8
  -5  -4  13 43503.1 1039.23   2
  -5  -4  13 45760.1 1014.42   8
   5   4 -12 2097.32 386.531   3
  -5  -4  12 1014.08 314.568   8
   5   4 -11 116101. 1441.14   3
  -5  -4  11 112447. 1470.23   8
   5   4 -10 31792.3 734.653   3
  -5  -4  10 32727.3 761.593   8
  -5  -4  10 31597.8 483.377   1
   5   4  -9 150885. 2013.69   6
   5   4  -9 145173. 1434.84   3
  -5  -4   9 142072. 1445.55   8
  -5  -4   9 149130. 1001.86   1
   5   4  -8 95971.2 1602.93   6
   5   4  -8 91504.1 1091.20   3
  -5  -4   8 95772.5 1261.82   8
  -5  -4   8 92122.5 809.896   1
   5   4  -7 77943.3 992.366   3
  -5  -4   7 80038.2 466.047  11
  -5  -4   7 77532.0 1098.39   8
  -5  -4   7 79979.9 767.656   1
   5   4  -6 119201. 1789.23   6
  -5  -4   6 121579. 642.278  11
   5   4  -6 117245. 1332.21   9
  -5  -4   6 119198. 1212.90   8
  -5  -4   6 117000. 950.684   1
  -5  -4   5 37305.9 407.645  11
   5   4  -5 36718.2 751.397   9
  -5  -4   5 34836.5 558.424   1
   5   4  -5 36899.8 1062.47   6
   5   4  -4 94130.1 1158.28   9
  -5  -4   4 92582.7 876.230   1
   5   4  -4 91257.1 1591.00   6
   5   4  -4 90661.9 966.189   3
   5   4  -3 4584.15 247.092  11
  -5  -4   3 4040.46 197.347  11
   5   4  -3 3900.75 300.081   9
   5   4  -3 2902.65 107.485   7
  -5  -4   3 3112.23 227.549   1
   5   4  -3 4207.36 294.105   3
   5   4  -3 3927.17 541.868   6
  -5  -4   2 52090.4 619.263  11
   5   4  -2 52009.2 847.850   9
   5   4  -2 53694.9 572.312   7
  -5  -4   2 51411.8 723.420   1
   5   4  -2 53428.9 688.964   3
  -5  -4   1 3729.05 225.325  11
   5   4  -1 3802.97 290.881   9
   5   4  -1 3904.29 286.498   7
   5   4  -1 4365.42 252.091   3
  -5  -4   1 3341.49 261.421   1
  -5  -4   0 83162.3 956.785   1
  -5  -4   0 92426.9 954.546  11
  -5  -4   0 84288.2 1171.61   6
   5   4   0 85886.8 1086.24   9
   5   4   0 97653.1 887.132   3
   5   4   0 74922.7 1048.91   7
  -5  -4  -1 9557.42 385.702   1
  -5  -4  -1 9811.80 366.707  11
  -5  -4  -1 8647.56 486.003   6
   5   4   1 9724.63 416.588   9
   5   4   1 10355.7 320.185   3
  -5  -4  -2 145092. 1358.02  11
  -5  -4  -2 137909. 1299.81   1
  -5  -4  -2 137485. 1675.94   6
   5   4   2 149716. 1468.41   9
   5   4   3 41278.2 642.801   2
  -5  -4  -3 40333.4 775.967  11
  -5  -4  -3 38776.7 974.098   6
   5   4   3 40490.6 764.196   9
  -5  -4  -3 39977.1 777.411   1
   5   4   4 104876. 1225.98   9
  -5  -4  -4 108933. 1284.67  11
  -5  -4  -4 104914. 1620.57   6
  -5  -4  -4 104971. 1250.44   1
   5   4   5 44988.1 695.234   2
  -5  -4  -5 45783.8 909.074  11
   5   4   5 45506.8 877.619   9
  -5  -4  -5 42673.9 860.590   1
   5   4   6 37080.2 686.945   2
  -5  -4  -6 35039.0 864.902  11
  -5  -4  -6 36311.3 897.339   1
  -5  -4  -6 34106.4 1124.78   6
   5   4   6 35888.3 818.454   9
   5   4   7 57770.5 875.245   2
  -5  -4  -7 62574.6 1537.21   6
   5   4   7 52960.2 1008.49   9
  -5  -4  -7 49202.5 1060.89   1
  -5  -5  13 52093.0 1059.60   8
   5   5 -13 53860.9 1200.33   3
   5   5 -12 37053.9 934.225   3
  -5  -5  12 35536.2 873.208   8
   5   5 -11 55687.8 1035.29   3
  -5  -5  11 62474.5 1136.92   8
  -5  -5  10 88636.8 827.286   1
   5   5 -10 94688.6 1812.01   6
   5   5 -10 88481.6 1256.88   3
  -5  -5  10 96848.0 1296.83   8
  -5  -5   9 14351.0 374.543   1
   5   5  -9 15304.9 910.341   6
   5   5  -9 13131.3 520.493   3
  -5  -5   9 15021.9 552.703   8
   5   5  -8 95058.6 1801.52   6
  -5  -5   8 95285.3 1259.44   8
  -5  -5   8 91466.6 866.376   1
   5   5  -7 15935.3 864.291   6
   5   5  -7 15129.7 525.938   3
  -5  -5   7 15904.1 543.276   8
  -5  -5   7 14990.0 390.067   1
   5   5  -6 95207.1 1775.77   6
   5   5  -6 101403. 1169.80   3
   5   5  -6 102960. 1297.55   9
  -5  -5   6 104525. 1185.57   8
  -5  -5   6 92305.2 906.070   1
  -5  -5   5 503.407 183.029   1
  -5  -5   5 299.730 110.422  11
   5   5  -5 607.218 237.370   3
   5   5  -5 40.0641 485.065   6
   5   5  -5 399.511 229.477   9
  -5  -5   4 76264.1 877.377   1
  -5  -5   4 76226.1 654.195  11
   5   5  -4 76726.6 1590.94   6
  -5  -5   3 2880.94 257.143   1
  -5  -5   3 3813.94 210.412  11
   5   5  -3 3651.50 311.910   9
   5   5  -3 3770.77 285.495   3
   5   5  -3 3235.17 587.908   6
  -5  -5   2 39957.9 695.461   1
  -5  -5   2 42714.4 596.167  11
   5   5  -2 41948.1 822.084   9
   5   5  -2 44329.3 687.793   3
   5   5  -2 37951.2 1226.11   6
  -5  -5   1 54072.2 818.874   1
  -5  -5   1 56408.6 714.938  11
   5   5  -1 55195.6 925.245   9
  -5  -5   0 116684. 1086.27  11
   5   5   0 114690. 1286.98   9
   5   5   1 90875.2 1172.41   9
  -5  -5  -1 90528.3 1154.55   1
   5   5   1 91960.8 930.050   3
  -5  -5  -2 51805.9 867.488  11
   5   5   2 51667.4 895.414   9
  -5  -5  -2 52032.0 1030.55   6
  -5  -5  -2 51631.7 905.294   1
  -5  -5  -3 92890.1 1205.97  11
   5   5   3 94529.4 1216.29   9
  -5  -5  -3 90970.2 1416.85   6
  -5  -5  -3 90262.7 1221.72   1
  -5  -5  -4 24781.3 743.866   1
   5   5   4 25127.7 576.546   2
   5   5   4 25549.2 701.943   9
  -5  -5  -4 25565.9 883.065   6
   5   5   5 73591.9 921.634   2
  -5  -5  -5 82415.6 1374.83   1
   5   5   5 83526.8 1202.43   9
  -5  -5  -5 76958.6 1465.86   6
   5   5   6 1091.06 262.367   2
  -5  -5  -6 1487.23 533.395   6
   5   5   6 1047.85 310.672   9
  -5  -5  -6 936.884 389.352   1
   5   6 -12 66493.7 1238.07   3
  -5  -6  12 81501.8 1267.57   8
   5   6 -11 5338.60 459.182   3
  -5  -6  11 6537.46 460.050   8
   5   6 -10 106793. 2101.78   6
  -5  -6  10 108493. 1396.11   8
   5   6  -9 702.699 318.689   3
   5   6  -9 356.189 658.226   6
  -5  -6   9 1172.55 287.487   8
  -5  -6   9 653.838 204.126   1
   5   6  -8 68954.7 1717.54   6
   5   6  -8 68065.6 1096.09   3
  -5  -6   8 66565.8 845.928   1
  -5  -6   8 68670.2 1058.26   8
   5   6  -7 2089.43 326.970   3
  -5  -6   7 1608.35 241.225   1
   5   6  -7 1928.49 652.360   6
  -5  -6   7 2137.20 319.305   8
   5   6  -6 41676.3 1350.65   6
  -5  -6   6 41424.9 705.183   1
   5   6  -6 44241.6 928.351   9
  -5  -6   6 41443.2 844.976   8
  -5  -6   5 37710.7 699.581   1
   5   6  -5 39339.1 836.604   9
  -5  -6   5 38426.7 731.980   8
  -5  -6   4 36202.5 696.551   1
   5   6  -4 37605.7 813.935   9
   5   6  -3 83817.9 1172.98   9
   5   6  -3 84358.5 1048.39   3
   5   6  -2 29927.3 723.245   9
  -5  -6   2 33273.0 735.875   1
   5   6  -2 33389.9 662.910   3
   5   6  -2 28965.1 1197.00   6
   5   6  -1 115696. 1352.25   9
  -5  -6   1 111565. 1273.31   1
   5   6  -1 113678. 2198.73   6
   5   6   0 35421.0 794.841   9
  -5  -6   0 32617.2 758.940   1
   5   6   0 35300.3 642.354   3
   5   6   0 33520.8 1388.11   6
   5   6   1 145962. 1535.06   9
   5   6   1 141003. 2636.44   6
  -5  -6  -1 140668. 1563.18   1
   5   6   2 737.471 235.009   3
   5   6   2 786.720 784.861   6
  -5  -6  -2 661.146 347.929   1
   5   6   2 247.479 268.397   9
  -5  -6  -3 68796.7 1230.69   1
   5   6   3 68779.2 1122.01   9
   5   6   3 70332.1 936.289   3
   5   6   4 5509.88 370.394   2
   5   6   4 5528.39 411.210   9
  -5  -6  -4 4844.28 510.734   1
  -5  -6  -5 34656.5 1007.30   1
   5   6   5 34960.7 859.094   9
   5   7 -11 13718.7 666.844   3
  -5  -7  11 13499.8 615.620   8
   5   7 -10 30666.5 1372.21   6
  -5  -7  10 31496.0 827.237   8
   5   7  -9 8857.74 947.369   6
  -5  -7   9 9501.30 430.136   1
  -5  -7   9 10508.6 505.479   8
   5   7  -8 21887.8 1189.21   6
  -5  -7   8 23975.7 671.183   8
  -5  -7   8 21507.6 569.537   1
   5   7  -7 25030.0 1196.67   6
  -5  -7   7 27430.2 729.451   8
  -5  -7   7 26557.8 635.536   1
   5   7  -6 11762.8 955.551   6
   5   7  -6 14509.9 578.965   9
  -5  -7   6 13389.1 535.166   8
  -5  -7   6 11906.2 457.959   1
   5   7  -6 15327.3 608.135   3
   5   7  -5 75070.7 1896.51   6
   5   7  -5 83492.5 1272.28   9
  -5  -7   5 74036.2 1089.50   8
  -5  -7   5 72189.4 1015.71   1
   5   7  -5 89108.9 1229.06   3
   5   7  -4 3761.13 347.835   9
  -5  -7   4 3611.20 326.261   8
  -5  -7   4 3750.96 353.541   1
   5   7  -4 4492.05 401.188   3
   5   7  -4 3404.21 735.125   6
   5   7  -3 122426. 1508.55   9
   5   7  -3 119819. 1326.11   3
   5   7  -3 106513. 2203.66   6
  -5  -7   3 106820. 1311.05   1
   5   7  -2 678.570 271.813   3
  -5  -7   2 762.313 301.597   1
   5   7  -2 305.839 645.225   6
   5   7  -2 376.391 277.027   9
  -5  -7   1 132833. 1623.45   1
   5   7  -1 131102. 1279.93   3
  -5  -7   0 6923.11 506.434   1
   5   7   0 7265.22 454.338   9
   5   7   0 7433.53 401.505   3
   5   7   0 7159.56 885.846   6
   5   7   1 64842.0 1107.25   9
  -5  -7  -1 64765.3 1222.44   1
   5   7   1 64936.2 931.877   3
   5   7   2 13510.5 553.562   9
   5   7   2 14134.0 508.243   3
  -5  -7  -2 12269.4 637.196   1
   5   7   2 11610.1 1124.02   6
  -5  -7  -3 13567.8 700.142   1
   5   7   3 13733.5 585.517   9
   5   7   3 14707.3 514.017   3
   5   7   3 12496.4 1247.40   6
   5   8  -9 23914.3 1356.45   6
  -5  -8   9 28980.1 777.778   8
   5   8  -8 2000.92 428.402   3
  -5  -8   8 1465.15 328.940   8
  -5  -8   8 1544.20 328.233   1
  -5  -8   7 75536.2 1119.12   8
  -5  -8   7 76949.9 1167.61   1
  -5  -8   6-120.000 305.873   1
   5   8  -6 280.815 328.772   3
   5   8  -6-0.88808 754.512   6
  -5  -8   6 21.4384 296.739   8
   5   8  -5 93884.5 2265.90   6
   5   8  -5 109911. 1514.45   9
  -5  -8   5 98698.8 1313.96   8
  -5  -8   5 101923. 1394.91   1
   5   8  -5 116678. 1488.68   3
   5   8  -4 5411.17 929.680   6
   5   8  -4 6717.30 476.796   9
  -5  -8   4 6889.59 426.334   8
  -5  -8   4 6015.02 479.501   1
   5   8  -4 7489.17 523.943   3
  -5  -8   3 64393.8 974.402   8
  -5  -8   3 63439.0 1190.54   1
   5   8  -3 66332.1 1089.34   3
   5   8  -2 11255.3 551.021   9
  -5  -8   2 9804.74 575.614   1
   5   8  -2 10476.8 504.303   3
   5   8  -2 9480.70 1013.10   6
   5   8  -1 50147.6 886.701   3
  -5  -8   1 47828.3 1077.28   1
  -5  -8   0 23363.5 842.935   1
   5   8   0 23861.3 757.983   9
   5   8   0 25783.0 707.151   3
  -6   8   3 31863.8 959.652  11
  -6   8   3 34994.0 1277.36   5
  -6   8   3 34031.9 1072.12   7
  -6   8   2 12762.3 653.002  11
  -6   8   2 10572.4 827.955   5
  -6   8   2 11735.4 732.045   7
  -6   8   1 15490.9 665.938  11
  -6   8   1 14911.0 894.125   5
  -6   8   1 15308.9 813.130   7
  -6   8   0 25675.0 1138.94   5
  -6   8   0 27746.8 1100.41   7
  -6   8   0 24601.6 737.041  11
  -6   8  -1 15871.7 620.633  11
  -6   8  -1 15047.8 689.063   1
  -6   8  -1 15411.2 919.293   5
  -6   8  -1 15482.2 880.929   7
  -6   8  -2 17507.2 604.216  11
  -6   8  -2 17839.3 697.998   1
  -6   8  -2 15873.3 1017.21   5
  -6   8  -2 17249.3 922.693   7
  -6   8  -3 8039.32 529.526   1
  -6   8  -3 7422.45 733.303   7
  -6   8  -3 8318.81 450.523  11
  -6   7   6 16366.0 930.655   5
  -6   7   6 18964.1 844.614   7
  -6   7   5 21764.1 997.159   5
  -6   7   5 26881.0 944.920   7
  -6   7   4 23170.2 997.995   5
  -6   7   4 27985.9 983.995   7
  -6   7   3 19790.4 750.001  11
  -6   7   3 17313.4 896.742   5
  -6   7   3 18561.7 785.050   7
  -6   7   2 33200.7 893.296  11
  -6   7   2 30956.9 1107.46   5
  -6   7   2 34037.7 1028.61   7
  -6   7   1 1975.48 359.654  11
  -6   7   1 1387.77 721.421   6
  -6   7   1 2243.93 505.032   5
  -6   7   1 2136.21 488.918   7
  -6   7   0 59416.9 1040.94  11
  -6   7   0 59739.2 1527.86   5
  -6   7   0 61453.3 1390.99   7
  -6   7  -1 1249.30 309.959  11
  -6   7  -1 782.171 330.657   1
  -6   7  -1 333.454 761.464   6
  -6   7  -1 1090.25 503.480   5
  -6   7  -1 622.330 466.392   7
  -6   7  -2 83847.2 1155.73  11
  -6   7  -2 83435.8 1274.63   1
  -6   7  -2 83374.6 1722.91   7
  -6   7  -3 3481.79 369.533   1
  -6   7  -3 3123.44 871.422   6
  -6   7  -3 3642.41 327.355  11
  -6   7  -3 4536.56 616.397   7
  -6   7  -4 116066. 1313.14  11
  -6   7  -4 114482. 1380.80   1
  -6   7  -5 22363.0 623.369  11
  -6   7  -5 22439.0 648.968   1
  -6   7  -5 21502.3 1062.38   7
  -6   7  -6 42002.7 1812.11   6
  -6   7  -6 51212.8 888.495  11
   6  -7   6 38378.7 1510.72   4
  -6   7  -6 50782.5 1789.21   7
  -6   6   8 33576.0 1174.81   5
  -6   6   8 34451.9 1079.79   7
  -6   6   7 15408.5 859.204   5
  -6   6   7 18895.9 823.714   7
  -6   6   6 38787.8 667.659   3
  -6   6   6 40081.1 1102.50   7
  -6   6   5 811.191 246.492   3
  -6   6   5 1248.06 468.831   5
  -6   6   5 1470.12 387.756   7
  -6   6   4 51401.4 1211.77   7
  -6   6   4 48932.1 711.569   3
  -6   6   3-143.564 349.695  11
  -6   6   3 386.787 202.510   3
  -6   6   3 34.3533 547.344   6
  -6   6   3 416.592 401.843   5
  -6   6   3 178.605 361.745   7
  -6   6   2 59093.8 1081.05  11
  -6   6   2 59927.8 1427.82   5
  -6   6   2 60895.9 1249.31   7
  -6   6   2 63268.1 832.621   3
  -6   6   1 4348.78 757.102   6
  -6   6   1 4527.31 426.048  11
  -6   6   1 4514.29 403.877   1
  -6   6   1 4311.79 584.976   5
  -6   6   1 4674.41 520.451   7
  -6   6   1 4657.12 341.145   3
  -6   6   0 86106.6 1956.27   6
  -6   6   0 102203. 1332.82  11
  -6   6   0 91594.1 1330.61   1
  -6   6   0 87616.2 1763.36   5
  -6   6   0 101133. 1759.95   7
  -6   6   0 97648.3 1049.45   3
  -6   6  -1 26518.6 600.158   3
  -6   6  -1 25879.2 672.407  11
  -6   6  -1 24035.9 708.406   1
  -6   6  -1 26872.9 969.602   7
  -6   6  -2 91643.3 1080.45   3
  -6   6  -2 92620.9 1180.06  11
  -6   6  -3 53061.9 916.213  11
  -6   6  -3 46470.6 861.535   1
  -6   6  -3 43435.6 1591.24   6
  -6   6  -3 53659.1 1395.28   7
  -6   6  -4 39161.2 1586.84   6
  -6   6  -4 39906.7 768.109  11
   6  -6   4 36478.5 660.317   9
  -6   6  -4 43529.8 832.740   1
  -6   6  -4 44280.9 1352.14   7
  -6   6  -5 90732.2 1146.67  11
   6  -6   5 68613.3 939.442   9
  -6   6  -5 77642.8 2156.85   6
   6  -6   5 67676.3 1766.17   4
  -6   6  -5 82988.6 1083.92   1
  -6   6  -5 88414.3 1973.68   7
  -6   6  -6 5649.83 1053.25   6
  -6   6  -6 5415.34 405.771  11
   6  -6   6 3268.86 305.038   9
   6  -6   6 5110.00 756.831   4
  -6   6  -6 5960.63 884.832   7
  -6   6  -7 37762.4 1766.36   6
  -6   6  -7 41220.9 783.801  11
   6  -6   7 29732.1 716.529   9
   6  -6   7 34091.7 1372.98   4
  -6   5  10 69610.4 1576.59   5
  -6   5  10 71903.8 1531.79   7
  -6   5  10 69335.9 916.384   2
  -6   5   9 4786.23 556.253   7
  -6   5   9 4519.49 288.337   2
  -6   5   8 32114.3 1078.77   5
  -6   5   8 30609.1 554.834   2
  -6   5   7 886.861 444.272   5
  -6   5   7 1623.15 424.895   7
  -6   5   7 1279.41 183.361   2
  -6   5   6 35969.9 523.250   2
  -6   5   6 33034.8 1052.32   5
  -6   5   5 413.256 136.449   2
  -6   5   5 406.147 179.353   3
  -6   5   5 624.557 400.533   5
  -6   5   5 882.348 332.817   7
  -6   5   4 63627.8 1387.04   6
  -6   5   4 64529.1 1414.49   5
  -6   5   4 74817.6 1361.46   7
  -6   5   4 74981.5 799.980   3
  -6   5   3 22839.1 939.491   6
  -6   5   3 25166.8 759.447  11
  -6   5   3 24676.4 922.749   5
  -6   5   3 24037.9 787.593   7
  -6   5   3 25989.6 476.367   3
  -6   5   2 84815.3 1629.13   6
  -6   5   2 95358.8 1315.45  11
  -6   5   2 89659.0 1294.25   1
  -6   5   2 91349.5 1699.07   5
  -6   5   2 89297.6 1416.61   7
  -6   5   2 99200.2 944.614   3
  -6   5   1 90501.2 1753.00   6
  -6   5   1 92674.6 1215.68  11
  -6   5   1 92844.6 1288.91   1
  -6   5   1 89465.2 880.126   3
  -6   5   0 94493.1 898.543   3
  -6   5   0 94977.2 1823.26   6
  -6   5   0 96911.7 1197.37  11
  -6   5   0 97178.4 1277.41   1
   6  -5   0 109705. 926.008   9
  -6   5   0 106031. 1746.94   7
  -6   5  -1 129425. 1117.88   3
  -6   5  -1 131863. 2247.87   6
  -6   5  -1 136624. 1387.55  11
   6  -5   1 138924. 1084.13   9
  -6   5  -1 125733. 1409.52   1
  -6   5  -2 26032.5 538.020   3
  -6   5  -2 25623.8 628.896  11
   6  -5   2 25501.9 523.278   9
  -6   5  -2 25423.9 659.710   1
  -6   5  -2 26098.0 981.843   7
  -6   5  -3 118266. 1136.31   3
  -6   5  -3 112461. 2186.22   6
  -6   5  -3 119176. 1272.98  11
   6  -5   3 119545. 1145.64   9
  -6   5  -3 120105. 1306.37   1
   6  -5   3 108315. 1932.18   4
  -6   5  -3 123148. 1990.61   7
  -6   5  -4 146.422 259.983  11
  -6   5  -4-63.9187 222.701   3
  -6   5  -4-203.893 717.810   6
   6  -5   4 97.8366 192.240   9
   6  -5   4 769.591 530.240   4
  -6   5  -4 169.273 220.859   1
  -6   5  -4 719.524 494.726   7
  -6   5  -5 48536.9 1680.79   6
  -6   5  -5 49579.1 873.417  11
   6  -5   5 43661.2 772.102   9
   6  -5   5 45774.2 1423.74   4
  -6   5  -5 46626.9 752.165   1
  -6   5  -5 47974.4 1523.05   7
  -6   5  -6 5417.52 367.013  11
  -6   5  -6 5025.02 883.850   6
   6  -5   6 4428.40 334.228   9
   6  -5   6 3797.67 632.390   4
  -6   5  -6 4790.38 301.957   1
  -6   5  -7 31303.6 1540.64   6
   6  -5   7 28232.5 703.362   9
   6  -5   7 29092.3 1239.12   4
  -6   5  -8 6417.40 420.294  11
   6  -5   8 4800.97 388.756   9
  -6   5  -8 5518.45 970.409   6
   6  -5   8 5607.82 748.812   4
  -6   4  11 470.417 232.952   2
  -6   4  11 715.561 368.701   1
  -6   4  11 813.628 471.443   5
  -6   4  11 517.279 442.005   7
  -6   4  10 38275.3 962.371   1
  -6   4  10 36935.6 1118.30   5
  -6   4  10 36064.0 1067.88   7
  -6   4  10 37131.0 674.642   2
  -6   4   9 241.090 170.734   2
  -6   4   9 255.394 305.095   1
  -6   4   9-172.657 405.149   5
  -6   4   9 143.147 359.005   7
  -6   4   8 48027.9 1217.92   5
  -6   4   8 46486.6 641.439   2
  -6   4   7 12431.3 683.921   5
  -6   4   7 11577.4 313.875   2
  -6   4   6 71912.1 1171.44   1
  -6   4   6 72802.0 1442.40   5
  -6   4   5 92534.9 1282.94   1
  -6   4   5 91242.5 871.370   8
  -6   4   5 90354.1 1595.71   5
  -6   4   5 90190.5 1390.22   7
  -6   4   5 87884.1 661.506   2
  -6   4   4 58219.0 506.385   2
  -6   4   4 61428.1 1088.20  11
  -6   4   4 58099.1 1076.51   6
  -6   4   4 61602.2 1044.65   1
  -6   4   4 60206.5 1339.87   5
  -6   4   4 66838.2 1240.33   7
  -6   4   4 69818.0 695.641   3
  -6   4   3 194835. 2039.68   6
  -6   4   3 206323. 1841.58   1
   6  -4  -3 193470. 1093.31   9
  -6   4   3 182357. 1776.91  11
  -6   4   3 192034. 2379.24   5
  -6   4   3 198544. 2014.83   7
  -6   4   3 208917. 1110.74   3
  -6   4   2 42801.3 851.963  11
  -6   4   2 40638.4 1053.19   6
  -6   4   2 43079.6 836.122   1
   6  -4  -2 40803.5 545.668   9
  -6   4   2 41464.9 990.499   7
  -6   4   2 43020.0 553.398   3
  -6   4   1 222747. 1772.56  11
  -6   4   1 224574. 2435.23   6
  -6   4   1 225607. 1824.41   1
   6  -4  -1 244325. 1371.49   9
  -6   4   1 235711. 2408.35   7
  -6   4   1 236796. 1234.16   3
  -6   4   0 344.528 244.860  11
  -6   4   0 533.893 157.217   3
  -6   4   0 438.224 464.605   6
   6  -4   0 318.036 153.492   9
  -6   4   0 622.961 251.955   1
  -6   4   0 360.138 353.902   7
  -6   4  -1 126863. 910.871   3
  -6   4  -1 126022. 1293.71  11
   6  -4   1 126927. 1080.41   9
  -6   4  -1 127180. 1304.59   1
  -6   4  -1 128971. 1950.17   7
  -6   4  -2 11763.1 330.195   3
  -6   4  -2 11348.4 433.726  11
  -6   4  -2 11873.6 825.888   6
   6  -4   2 12699.2 407.744   9
  -6   4  -2 11168.2 437.677   1
   6  -4   2 10512.9 682.201   4
  -6   4  -2 12134.0 736.435   7
  -6   4  -3 85399.9 1038.53  11
  -6   4  -3 97508.3 940.431   3
  -6   4  -3 94317.8 1964.42   6
   6  -4   3 91239.3 1025.32   9
   6  -4   3 88136.7 1681.77   4
  -6   4  -3 90380.1 1065.25   1
  -6   4  -3 88934.3 1695.66   7
  -6   4  -4 14027.5 478.951  11
  -6   4  -4 15182.8 995.354   6
  -6   4  -4 15858.6 447.493   3
   6  -4   4 13675.4 438.830   9
   6  -4   4 13217.7 757.360   4
  -6   4  -4 14436.3 441.376   1
  -6   4  -4 14555.1 873.548   7
  -6   4  -5 24314.8 619.716  11
  -6   4  -5 23103.2 1174.86   6
   6  -4   5 22783.6 580.152   9
   6  -4   5 23059.8 980.310   4
  -6   4  -5 24260.2 537.277   1
  -6   4  -6 30266.5 683.309  11
  -6   4  -6 30945.8 1353.55   6
   6  -4   6 27356.5 660.572   9
   6  -4   6 29765.6 1113.76   4
  -6   4  -6 30430.9 576.829   1
  -6   4  -7 20832.3 1239.58   6
  -6   4  -7 20141.5 616.569  11
   6  -4   7 17275.5 562.835   9
   6  -4   7 19831.6 963.422   4
  -6   4  -8 44871.5 886.778  11
   6  -4   8 43398.0 1360.42   4
  -6   4  -9 7393.89 1031.01   6
  -6   4  -9 8487.42 493.091  11
   6  -4   9 7705.81 501.749   9
   6  -4   9 7910.81 785.761   4
  -6   3  12 56057.1 1066.67   1
  -6   3  12 56106.2 912.988   2
  -6   3  12 55186.0 1360.04   7
  -6   3  11 8031.74 485.266   1
  -6   3  11 8264.02 633.278   5
  -6   3  11 9284.40 395.974   2
  -6   3  10 29280.6 783.167   1
  -6   3  10 27186.4 567.903   2
  -6   3  10 28195.0 920.669   7
  -6   3   9 23723.2 703.224   1
  -6   3   9 22879.0 866.165   5
  -6   3   9 21684.4 471.657   2
  -6   3   9 23679.5 837.773   7
  -6   3   8 20872.3 647.772   1
  -6   3   8 20324.7 811.387   5
  -6   3   8 19262.5 406.800   2
  -6   3   8 20797.7 759.505   7
  -6   3   7 123023. 1439.13   1
  -6   3   7 112678. 1022.49   8
  -6   3   7 127737. 1850.29   5
  -6   3   7 120394. 1596.89   7
  -6   3   7 116394. 889.310   2
  -6   3   6 12461.5 499.174   1
  -6   3   6 12507.1 412.457   8
  -6   3   6 12126.4 672.626   5
  -6   3   6 12147.0 278.783   2
  -6   3   5 206329. 1305.66   6
  -6   3   5 266545. 1992.36   1
   6  -3  -5 225676. 1625.83   4
  -6   3   5 259235. 2208.35   7
  -6   3   5 252198. 1020.59   2
  -6   3   4 1654.99 321.401  11
  -6   3   4 1933.17 330.756   6
  -6   3   4 1595.81 274.646   1
   6  -3  -4 1343.68 394.508   6
   6  -3  -4 1526.16 174.564   9
   6  -3  -4 1498.05 294.475   4
  -6   3   4 1806.87 146.712   3
  -6   3   4 1779.98 337.193   7
  -6   3   4 1488.41 101.669   2
  -6   3   3 252363. 1948.43  11
  -6   3   3 247353. 1174.02   9
  -6   3   3 252806. 1883.44   1
  -6   3   3 256950. 2026.81   6
   6  -3  -3 264939. 1480.63   9
   6  -3  -3 240029. 1945.97   4
  -6   3   3 253955. 2193.67   7
  -6   3   3 262651. 973.446   3
  -6   3   2 479.301 242.322  11
  -6   3   2 964.848 247.721   1
   6  -3  -2 585.267 475.846   6
  -6   3   2 550.784 372.405   6
  -6   3   2 481.263 125.632   9
   6  -3  -2 535.192 162.779   9
   6  -3  -2 746.032 310.267   4
  -6   3   2 471.665 303.542   7
  -6   3   2 499.882 86.2794   3
  -6   3   1 137420. 597.501   3
  -6   3   1 139546. 1351.73   1
  -6   3   1 137750. 1767.91   7
  -6   3   0 42449.2 750.917  11
  -6   3   0 38938.9 335.983   3
  -6   3   0 40837.4 1082.98   6
   6  -3   0 41719.9 615.292   9
  -6   3   0 44267.4 761.649   1
   6  -3   0 37149.1 928.646   4
  -6   3   0 41424.0 1047.94   7
  -6   3  -1 42891.6 754.708  11
  -6   3  -1 46470.0 1201.84   6
   6  -3   1 46044.5 681.581   9
  -6   3  -1 48932.0 782.207   1
   6  -3   1 41613.9 1002.87   4
  -6   3  -1 50382.3 460.673   3
  -6   3  -1 44798.6 1116.25   7
  -6   3  -2 43160.6 725.407  11
  -6   3  -2 45968.5 1225.88   6
   6  -3   2 45324.7 1089.26   4
  -6   3  -2 46300.0 740.704   1
  -6   3  -2 46449.3 1189.65   7
  -6   3  -3 13013.4 453.840  11
  -6   3  -3 14499.3 848.504   6
   6  -3   3 14164.9 446.596   9
   6  -3   3 14089.8 731.819   4
  -6   3  -3 13695.9 421.285   1
  -6   3  -4 53639.4 858.819  11
  -6   3  -4 53018.8 1478.02   6
   6  -3   4 49519.7 773.386   9
   6  -3   4 52049.5 1215.95   4
  -6   3  -4 54001.5 771.881   1
  -6   3  -4 50921.5 1515.77   7
  -6   3  -5 4786.47 336.794  11
   6  -3   5 5045.36 335.359   9
   6  -3   5 4743.35 533.373   4
  -6   3  -5 5206.98 288.998   1
  -6   3  -6 100619. 977.730   1
  -6   3  -6 93796.3 1148.98  11
  -6   3  -6 106816. 2188.74   6
   6  -3   6 93317.6 1181.30   9
   6  -3   6 100526. 1789.58   4
  -6   3  -7 1070.31 210.346   1
  -6   3  -7 1124.76 297.537  11
   6  -3   7 1542.28 299.880   9
  -6   3  -7 1560.47 716.062   6
   6  -3   7 1203.66 493.590   4
  -6   3  -8 81724.4 1160.94  11
  -6   3  -8 94888.2 2302.55   6
   6  -3   8 73764.9 1138.89   9
   6  -3   8 86921.5 1733.32   4
  -6   3  -9 657.304 315.932  11
  -6   3  -9 419.473 774.228   6
   6  -3   9 315.224 299.789   9
   6  -3   9 738.665 473.162   4
  -6   2  12 14907.5 542.651   1
  -6   2  12 15351.5 525.748   2
  -6   2  12 14302.2 744.117   7
  -6   2  11 37396.3 789.206   1
  -6   2  11 39290.2 737.393   2
  -6   2  11 39505.2 1068.37   7
  -6   2  10 7389.71 402.127   1
  -6   2  10 6395.12 344.497   8
  -6   2  10 7347.45 334.714   2
  -6   2  10 8074.51 555.457   7
  -6   2   9 97934.2 1212.69   1
  -6   2   9 100374. 997.366   2
  -6   2   8 1487.30 284.395   1
  -6   2   8 1076.31 174.137   2
  -6   2   8 1035.60 228.983   8
  -6   2   8 1367.17 349.168   7
  -6   2   7 310324. 996.656  10
  -6   2   7 316699. 2082.69   1
  -6   2   7 317889. 1984.78   8
  -6   2   7 319329. 1498.41   2
  -6   2   7 310368. 2429.84   7
  -6   2   6 6952.34 362.102   1
  -6   2   6 7827.49 333.677   8
  -6   2   6 6393.24 216.061   2
  -6   2   6 7579.48 473.831   7
  -6   2   5 186391. 1695.00  11
  -6   2   5 213824. 1063.26   3
  -6   2   5 201444. 1575.06   1
   6  -2  -5 206414. 1399.52   9
   6  -2  -5 186442. 1140.56   4
  -6   2   5 208943. 932.232   2
  -6   2   5 202589. 1873.40   7
   6  -2  -4 37278.1 744.373   6
  -6   2   4 42531.5 403.725   3
  -6   2   4 35847.5 754.303  11
  -6   2   4 36531.9 576.526   6
  -6   2   4 40486.4 731.696   1
   6  -2  -4 41572.0 643.859   9
   6  -2  -4 33910.6 588.825   4
  -6   2   4 41243.4 334.467   3
  -6   2   4 38952.5 331.562   2
  -6   2   4 44562.7 940.760   7
   6  -2  -3 104192. 1378.23   6
  -6   2   3 98644.0 1146.37  11
  -6   2   3 111208. 1194.48   6
   6  -2  -3 110538. 1017.91   9
  -6   2   3 111491. 1161.76   1
   6  -2  -3 98905.3 1054.26   4
  -6   2   3 104290. 1357.67   7
   6  -2  -2 60522.1 1135.40   6
  -6   2   2 55511.8 839.149  11
  -6   2   2 63068.1 1010.12   6
   6  -2  -2 60281.8 745.840   9
  -6   2   2 63502.9 875.964   1
   6  -2  -2 54450.6 856.460   4
  -6   2   2 61238.4 1147.56   7
  -6   2   1 20826.2 533.059  11
  -6   2   1 23555.7 723.264   6
   6  -2  -1 24405.0 494.258   9
  -6   2   1 25209.1 562.480   1
   6  -2  -1 19557.6 592.769   4
  -6   2   1 22252.1 759.375   7
  -6   2   0 78353.0 922.182  11
  -6   2   0 86559.9 1377.74   6
   6  -2   0 84398.0 886.701   9
   6  -2   0 81865.4 1182.20   4
  -6   2   0 89126.3 1003.69   1
  -6   2   0 82446.3 1387.82   7
  -6   2  -1 6043.49 326.894  11
  -6   2  -1 6735.11 550.752   6
   6  -2   1 7108.91 161.843  10
   6  -2   1 7326.98 313.930   9
   6  -2   1 6463.90 447.075   4
  -6   2  -1 7185.45 321.771   1
  -6   2  -1 6345.86 536.302   7
  -6   2  -2 73977.6 950.167  11
  -6   2  -2 82204.0 1530.85   6
   6  -2   2 81734.4 954.727   9
   6  -2   2 78851.7 1292.83   4
  -6   2  -2 80753.5 898.345   1
   6  -2   2 70341.2 495.212   3
  -6   2  -2 69887.7 1423.03   7
  -6   2  -3 1300.95 232.114  11
   6  -2   3 1334.84 229.067   9
  -6   2  -3 1454.15 508.898   6
   6  -2   3 1764.81 379.004   4
  -6   2  -3 1391.75 209.128   1
  -6   2  -3 1087.62 504.135   7
  -6   2  -4 139976. 1171.74   1
  -6   2  -4 131532. 2086.10   6
   6  -2   4 134521. 1327.03   9
   6  -2   4 140024. 1827.55   4
  -6   2  -5 354.039 267.032  11
  -6   2  -5 611.543 192.792   1
  -6   2  -5 62.4771 564.467   6
   6  -2   5 411.835 238.033   9
   6  -2   5 330.146 367.156   4
  -6   2  -6 145377. 2441.55   6
  -6   2  -6 138314. 1161.74   1
   6  -2   6 142219. 1925.46   4
  -6   2  -7 8626.67 446.671  11
  -6   2  -7 11474.1 969.830   6
   6  -2   7 10405.8 487.009   9
  -6   2  -7 10453.5 372.732   1
   6  -2   7 10514.0 657.260   4
  -6   2  -8 91580.2 2143.41   6
   6  -2   8 89658.9 1642.61   4
  -6   2  -9 25777.1 764.747  11
  -6   2  -9 29449.6 1406.20   6
   6  -2   9 25873.5 777.412   9
   6  -2   9 30511.6 1073.00   4
  -6   1  13 55352.6 979.204   2
  -6   1  13 51770.3 1274.59   7
  -6   1  12 173.368 227.779   2
  -6   1  12-83.6978 242.351   1
  -6   1  12-259.813 272.976   8
  -6   1  12 689.142 419.399   7
  -6   1  11 108552. 1207.20   1
  -6   1  11 105133. 1165.37   2
  -6   1  11 106197. 1611.24   7
  -6   1  10 22337.1 565.099   1
  -6   1  10 22903.7 551.450   2
  -6   1  10 21176.6 743.519   7
  -6   1   9 168021. 1449.37   1
  -6   1   9 170602. 1308.48   2
  -6   1   8 73678.3 954.596   1
  -6   1   8 71263.8 998.919   8
  -6   1   8 73663.4 815.877   2
  -6   1   7 194545. 1529.18   1
  -6   1   7 198460. 1623.30   8
  -6   1   7 193217. 1197.73   2
  -6   1   7 200553. 1874.61   7
  -6   1   6 139899. 941.688   3
  -6   1   6 115062. 1298.93  11
   6  -1  -6 123068. 1184.19   9
  -6   1   6 128157. 888.043   2
  -6   1   6 130032. 1231.55   1
  -6   1   6 132818. 1476.00   7
  -6   1   5 56777.1 501.734   3
  -6   1   5 43936.0 789.987  11
   6  -1  -5 49572.1 744.599   9
  -6   1   5 49798.3 494.226   2
  -6   1   5 51453.1 774.741   1
  -6   1   5 49110.8 933.255   7
   6  -1  -4 63843.0 884.971   6
  -6   1   4 52996.3 813.678  11
  -6   1   4 55329.2 633.433   6
   6  -1  -4 63786.9 836.960   9
  -6   1   4 60471.8 458.663   2
  -6   1   4 60291.2 828.446   1
   6  -1  -4 56093.7 622.408   4
  -6   1   4 56908.0 963.781   7
   6  -1  -3 12907.2 514.347   6
  -6   1   3 12111.9 427.005   6
   6  -1  -3 13325.0 402.225   9
  -6   1   3 12692.0 407.797   1
   6  -1  -3 11989.1 346.390   4
  -6   1   3 12668.8 533.896   7
   6  -1  -2 124458. 1451.82   6
  -6   1   2 115260. 1124.54  11
  -6   1   2 120585. 1317.22   6
   6  -1  -2 122407. 1098.63   9
   6  -1  -2 117369. 1117.19   4
  -6   1   2 124020. 1114.83   1
  -6   1   2 116309. 1514.41   7
  -6   1   1 66.7450 189.274  11
  -6   1   1 27.4587 293.671   6
   6  -1  -1 364.225 175.027   9
   6  -1  -1-91.1100 193.609   4
  -6   1   1 68.0902 300.619   7
  -6   1   1 284.602 176.930   1
  -6   1   0 123126. 1106.64  11
  -6   1   0 130692. 1583.59   6
   6  -1   0 136294. 1166.77   9
   6  -1   0 124214. 1283.48   4
  -6   1   0 138056. 1140.34   1
  -6   1   0 121579. 1644.48   7
  -6   1  -1 12649.5 413.552  11
  -6   1  -1 14651.4 670.442   6
   6  -1   1 13804.1 422.921   9
   6  -1   1 12738.3 494.795   4
  -6   1  -1 14385.4 399.772   1
  -6   1  -1 12676.1 646.621   7
  -6   1  -2 156142. 1333.91  11
  -6   1  -2 162345. 2027.59   6
   6  -1   2 169105. 906.515  10
   6  -1   2 164159. 1364.01   9
   6  -1   2 161259. 1634.72   4
  -6   1  -2 156008. 2277.81   7
  -6   1  -2 168163. 1249.97   1
  -6   1  -3 30361.4 573.687   1
  -6   1  -3 28344.9 984.278   6
   6  -1   3 29133.6 439.881  10
   6  -1   3 30034.9 647.622   9
   6  -1   3 29015.2 784.727   4
  -6   1  -4 224218. 1480.65   1
  -6   1  -4 198515. 1655.84  11
  -6   1  -4 208215. 2516.82   6
   6  -1   4 209868. 1660.39   9
   6  -1   4 215108. 2057.03   4
   6  -1   4 228445. 945.531   2
  -6   1  -5 71592.8 1600.34   6
  -6   1  -5 72000.2 843.658   1
   6  -1   5 72457.6 1050.31   9
   6  -1   5 72109.1 1257.21   4
  -6   1  -6 52041.1 1473.32   6
  -6   1  -6 51517.2 741.299   1
   6  -1   6 52028.5 1125.95   4
   6  -1   6 54546.0 588.941   2
  -6   1  -7 48614.3 929.778  11
  -6   1  -7 61485.5 1639.93   6
   6  -1   7 55528.1 983.456   9
  -6   1  -7 51198.8 736.533   1
   6  -1   7 65809.3 1333.82   4
  -6   1  -8 13577.8 1017.66   6
   6  -1   8 11205.5 535.403   9
   6  -1   8 12394.4 701.159   4
  -6   1  -9 53293.7 1750.29   6
   6  -1   9 49867.4 1013.27   9
  -6   0  13 54894.7 1018.81   8
  -6   0  13 53401.2 1211.70   7
  -6   0  12 50873.9 957.662   8
  -6   0  12 53146.9 777.261   1
  -6   0  12 53649.9 1186.07   7
  -6   0  11 73518.0 1033.09   2
  -6   0  11 70671.6 1094.09   8
  -6   0  11 71937.9 898.370   1
  -6   0  10 142499. 1353.40   2
  -6   0  10 134541. 1443.31   8
  -6   0  10 139849. 1242.88   1
  -6   0  10 131788. 1624.60   7
  -6   0   9 92527.1 1028.92   2
  -6   0   9 93510.1 1018.06   1
  -6   0   9 90670.7 1283.21   7
  -6   0   8 89510.9 966.384   2
  -6   0   8 88849.7 1175.21   8
  -6   0   8 87498.5 975.600   1
  -6   0   7 12811.0 356.683   2
  -6   0   7 11928.0 420.924   8
  -6   0   7 12775.0 397.663   1
  -6   0   7 13563.7 522.633   7
  -6   0   6 111878. 1180.21  11
  -6   0   6 119452. 959.707   2
   6   0  -6 113687. 1186.88   9
  -6   0   6 114522. 1051.63   1
  -6   0   6 109712. 1268.46   7
  -6   0   6 120062. 849.220   3
  -6   0   5-84.8030 121.576   2
  -6   0   5 125.359 190.336  11
  -6   0   5 170.438 105.001   3
   6   0  -5 209.190 157.201   6
   6   0  -5 169.959 161.792   6
   6   0  -5 126.228 189.660   9
  -6   0   5 59.1252 165.074   1
  -6   0   5 195.883 208.933   7
  -6   0   4 86274.0 452.706  10
  -6   0   4 88896.4 790.232   6
   6   0  -4 88363.3 998.485   9
  -6   0   4 88410.5 983.347  11
  -6   0   4 88035.2 911.821   1
  -6   0   4 85193.0 1164.27   7
  -6   0   3 18437.0 256.368   2
   6   0  -3 18180.3 570.433   6
  -6   0   3 17074.4 439.756  11
  -6   0   3 16785.4 445.291   6
   6   0  -3 17915.2 471.376   9
  -6   0   3 16879.4 419.316   1
   6   0  -2 141990. 1542.45   6
  -6   0   2 142264. 1168.05  11
  -6   0   2 142275. 1400.05   6
   6   0  -2 141572. 1229.44   9
   6   0  -2 132132. 1031.22   4
  -6   0   2 133497. 1117.75   1
  -6   0   2 135692. 1576.66   7
  -6   0   2 140979. 553.190   2
  -6   0   1 70784.8 811.823  11
  -6   0   1 72070.8 1088.95   6
   6   0  -1 71604.6 866.344   4
  -6   0   1 72395.5 1189.20   7
  -6   0   1 74813.2 829.408   1
  -6   0   0 149690. 1202.77  11
  -6   0   0 152266. 1694.15   6
   6   0   0 162464. 1333.39   9
   6   0   0 148822. 1302.55   4
  -6   0   0 150510. 1795.74   7
  -6   0   0 158111. 1191.77   1
   6   0   1 91703.9 469.717   3
  -6   0  -1 87590.4 925.306   1
  -6   0  -1 82189.0 936.675  11
  -6   0  -1 78292.0 1306.45   6
   6   0   1 81406.7 986.787   9
  -6   0  -1 74401.3 511.429   2
   6   0   1 76971.7 1029.63   4
  -6   0  -1 77616.4 1587.15   7
  -6   0  -2 83930.4 960.419  11
  -6   0  -2 83228.3 1440.46   6
   6   0   2 85050.8 1028.16   9
  -6   0  -2 84262.2 638.506   2
   6   0   2 83362.4 1124.45   4
  -6   0  -3 108181. 1134.01  11
  -6   0  -3 118631. 1072.06   1
  -6   0  -3 110849. 1748.05   6
   6   0   3 115919. 887.613  10
   6   0   3 115691. 1219.48   9
   6   0   3 112764. 1370.99   4
   6   0   4 46711.4 505.401   2
  -6   0  -4 38452.6 744.290  11
  -6   0  -4 42613.3 1192.61   6
   6   0   4 42020.7 583.940  10
   6   0   4 45420.8 832.212   9
  -6   0  -4 41262.3 640.437   1
   6   0   4 42154.2 881.110   4
  -6   0  -5 113310. 1956.58   6
   6   0   5 110349. 1014.74  10
   6   0   5 104800. 1249.39   9
  -6   0  -5 104066. 1032.65   1
   6   0   5 115473. 1507.39   4
   6   0   5 112202. 816.738   2
   6   0   6 343.245 154.737   2
  -6   0  -6 94.0362 267.488  11
   6   0   6 204.274 196.807  10
  -6   0  -6 703.092 542.819   6
   6   0   6 51.7857 261.768   9
   6   0   6 44.2137 306.397   4
  -6   0  -6 100.863 192.050   1
  -6   0  -7 60901.2 1061.15  11
  -6   0  -7 75721.8 1791.31   6
   6   0   7 67753.6 1138.38   9
   6   0   7 77009.6 1328.23   4
   6   0   7 74610.7 790.372   2
  -6   0  -7 60721.1 835.829   1
  -6   0  -8 430.956 325.377  11
  -6   0  -8 791.618 259.761   1
  -6   0  -8 1055.80 645.352   6
   6   0   8 929.875 335.531   9
   6   0   8 938.729 358.362   4
  -6   0  -9 35154.0 1464.15   6
   6   0   9 37976.0 1018.47   4
  -6  -1  13 28086.6 791.235   8
  -6  -1  13 26330.6 849.345   7
  -6  -1  12 96045.3 1312.69   8
  -6  -1  12 92334.1 1438.13   7
  -6  -1  11 11688.6 479.550   2
  -6  -1  11 10649.7 512.280   8
  -6  -1  11 11360.0 549.935   7
  -6  -1  11 10979.0 350.974   1
  -6  -1  10 129790. 1414.46   8
  -6  -1  10 126776. 1480.35   7
  -6  -1   9 5485.91 348.239  11
  -6  -1   9 6914.88 357.446   2
  -6  -1   9 6180.00 379.302   8
  -6  -1   9 5703.59 381.971   7
  -6  -1   9 5994.79 282.319   1
  -6  -1   8 98477.6 1081.35  11
  -6  -1   8 103710. 1125.67   2
  -6  -1   8 95517.4 1230.25   8
  -6  -1   8 100637. 1229.44   7
  -6  -1   8 92577.1 908.170   1
  -6  -1   7 9521.11 362.980  11
  -6  -1   7 10326.7 355.522   2
   6   1  -7 9546.62 411.850   9
  -6  -1   7 10092.0 413.772   8
  -6  -1   7 8954.70 396.644   7
  -6  -1   7 9607.30 334.342   1
   6   1  -6 63161.1 747.640   6
  -6  -1   6 60576.1 772.469  11
   6   1  -6 61626.3 694.629   6
   6   1  -6 56277.7 871.985   9
  -6  -1   6 54457.3 826.609   7
  -6  -1   6 59581.4 741.824   1
  -6  -1   6 55130.2 604.792   3
  -6  -1   5 27065.2 514.951  11
   6   1  -5 26875.1 595.168   6
   6   1  -5 26305.4 615.533   9
  -6  -1   5 26964.9 357.000   3
  -6  -1   5 25701.3 621.200   7
   6   1  -5 27381.8 620.754   6
  -6  -1   4 74857.2 787.171  11
   6   1  -4 80049.0 1046.33   6
   6   1  -4 78544.2 1012.16   9
  -6  -1   4 74447.8 1050.92   7
  -6  -1   4 75551.8 814.125   1
  -6  -1   3 90873.0 632.590   2
  -6  -1   3 94120.3 898.139  11
   6   1  -3 83862.3 1127.82   6
  -6  -1   3 95180.4 640.509  10
  -6  -1   3 81215.9 924.844   6
   6   1  -3 90464.2 1059.97   9
  -6  -1   3 82487.5 1091.88   4
  -6  -1   3 93991.7 1195.13   7
  -6  -1   3 87951.5 878.391   1
  -6  -1   2 80177.6 847.697   1
  -6  -1   2 83059.2 861.482  11
  -6  -1   2 78347.6 1038.26   6
   6   1  -2 76515.2 956.992   9
  -6  -1   2 87245.2 1214.36   7
  -6  -1   2 84272.3 577.053   2
  -6  -1   1 229877. 1468.16   1
  -6  -1   1 215451. 1362.18  11
  -6  -1   1 201781. 1768.48   6
   6   1  -1 210973. 1559.51   9
  -6  -1   1 215476. 914.433   2
  -6  -1   1 230197. 2136.08   7
   6   1  -1 196534. 570.782   3
  -6  -1   0 85245.1 912.924   1
  -6  -1   0 84417.0 890.128  11
  -6  -1   0 81215.4 1273.60   6
   6   1   0 85892.0 1030.91   9
  -6  -1   0 83117.8 604.319   2
   6   1   0 87575.8 497.285   3
   6   1   1 148907. 843.010   3
  -6  -1  -1 154518. 1289.05  11
  -6  -1  -1 150449. 1191.54   1
  -6  -1  -1 150071. 1813.97   6
   6   1   1 143379. 1296.39   9
  -6  -1  -1 144036. 857.465   2
   6   1   2 16594.9 345.561   3
  -6  -1  -2 16417.7 464.740  11
  -6  -1  -2 17459.7 730.928   6
  -6  -1  -2 16509.2 420.085   1
   6   1   2 17168.3 514.032   9
   6   1   3 187495. 1008.66   2
  -6  -1  -3 174854. 1441.60  11
  -6  -1  -3 177255. 2149.38   6
   6   1   3 183583. 1589.52   9
  -6  -1  -3 187343. 1384.10   1
   6   1   4 4923.75 220.283   2
  -6  -1  -4 3682.84 314.665  11
   6   1   4 4046.82 250.582  10
  -6  -1  -4 4322.12 566.744   6
   6   1   4 3719.52 327.603   9
  -6  -1  -4 4400.09 285.148   1
   6   1   5 72390.1 735.032   2
  -6  -1  -5 65352.7 1004.79  11
   6   1   5 68008.4 819.576  10
  -6  -1  -5 70042.6 1532.34   6
   6   1   5 68944.0 1055.93   9
  -6  -1  -5 71810.9 951.597   1
  -6  -1  -6 18646.5 610.747  11
   6   1   6 20355.2 497.498  10
  -6  -1  -6 20765.3 974.555   6
   6   1   6 19919.4 652.293   9
  -6  -1  -6 18176.4 504.949   1
   6   1   6 20599.6 424.513   2
  -6  -1  -7 26009.4 640.103   1
  -6  -1  -7 25975.4 758.148  11
   6   1   7 27810.5 615.878  10
  -6  -1  -7 28634.9 1173.06   6
   6   1   7 27543.1 736.185   9
   6   1   7 30019.1 540.340   2
  -6  -1  -8 25879.8 776.304  11
   6   1   8 28063.5 651.067  10
  -6  -1  -8 28728.9 1244.42   6
   6   1   8 25169.8 749.665   9
  -6  -1  -8 23738.5 642.693   1
   6   1   8 25963.2 523.324   2
  -6  -2  13 1577.63 339.416   2
  -6  -2  13 1407.58 334.848   8
  -6  -2  12 116185. 1502.95   2
  -6  -2  12 108059. 1464.21   8
  -6  -2  11 2379.35 203.691   1
  -6  -2  11 2904.59 325.821   2
  -6  -2  11 2615.21 357.778   8
  -6  -2  11 2641.46 327.440   7
  -6  -2  10 57323.5 699.724   1
  -6  -2  10 59596.7 805.628  11
  -6  -2  10 63340.6 1053.58   2
  -6  -2  10 56139.1 971.933   8
  -6  -2  10 51251.1 892.665   7
  -6  -2   9 14911.7 379.986   1
  -6  -2   9 16162.3 426.183  11
   6   2  -9 15994.6 486.243   3
  -6  -2   9 13697.3 546.667   8
  -6  -2   9 14284.0 492.516   7
  -6  -2   8 46935.3 636.563   1
  -6  -2   8 48522.1 656.490  11
   6   2  -8 48935.3 726.897   3
  -6  -2   7 54892.6 681.308   1
   6   2  -7 54089.4 901.485   6
  -6  -2   7 57964.7 689.545  11
   6   2  -7 59433.6 747.803   3
   6   2  -7 55193.4 937.662   9
  -6  -2   7 54442.4 875.754   8
  -6  -2   7 54073.7 764.173   7
  -6  -2   6 37785.0 563.840   1
  -6  -2   6 39641.5 543.094  11
   6   2  -6 41668.6 566.636   3
   6   2  -6 38668.6 727.244   6
   6   2  -6 40303.2 785.041   9
  -6  -2   6 39408.7 670.797   4
  -6  -2   6 42511.7 717.577   7
  -6  -2   6 36734.1 536.218   3
   6   2  -6 44409.8 896.922   6
  -6  -2   5 166761. 1217.90   1
   6   2  -5 157621. 975.950   3
  -6  -2   5 176089. 1140.84  11
   6   2  -5 165440. 1527.37   6
   6   2  -5 165407. 1546.17   9
  -6  -2   5 156379. 1376.84   4
  -6  -2   5 167038. 961.432   3
  -6  -2   5 186606. 1496.07   7
   6   2  -5 169905. 1744.03   6
   6   2  -4 44165.6 497.473   3
  -6  -2   4 42235.0 609.350   1
  -6  -2   4 46285.6 603.106  11
   6   2  -4 44803.4 905.944   6
   6   2  -4 45368.9 809.299   9
   6   2  -4 42308.5 606.651   7
   6   2  -4 45499.7 1020.15   6
   6   2  -3 296773. 1199.35   3
  -6  -2   3 292852. 1351.15   2
  -6  -2   3 283754. 1608.75   1
  -6  -2   3 295321. 1469.08  11
  -6  -2   3 284233. 1325.67  10
  -6  -2   3 270762. 1711.60   6
   6   2  -3 291614. 1978.00   9
   6   2  -3 293305. 1632.53   7
  -6  -2   3 317958. 2121.83   7
  -6  -2   2 21690.9 440.938  11
  -6  -2   2 20734.4 456.314   1
  -6  -2   2 20444.5 576.461   6
   6   2  -2 20949.5 553.835   9
   6   2  -2 20843.7 500.830   7
  -6  -2   2 20448.8 352.219   2
  -6  -2   1 237679. 1470.63   1
  -6  -2   1 225928. 1908.74   6
   6   2  -1 227535. 1716.30   9
  -6  -2   1 226886. 1119.88   2
   6   2  -1 236359. 1072.57   3
  -6  -2   0 7454.07 328.988  11
  -6  -2   0 7708.32 478.967   6
  -6  -2   0 6717.86 303.831   1
   6   2   0 6488.35 349.612   9
   6   2   0 7692.70 225.004   3
  -6  -2  -1 132436. 1177.16  11
  -6  -2  -1 128535. 1607.56   6
   6   2   1 139295. 1350.14   9
  -6  -2  -1 139172. 1203.65   1
   6   2   1 142367. 851.909   3
  -6  -2  -2 27553.2 599.757  11
  -6  -2  -2 25504.3 813.152   6
  -6  -2  -2 26895.6 558.945   1
   6   2   3 73971.5 744.518   2
  -6  -2  -3 63330.2 907.866  11
  -6  -2  -3 71134.2 1393.93   6
   6   2   3 72087.6 1038.43   9
  -6  -2  -3 64864.8 829.697   1
  -6  -2  -4 71174.9 1037.18  11
  -6  -2  -4 72560.3 1451.16   6
   6   2   4 67945.9 1032.04   9
  -6  -2  -4 69314.0 935.337   1
   6   2   5 21169.0 460.223   2
  -6  -2  -5 19972.5 551.604   1
  -6  -2  -5 19424.0 873.343   6
   6   2   5 19579.9 606.790   9
  -6  -2  -5 19493.8 602.332  11
   6   2   6 41733.9 639.301   2
  -6  -2  -6 38219.8 858.798  11
  -6  -2  -6 37220.1 745.459   1
  -6  -2  -6 41881.6 1256.94   6
   6   2   6 40320.0 871.779   9
   6   2   7 5376.20 307.104   2
  -6  -2  -7 4912.02 435.196  11
   6   2   7 5378.28 359.733  10
  -6  -2  -7 6296.15 724.336   6
   6   2   7 6127.35 435.970   9
  -6  -2  -7 4172.68 371.221   1
  -6  -2  -8 45200.1 1064.30  11
   6   2   8 47023.6 875.331  10
  -6  -2  -8 50583.8 1532.66   6
   6   2   8 49838.4 1050.06   9
   6   2   8 51396.5 790.322   2
  -6  -3  13 14303.0 638.660   2
  -6  -3  13 13498.2 608.107   8
   6   3 -12 47080.6 941.147   3
  -6  -3  12 42031.7 968.329   8
  -6  -3  11 34363.6 833.435   2
  -6  -3  11 33222.2 840.719   8
  -6  -3  10 22463.4 443.443   1
  -6  -3  10 22402.2 669.948   8
  -6  -3   9 66646.5 741.648   1
  -6  -3   9 66664.1 1105.42   8
   6   3  -8 4320.06 506.168   6
   6   3  -8 4126.33 293.174   3
  -6  -3   8 4206.17 211.852  11
  -6  -3   8 3834.25 234.994   1
  -6  -3   8 3866.69 360.743   8
   6   3  -7 136595. 1692.22   6
   6   3  -7 141809. 1202.57   3
  -6  -3   7 148716. 947.555  11
  -6  -3   7 127235. 1025.74   1
   6   3  -7 134236. 1492.66   9
  -6  -3   7 135623. 1378.93   8
  -6  -3   7 156124. 1121.29   7
  -6  -3   6 284.296 143.199  11
   6   3  -6 278.953 176.696   3
  -6  -3   6 539.115 167.307   1
   6   3  -6 100.414 420.456   6
   6   3  -6 45.5526 222.761   9
  -6  -3   6 401.118 166.399   7
   6   3  -5 229893. 1401.62   3
  -6  -3   5 231841. 1202.55  11
  -6  -3   5 228181. 1397.92   1
   6   3  -5 224655. 1861.64   9
   6   3  -5 225567. 2268.61   6
   6   3  -4 9900.05 319.458   3
  -6  -3   4 11407.5 302.631  11
  -6  -3   4 10834.3 355.007   1
   6   3  -4 11174.6 441.690   9
   6   3  -4 11553.2 307.963   7
   6   3  -4 11528.3 663.168   6
  -6  -3   3 227721. 1283.55  11
  -6  -3   3 209205. 1364.33   1
   6   3  -3 222818. 1774.10   9
   6   3  -3 228689. 1308.09   7
   6   3  -3 210343. 2381.51   6
  -6  -3   2 16952.0 403.748  11
  -6  -3   2 13980.1 488.425   6
   6   3  -2 15059.5 501.317   9
  -6  -3   2 15795.1 428.487   1
   6   3  -2 16279.1 426.402   7
  -6  -3   1 67369.5 775.538  11
  -6  -3   1 67661.9 1076.50   6
   6   3  -1 67364.0 980.792   9
  -6  -3   1 68647.7 840.274   1
  -6  -3   0 79441.9 894.484  11
  -6  -3   0 74096.1 1182.17   6
   6   3   0 75593.7 1025.65   9
  -6  -3   0 78716.5 936.801   1
  -6  -3  -1 48713.0 757.443  11
  -6  -3  -1 50795.7 1102.11   6
   6   3   1 48708.2 843.889   9
  -6  -3  -1 47803.2 725.955   1
  -6  -3  -2 69858.9 950.507  11
  -6  -3  -2 65551.6 1248.05   6
   6   3   2 68455.4 1005.54   9
  -6  -3  -2 66573.3 904.677   1
  -6  -3  -3 1819.28 275.620   1
   6   3   3 2321.58 231.400   2
  -6  -3  -3 2078.58 286.291  11
  -6  -3  -3 2399.14 448.496   6
   6   3   3 2262.63 288.233   9
   6   3   4 67240.9 770.288   2
  -6  -3  -4 67739.9 984.752   1
  -6  -3  -4 68802.9 1045.22  11
  -6  -3  -4 66947.7 1390.26   6
   6   3   4 70726.3 1108.20   9
   6   3   5 210.434 189.093   2
  -6  -3  -5 172.674 293.904  11
  -6  -3  -5 65.2128 483.502   6
   6   3   5 487.664 284.176   9
  -6  -3  -5 350.714 254.553   1
   6   3   6 70234.4 879.401   2
  -6  -3  -6 67392.7 1195.86  11
  -6  -3  -6 71187.0 1607.21   6
   6   3   6 65524.8 1122.58   9
  -6  -3  -6 65514.2 1099.64   1
  -6  -3  -7 415.881 300.137   1
   6   3   7 40.6103 226.375   2
  -6  -3  -7 728.992 364.929  11
  -6  -3  -7 23.7031 568.819   6
   6   3   7 48.6721 316.873   9
   6   4 -13 39525.1 986.686   3
  -6  -4  13 38221.4 1010.66   2
  -6  -4  13 37021.1 921.884   8
   6   4 -12 5205.67 443.435   3
  -6  -4  12 4666.45 464.929   8
   6   4 -11 48226.7 972.928   3
  -6  -4  11 46003.3 965.358   8
   6   4 -10 645.958 286.280   3
  -6  -4  10 685.691 174.994   1
  -6  -4  10 992.072 320.102   8
  -6  -4   9 80827.1 835.422   1
  -6  -4   9 82221.9 1251.97   8
   6   4  -8 6883.97 663.810   6
   6   4  -8 6489.38 375.592   3
  -6  -4   8 6470.66 437.224   8
  -6  -4   8 6248.28 290.038   1
   6   4  -7 193010. 2302.04   6
   6   4  -7 171343. 1408.51   3
   6   4  -7 188841. 1824.38   9
  -6  -4   7 177712. 1587.69   8
  -6  -4   7 173795. 1238.68   1
  -6  -4   6 20809.7 338.355  11
   6   4  -6 19971.1 633.256   9
   6   4  -6 21342.3 890.954   6
  -6  -4   5 132405. 860.680  11
   6   4  -5 133910. 1483.21   9
  -6  -4   5 127905. 1108.86   1
   6   4  -5 127933. 1893.31   6
  -6  -4   4 54468.6 615.180  11
   6   4  -4 51883.7 949.665   9
  -6  -4   4 53253.6 734.110   1
   6   4  -4 51856.9 1278.37   6
   6   4  -4 49833.6 728.369   3
   6   4  -3 63386.9 1023.87   9
  -6  -4   3 64029.1 821.938   1
   6   4  -3 60732.8 1459.18   6
   6   4  -3 62907.6 803.087   3
  -6  -4   2 94365.3 893.809  11
   6   4  -2 95266.1 1231.49   9
  -6  -4   2 84868.3 934.222   1
   6   4  -2 102119. 998.541   3
   6   4  -2 90061.1 1786.82   6
  -6  -4   1 4474.84 277.366  11
   6   4  -1 5406.29 355.248   9
  -6  -4   1 4579.82 311.655   1
   6   4  -1 5259.62 264.884   3
  -6  -4   0 97054.5 1014.63  11
  -6  -4   0 96419.7 1080.84   1
  -6  -4  -1 126.594 224.094   1
  -6  -4  -1-10.6817 228.801  11
   6   4   1 91.5167 185.235   3
  -6  -4  -1 295.488 343.937   6
   6   4   1 28.7618 232.558   9
  -6  -4  -2 76943.7 1048.44   1
  -6  -4  -2 78095.1 1027.94  11
  -6  -4  -2 75493.1 1365.02   6
   6   4   2 76979.2 1127.61   9
  -6  -4  -3 2458.78 346.985  11
  -6  -4  -3 2150.83 299.335   1
  -6  -4  -3 3132.96 474.563   6
   6   4   3 2556.06 345.942   9
  -6  -4  -4 54260.4 1002.36  11
  -6  -4  -4 53055.1 1254.23   6
   6   4   4 52686.2 972.958   9
  -6  -4  -4 51489.2 962.138   1
   6   4   5 7529.88 354.456   2
  -6  -4  -5 6754.20 476.945  11
  -6  -4  -5 7236.38 645.216   6
   6   4   5 7170.63 441.759   9
  -6  -4  -5 6906.92 463.006   1
   6   4   6 52716.9 834.906   2
  -6  -4  -6 51836.9 1110.54  11
  -6  -4  -6 53039.4 1465.88   6
   6   4   6 50086.9 1022.68   9
   6   5 -12 702.579 354.375   3
  -6  -5  12 278.906 373.416   8
   6   5 -11 55899.9 1053.43   3
  -6  -5  11 60165.4 1116.64   8
   6   5 -10 29824.0 764.658   3
  -6  -5  10 27947.2 546.549   1
   6   5  -9 81229.9 1681.31   6
   6   5  -9 80200.6 1143.68   3
  -6  -5   9 83416.9 887.033   1
   6   5  -8 56359.5 1454.82   6
  -6  -5   8 54877.9 1021.51   8
  -6  -5   8 54843.4 740.013   1
   6   5  -7 83285.9 1724.65   6
   6   5  -7 83961.5 1272.38   9
  -6  -5   7 81688.7 1186.83   8
  -6  -5   7 80068.3 896.964   1
   6   5  -6 131786. 2107.39   6
   6   5  -6 122599. 1281.05   3
   6   5  -6 130071. 1510.09   9
  -6  -5   6 123844. 1129.67   1
   6   5  -5 13685.7 472.840   3
   6   5  -5 13739.8 538.297   9
  -6  -5   5 13224.9 431.239   1
  -6  -5   4 96995.0 810.563  11
   6   5  -4 104881. 1347.97   9
  -6  -5   4 93797.7 1021.99   1
   6   5  -4 102677. 1116.26   3
   6   5  -4 96175.5 1845.94   6
  -6  -5   3-97.6413 210.397   1
  -6  -5   3 39.4183 154.820  11
   6   5  -3-31.9266 245.585   3
   6   5  -3 11.5182 521.786   6
   6   5  -3-84.5158 236.183   9
  -6  -5   2 77669.5 1000.96   1
  -6  -5   2 76417.6 833.819  11
   6   5  -2 79758.4 1179.63   9
   6   5  -2 77358.1 1777.65   6
  -6  -5   1 3262.43 316.940   1
  -6  -5   1 3370.06 280.706  11
   6   5  -1 3765.27 360.421   9
   6   5  -1 3388.18 266.061   3
   6   5  -1 3639.66 701.869   6
  -6  -5   0 54214.3 832.319  11
   6   5   0 54979.4 994.384   9
  -6  -5  -1 23841.8 609.407  11
   6   5   1 25021.0 699.369   9
  -6  -5  -2 51384.7 890.174  11
   6   5   2 53231.2 998.260   9
  -6  -5  -2 53254.9 978.431   1
   6   5   2 55362.8 780.077   3
  -6  -5  -3 25590.7 697.679  11
   6   5   3 25598.8 730.578   9
  -6  -5  -3 23784.9 698.105   1
   6   5   3 26120.9 567.728   3
  -6  -5  -4 54492.5 1058.54  11
   6   5   4 53474.2 1047.42   9
  -6  -5  -4 52411.5 1035.09   1
  -6  -5  -5 40723.7 1012.73   1
   6   5   5 41861.3 796.214   2
   6   5   5 38994.9 962.280   9
  -6  -5  -5 41098.2 1191.55   6
   6   6 -11 18710.6 709.007   3
  -6  -6  11 23388.4 754.388   8
   6   6 -10 72451.3 1219.47   3
  -6  -6  10 86332.1 1265.41   8
   6   6  -9 17638.0 1052.38   6
   6   6  -9 17468.9 633.576   3
  -6  -6   9 18733.0 487.371   1
  -6  -6   9 20064.7 655.035   8
   6   6  -8 82544.9 1855.00   6
   6   6  -8 83680.4 1216.64   3
  -6  -6   8 86507.3 1029.43   1
  -6  -6   8 87138.5 1328.61   8
   6   6  -7 369.764 290.100   3
   6   6  -7 200.681 638.938   6
  -6  -6   7 434.563 246.641   1
   6   6  -7 303.850 287.168   9
  -6  -6   7-71.8750 317.220   8
   6   6  -6 73197.9 1755.64   6
  -6  -6   6 76000.9 1002.12   1
   6   6  -6 77954.5 1262.90   9
  -6  -6   6 75096.4 1071.41   8
  -6  -6   5 5236.23 338.056   1
   6   6  -5 4906.05 359.924   3
   6   6  -5 4388.68 692.367   6
  -6  -6   4 40224.7 740.187   1
   6   6  -4 38103.4 1326.23   6
   6   6  -3 22959.9 712.625   9
   6   6  -3 23859.7 638.678   3
   6   6  -3 21635.8 1088.86   6
  -6  -6   2 37638.8 639.607  11
  -6  -6   2 36953.2 795.946   1
   6   6  -2 40421.4 893.659   9
   6   6  -2 41661.1 761.952   3
   6   6  -2 35508.5 1311.92   6
  -6  -6   1 39933.7 701.403  11
  -6  -6   1 40112.6 837.016   1
   6   6  -1 41647.3 711.623   3
   6   6   0 33789.0 844.291   9
  -6  -6   0 33048.8 814.814   1
   6   6   0 31519.1 1404.18   6
   6   6   1 46792.0 974.481   9
  -6  -6  -1 43660.9 916.743   1
   6   6   1 46017.6 760.389   3
   6   6   1 42897.8 1666.10   6
   6   6   2 13896.9 592.285   9
   6   6   2 15808.7 501.650   3
  -6  -6  -2 14035.7 620.223   1
   6   6   2 13889.0 1189.26   6
  -6  -6  -3 62313.6 1218.95   1
   6   6   3 64170.4 935.076   3
   6   7  -9 793.378 382.816   3
   6   7  -9 106.253 760.397   6
  -6  -7   9 650.320 313.269   8
  -6  -7   9 127.668 251.571   1
   6   7  -8 57920.5 1761.59   6
  -6  -7   8 61447.8 917.269   1
   6   7  -7 19534.9 670.956   3
  -6  -7   7 18029.0 667.845   8
   6   7  -6 32254.9 800.360   3
   6   7  -6 27191.9 1287.71   6
   6   7  -6 30598.5 841.163   9
  -6  -7   6 28727.6 787.332   8
  -6  -7   6 25753.2 648.276   1
   6   7  -5 17272.1 1091.35   6
   6   7  -5 18187.7 656.951   9
  -6  -7   5 18606.8 605.685   8
  -6  -7   5 17078.5 566.729   1
   6   7  -4 9028.24 517.764   9
  -6  -7   4 6686.06 413.527   1
   6   7  -4 8128.39 472.801   3
   6   7  -4 7291.45 886.601   6
   6   7  -3 42654.0 977.835   9
  -6  -7   3 37135.9 823.925   1
   6   7  -3 43794.8 896.158   3
   6   7  -3 34822.8 1442.72   6
   6   7  -2 14355.1 601.423   9
  -6  -7   2 11192.3 525.809   1
   6   7  -2 14193.1 538.381   3
   6   7  -2 11656.4 1031.57   6
   6   7  -1 75517.4 1282.09   9
   6   7  -1 76369.2 1064.55   3
  -6  -7   1 66483.1 1165.42   1
   6   7  -1 62795.2 1900.45   6
  -6  -7   0 3650.16 436.131   1
   6   7   0 2593.49 861.584   6
   6   7   0 3946.92 403.855   9
   6   7   0 3404.34 369.802   3
  -6  -7  -1 56302.5 1208.05   1
   6   7   1 58704.1 1136.67   9
   6   7   1 59542.4 967.234   3
   6   8  -5 36972.6 1613.31   6
  -6  -8   5 41873.2 978.813   1
   6   8  -5 42839.1 1015.26   9
  -6  -8   5 38705.0 916.684   8
   6   8  -5 46151.2 987.733   3
   6   8  -4 1318.34 372.293   3
   6   8  -4 623.838 810.924   6
   6   8  -4 1293.23 353.255   9
  -6  -8   4 894.071 400.010   1
  -6  -8   4 705.585 287.386   8
  -7   7   4 10132.5 641.050  11
  -7   7   4 8737.91 643.052   1
  -7   7   4 9560.25 848.238   5
  -7   7   4 9527.43 676.198   7
  -7   7   3 51571.2 1225.89   1
  -7   7   3 51711.5 1538.55   5
  -7   7   3 53756.2 1373.77   7
  -7   7   2 22467.2 748.952  11
  -7   7   2 23344.6 829.459   1
  -7   7   2 23271.6 1157.16   5
  -7   7   2 24564.9 985.387   7
  -7   7   1 10273.0 597.710  11
  -7   7   1 8223.74 583.158   1
  -7   7   1 9503.60 729.685   7
  -7   7   0 18978.1 711.957  11
  -7   7   0 18993.2 718.626   1
  -7   7   0 20771.4 971.045   7
  -7   7  -1 3299.94 397.885  11
  -7   7  -1 3029.25 428.460   1
  -7   7  -1 2234.62 866.392   6
  -7   7  -1 3134.85 670.327   7
  -7   7  -2 38489.0 845.542  11
  -7   7  -2 39481.4 929.268   1
  -7   7  -2 39363.7 1308.53   7
  -7   7  -3 354.384 313.963  11
  -7   7  -3 9.33447 803.491   6
  -7   7  -3-49.7263 300.054   1
  -7   7  -3 230.811 566.730   7
  -7   6   7 58045.9 1308.33   1
  -7   6   7 57600.5 1588.86   5
  -7   6   7 60318.2 1397.18   7
  -7   6   6 31144.3 942.601   1
  -7   6   6 29756.5 1202.05   5
  -7   6   6 32500.3 1097.24   7
  -7   6   5 28782.1 939.681  11
  -7   6   5 26447.3 911.566   1
  -7   6   5 28702.4 1196.15   5
  -7   6   4 32389.3 972.099  11
  -7   6   4 31329.0 945.825   1
  -7   6   4 30781.6 1209.72   5
  -7   6   4 32779.8 1019.25   7
  -7   6   3 5400.76 497.179  11
  -7   6   3 5671.71 498.600   1
  -7   6   3 5329.20 545.917   7
  -7   6   2 37041.0 914.557  11
  -7   6   2 35930.6 950.076   1
  -7   6   2 36310.0 1104.78   7
  -7   6   1 1459.00 377.577  11
  -7   6   1 2370.72 391.271   1
  -7   6   1 2172.80 702.687   6
  -7   6   1 1543.49 507.168   7
  -7   6   0 51334.3 998.445  11
  -7   6   0 53535.4 1421.43   7
  -7   6  -1 548.808 299.791  11
  -7   6  -1 885.644 713.437   6
  -7   6  -1 515.167 295.078   1
  -7   6  -1-115.089 485.758   7
  -7   6  -2 66780.8 1051.99  11
  -7   6  -2 64317.6 1093.11   1
  -7   6  -2 66789.3 1616.75   7
  -7   6  -3 11688.8 1137.62   6
  -7   6  -3 14177.2 561.435  11
  -7   6  -3 14772.5 569.552   1
   7  -6   3 11568.5 900.099   4
  -7   6  -3 15890.1 947.238   7
  -7   6  -4 69378.2 2088.87   6
  -7   6  -4 82749.5 1190.68  11
   7  -6   4 67404.1 1799.42   4
  -7   6  -4 80815.3 1164.86   1
  -7   6  -4 79834.1 1852.28   7
  -7   6  -5 13965.3 1367.60   6
  -7   6  -5 15876.8 605.359  11
  -7   6  -5 14510.1 519.710   1
  -7   6  -5 14462.5 1055.82   7
  -7   5   8 62671.1 1257.95   1
  -7   5   8 65361.0 1469.74   7
  -7   5   7 15367.0 685.349   1
  -7   5   7 17502.4 951.679   5
  -7   5   7 15159.0 738.349   7
  -7   5   6 58401.7 1218.94   1
  -7   5   6 62215.1 1591.77   5
  -7   5   6 59283.4 1297.32   7
  -7   5   5 4595.22 460.224  11
  -7   5   5 4415.34 448.690   1
  -7   5   5 4138.71 624.792   5
  -7   5   5 6007.38 565.232   7
  -7   5   4 51868.0 1085.40  11
  -7   5   4 51743.7 1082.06   1
  -7   5   3 5610.11 454.473  11
  -7   5   3 5620.35 438.030   1
  -7   5   3 5569.40 527.822   7
  -7   5   2 62407.8 1078.99  11
  -7   5   2 59933.1 1434.08   6
  -7   5   2 60182.3 1094.80   1
  -7   5   2 62444.5 1401.61   7
  -7   5   1 9877.85 496.474  11
  -7   5   1 9531.76 815.292   6
  -7   5   1 9130.20 479.988   1
  -7   5   1 10793.2 708.255   7
  -7   5   0 66225.1 1078.58  11
  -7   5   0 70407.5 1727.68   6
  -7   5   0 68033.7 1124.60   1
  -7   5   0 70954.8 1548.91   7
  -7   5  -1 48327.2 897.040  11
  -7   5  -1 49207.4 1516.84   6
  -7   5  -1 47272.8 909.618   1
  -7   5  -1 47159.7 1322.88   7
  -7   5  -2 88373.9 1199.02  11
  -7   5  -2 83948.3 2011.84   6
   7  -5   2 77939.9 950.142   9
  -7   5  -2 82800.4 1185.47   1
   7  -5   2 75224.0 1656.72   4
  -7   5  -2 85669.0 1793.50   7
  -7   5  -3 67270.4 1002.37  11
  -7   5  -3 67139.4 1892.86   6
   7  -5   3 63871.4 909.677   9
  -7   5  -3 70099.0 1072.19   1
  -7   5  -3 73609.3 1731.84   7
  -7   5  -4 34734.2 1506.55   6
   7  -5   4 34378.8 716.718   9
   7  -5   4 34410.8 1230.58   4
  -7   5  -4 37145.2 734.042   1
  -7   5  -4 38249.5 1350.85   7
  -7   5  -5 48229.1 907.518  11
  -7   5  -5 43408.7 1633.27   6
   7  -5   5 42541.9 845.011   9
   7  -5   5 42847.0 1415.12   4
  -7   5  -5 45124.9 783.874   1
  -7   5  -5 46778.8 1764.46   7
  -7   5  -6 7958.63 447.381  11
  -7   5  -6 6881.40 1022.40   6
   7  -5   6 6802.38 411.004   9
   7  -5   6 6233.50 750.169   4
  -7   4  10 71297.1 1308.76   1
  -7   4  10 69293.5 1504.76   7
  -7   4   9 3672.29 442.194   1
  -7   4   9 4228.89 537.200   7
  -7   4   8 60049.3 1155.13   1
  -7   4   8 61622.9 1377.28   7
  -7   4   7 11128.7 574.912   1
  -7   4   7 11217.0 632.116   7
  -7   4   6 56278.7 1177.76  11
  -7   4   6 59413.2 1100.80   1
  -7   4   6 57749.0 1236.84   7
  -7   4   5 11011.6 568.315  11
  -7   4   5 12940.0 551.184   1
  -7   4   5 13011.2 698.459   7
  -7   4   4 44561.0 961.967  11
  -7   4   4 38140.6 874.968   1
   7  -4  -4 38955.6 914.732   4
  -7   4   4 45344.7 1094.64   7
  -7   4   3 31272.6 762.528  11
  -7   4   3 29526.3 911.350   6
  -7   4   3 33958.6 799.117   1
   7  -4  -3 28380.7 842.684   4
  -7   4   3 34364.0 980.577   7
  -7   4   2 60195.4 1035.83  11
  -7   4   2 59556.7 1302.85   6
   7  -4  -2 60947.5 770.378   9
  -7   4   2 59679.2 997.396   1
  -7   4   2 62612.5 1362.56   7
  -7   4   1 81743.5 1161.32  11
  -7   4   1 84812.2 1611.01   6
   7  -4  -1 86386.3 951.479   9
  -7   4   1 80707.8 1165.71   1
   7  -4  -1 78422.6 1436.87   4
  -7   4   1 81340.5 1593.32   7
  -7   4   0 32225.9 747.218  11
  -7   4   0 36148.5 1174.16   6
   7  -4   0 37955.0 673.272   9
  -7   4   0 35442.1 786.154   1
   7  -4   0 30550.6 936.349   4
  -7   4   0 34942.0 1138.52   7
  -7   4  -1 146849. 1497.44  11
  -7   4  -1 142580. 2229.01   6
   7  -4   1 144710. 1270.44   9
  -7   4  -1 141684. 1462.71   1
  -7   4  -2 15173.1 511.564  11
  -7   4  -2 15457.0 919.218   6
   7  -4   2 15520.5 480.233   9
   7  -4   2 14304.6 770.159   4
  -7   4  -2 16108.2 534.966   1
  -7   4  -2 15731.1 846.524   7
  -7   4  -3 113269. 1295.91  11
  -7   4  -3 115035. 2195.61   6
   7  -4   3 115639. 1981.77   4
  -7   4  -3 112514. 1208.29   1
  -7   4  -3 110502. 2003.37   7
  -7   4  -4 1234.97 279.420  11
  -7   4  -4 1727.58 718.940   6
   7  -4   4 906.432 251.137   9
   7  -4   4 1737.20 507.182   4
  -7   4  -4 890.722 568.732   7
  -7   4  -4 914.433 236.098   1
  -7   4  -5 65220.9 1026.91  11
  -7   4  -5 68762.2 1960.45   6
   7  -4   5 61060.9 1009.43   9
   7  -4   5 57911.7 1460.68   4
  -7   4  -5 60717.4 865.064   1
  -7   4  -6 10061.6 401.073   1
  -7   4  -6 10135.6 496.222  11
  -7   4  -6 10810.3 1083.10   6
   7  -4   6 9992.37 487.222   9
   7  -4   6 11368.6 809.703   4
  -7   4  -7 24472.8 723.685  11
  -7   4  -7 23042.2 1387.52   6
   7  -4   7 21340.8 685.172   9
   7  -4   7 21867.2 1050.52   4
  -7   3  11 2242.34 381.220   1
  -7   3  11 2278.53 491.211   7
  -7   3  10 42494.9 942.753   1
  -7   3  10 42508.6 1141.70   7
  -7   3   9 7774.02 481.266   1
  -7   3   9 8295.41 595.855   7
  -7   3   8 38140.2 871.855   1
  -7   3   8 39002.9 1068.49   7
  -7   3   7 23220.1 678.092   1
  -7   3   7 21273.5 765.560   7
  -7   3   6 35143.3 806.218   1
  -7   3   6 36024.5 677.804   8
  -7   3   5 58165.5 974.409   1
  -7   3   5 59283.5 1179.36   7
  -7   3   4 29276.6 766.189  11
  -7   3   4 31441.9 740.506   1
   7  -3  -4 31208.8 581.654   9
  -7   3   4 31271.1 888.391   7
  -7   3   3 122723. 1399.12  11
  -7   3   3 122476. 1482.05   6
   7  -3  -3 136434. 1232.43   9
  -7   3   3 125373. 1382.37   1
   7  -3  -3 117504. 1396.79   4
  -7   3   3 130696. 1829.31   7
  -7   3   2 7574.14 434.416  11
  -7   3   2 7460.64 538.911   6
   7  -3  -2 8856.73 357.545   9
  -7   3   2 8700.66 435.875   1
   7  -3  -2 7070.74 465.921   4
  -7   3   2 9236.53 590.864   7
  -7   3   1 213167. 1739.96  11
  -7   3   1 221424. 2324.13   6
   7  -3  -1 227699. 1575.18   9
  -7   3   1 226409. 1805.66   1
  -7   3   1 215718. 2441.30   7
  -7   3   0 156.371 234.502  11
  -7   3   0 401.244 463.248   6
   7  -3   0 748.679 212.835   9
   7  -3   0 234.028 324.118   4
  -7   3   0 491.837 250.821   1
  -7   3   0 241.394 391.580   7
  -7   3  -1 136516. 1379.70  11
  -7   3  -1 144741. 2139.99   6
   7  -3   1 145986. 1336.57   9
   7  -3   1 130187. 1711.06   4
  -7   3  -1 137552. 1324.23   1
  -7   3  -1 141463. 2100.01   7
  -7   3  -2 9232.02 450.896  11
  -7   3  -2 10282.0 770.549   6
   7  -3   2 9108.11 397.324   9
   7  -3   2 8444.72 576.929   4
  -7   3  -2 9346.57 392.639   1
  -7   3  -2 8379.64 700.817   7
  -7   3  -3 42721.1 796.653  11
  -7   3  -3 46507.3 1403.85   6
   7  -3   3 41593.2 775.200   9
   7  -3   3 43013.6 1131.00   4
  -7   3  -3 45944.8 775.190   1
  -7   3  -3 41600.5 1377.26   7
  -7   3  -4 27093.2 673.807  11
  -7   3  -4 29525.0 1239.04   6
   7  -3   4 27141.8 664.119   9
   7  -3   4 27901.8 987.521   4
  -7   3  -4 28016.2 596.317   1
  -7   3  -5 21381.8 529.453   1
  -7   3  -5 20494.9 622.473  11
  -7   3  -5 19926.9 1114.80   6
   7  -3   5 21590.8 639.356   9
   7  -3   5 21666.6 927.171   4
  -7   3  -6 38901.3 705.446   1
  -7   3  -6 34810.8 811.854  11
  -7   3  -6 39607.7 1543.77   6
   7  -3   6 36483.4 848.315   9
   7  -3   6 36656.6 1171.53   4
  -7   3  -7 5922.80 439.342  11
  -7   3  -7 5790.25 939.001   6
   7  -3   7 5058.95 399.701   9
   7  -3   7 5283.59 634.685   4
  -7   2  12 26121.2 732.629   1
  -7   2  12 26811.3 645.177   2
  -7   2  11 10066.0 490.016   1
  -7   2  11 10931.9 413.569   2
  -7   2  11 10596.4 668.192   7
  -7   2  10 20278.1 639.059   1
  -7   2  10 19155.3 480.040   2
  -7   2  10 18848.0 771.925   7
  -7   2   9 69565.1 1082.63   1
  -7   2   9 68364.5 800.234   2
  -7   2   9 71599.9 1349.21   7
  -7   2   8 32477.4 751.479   1
  -7   2   8 31558.0 713.624   8
  -7   2   8 31117.7 508.995   2
  -7   2   7 82507.4 1129.29   1
  -7   2   7 83779.4 735.343   2
  -7   2   7 84106.5 1366.49   7
  -7   2   6 1756.65 319.899  11
   7  -2  -6 2458.30 252.494   9
  -7   2   6 2538.84 307.504   1
  -7   2   6 2293.41 149.180   2
  -7   2   6 2317.88 398.391   7
   7  -2  -5 169155. 1383.08   9
  -7   2   5 172044. 1578.32   1
  -7   2   4 421.875 260.271  11
   7  -2  -4 1219.67 232.294   9
  -7   2   4 960.118 272.781   6
  -7   2   4 978.974 253.764   1
   7  -2  -4 505.758 201.005   4
  -7   2   4 1017.70 345.885   7
  -7   2   3 212303. 1765.82  11
  -7   2   3 224762. 1814.21   6
   7  -2  -3 235563. 1649.74   9
  -7   2   3 230457. 1755.45   1
   7  -2  -3 219590. 1687.80   4
  -7   2   3 231361. 2353.24   7
  -7   2   2 26158.7 633.778  11
  -7   2   2 27053.0 765.386   6
   7  -2  -2 28905.6 601.909   9
  -7   2   2 30184.0 662.060   1
   7  -2  -2 28325.0 719.497   4
  -7   2   2 28090.1 913.371   7
  -7   2   1 131725. 1688.84   6
   7  -2  -1 134462. 1251.36   9
   7  -2  -1 137683. 1575.49   4
  -7   2   1 134111. 1287.58   1
  -7   2   1 130243. 1879.92   7
  -7   2   0 56456.1 1253.86   6
   7  -2   0 53094.8 807.688   9
   7  -2   0 53423.0 1059.32   4
  -7   2   0 53506.2 814.341   1
  -7   2   0 52606.0 1282.27   7
  -7   2  -1 69373.6 1020.54  11
   7  -2   1 69821.8 1187.73   4
  -7   2  -1 70956.5 921.438   1
  -7   2  -1 68268.4 1495.54   7
  -7   2  -2 54990.8 880.486  11
  -7   2  -2 68315.3 1546.22   6
   7  -2   2 63640.0 923.980   9
   7  -2   2 61546.6 1180.68   4
  -7   2  -2 63399.1 862.307   1
  -7   2  -2 58319.3 1483.54   7
  -7   2  -3 8183.17 417.632  11
  -7   2  -3 11030.3 812.420   6
   7  -2   3 9378.05 267.092  10
   7  -2   3 8660.16 411.377   9
   7  -2   3 8151.35 540.558   4
  -7   2  -3 6530.32 756.185   7
  -7   2  -3 9357.56 377.980   1
  -7   2  -4 75374.4 947.976   1
  -7   2  -4 64016.4 976.682  11
  -7   2  -4 77539.0 1803.08   6
   7  -2   4 71006.4 1062.28   9
   7  -2   4 68443.0 1296.13   4
  -7   2  -5 1210.78 236.699   1
  -7   2  -5 1021.19 288.620  11
  -7   2  -5 208.181 610.486   6
   7  -2   5 502.503 245.642   9
   7  -2   5 946.969 425.362   4
  -7   2  -6 54043.1 796.215   1
   7  -2   6 53481.6 1008.92   9
  -7   2  -7 394.481 306.194  11
  -7   2  -7 1200.31 712.844   6
   7  -2   7 478.244 320.585   9
   7  -2   7 838.873 469.815   4
  -7   1  12 6614.75 387.042   2
  -7   1  12 6618.81 398.572   1
  -7   1  12 6444.78 575.349   7
  -7   1  11 38025.4 773.508   1
  -7   1  11 38492.5 713.569   2
  -7   1  11 39162.6 1048.85   7
  -7   1  10 1958.04 325.869   8
  -7   1  10 2942.87 315.697   1
  -7   1  10 1864.79 226.835   2
  -7   1  10 2278.32 394.869   7
  -7   1   9 103930. 1249.96   8
  -7   1   9 104201. 1008.38   2
  -7   1   8 534.902 172.602   2
  -7   1   8 236.538 282.575  11
  -7   1   8 517.338 275.780   8
  -7   1   8 271.001 224.406   1
  -7   1   8-118.076 318.350   7
  -7   1   7 144848. 1026.12   2
  -7   1   7 144870. 1385.43   1
  -7   1   6 34686.0 780.066  11
   7  -1  -6 36398.2 708.476   9
  -7   1   6 34497.4 444.468   2
  -7   1   6 36538.2 716.119   1
  -7   1   6 35166.3 850.919   7
  -7   1   5 182115. 863.518   2
  -7   1   5 183938. 1525.01   1
  -7   1   4 75145.9 1032.74  11
  -7   1   4 77024.5 862.819   6
   7  -1  -4 79895.7 998.479   9
  -7   1   4 80449.9 987.159   1
   7  -1  -4 75170.0 765.024   4
  -7   1   4 76904.0 1282.58   7
  -7   1   3 123057. 1247.01  11
  -7   1   3 132795. 1342.68   6
   7  -1  -3 136619. 1309.90   9
   7  -1  -3 126092. 1118.32   4
  -7   1   3 134377. 1253.61   1
  -7   1   3 126141. 1700.38   7
  -7   1   2 116381. 1189.11  11
  -7   1   2 124096. 1460.08   6
   7  -1  -2 123287. 1225.51   9
   7  -1  -2 120509. 1205.86   4
  -7   1   2 126367. 1208.23   1
  -7   1   2 118939. 1714.70   7
  -7   1   1 9240.98 385.979  11
  -7   1   1 9254.23 536.023   6
   7  -1  -1 10153.6 403.127   9
   7  -1  -1 9031.74 403.993   4
  -7   1   1 9513.44 613.516   7
  -7   1   0 94153.8 1081.31  11
  -7   1   0 100743. 1552.49   6
   7  -1   0 103303. 1167.17   9
   7  -1   0 95456.1 1212.92   4
  -7   1   0 100304. 1056.94   1
  -7   1   0 93899.1 1627.19   7
  -7   1  -1 529.932 200.157   1
  -7   1  -1 793.172 228.566  11
  -7   1  -1 66.0625 429.593   6
   7  -1   1 490.618 206.877   9
   7  -1   1 400.451 287.322   4
  -7   1  -1 765.548 403.137   7
  -7   1  -2 56578.7 786.437   1
   7  -1   2 55645.9 897.529   9
   7  -1   2 55912.7 1046.45   4
  -7   1  -3 6891.76 341.373   1
  -7   1  -3 6193.33 384.192  11
  -7   1  -3 8105.92 688.197   6
   7  -1   3 7414.98 264.863  10
   7  -1   3 7208.13 405.105   9
   7  -1   3 7112.89 471.679   4
  -7   1  -4 76012.6 929.725   1
  -7   1  -4 80235.0 1735.59   6
   7  -1   4 76254.1 775.009  10
   7  -1   4 73444.6 1088.74   9
   7  -1   4 78624.4 1340.94   4
  -7   1  -5 12923.4 915.806   6
   7  -1   5 12120.1 379.613  10
  -7   1  -5 11793.8 409.644   1
   7  -1   5 11859.8 523.375   9
   7  -1   5 12397.6 642.322   4
  -7   1  -6 80497.8 1939.70   6
   7  -1   6 73679.4 892.360  10
   7  -1   6 72317.5 1174.42   9
  -7   1  -6 73121.7 946.492   1
   7  -1   6 78921.1 1478.36   4
  -7   1  -7 7393.38 488.363  11
  -7   1  -7 8889.40 934.803   6
   7  -1   7 8768.96 397.350  10
   7  -1   7 7474.47 476.840   9
  -7   1  -7 7202.47 364.042   1
   7  -1   7 9348.03 631.246   4
  -7   0  12 10.4883 250.451   2
  -7   0  12 157.068 290.631   8
  -7   0  12 271.378 223.597   1
  -7   0  12 431.322 370.431   7
  -7   0  11 81049.7 996.527   1
  -7   0  11 82452.4 1394.70   7
  -7   0  10 11014.7 515.908  11
  -7   0  10 11432.5 429.657   2
  -7   0  10 10561.0 488.972   8
  -7   0  10 10765.9 403.091   1
  -7   0  10 11601.4 572.437   7
  -7   0   9 121847. 1433.06  11
  -7   0   9 124364. 1187.57   2
  -7   0   9 122991. 1503.94   8
  -7   0   9 123757. 1603.41   7
  -7   0   8 84405.4 1134.80  11
  -7   0   8 86767.3 933.356   2
  -7   0   8 84677.7 996.622   1
  -7   0   7 91782.2 901.013   2
   7   0  -7 88830.2 1153.69   9
  -7   0   7 89212.3 1016.60   1
  -7   0   7 91698.3 1333.78   7
  -7   0   6 109298. 1199.61  11
  -7   0   6 107476. 877.114   2
   7   0  -6 109938. 1251.26   9
  -7   0   6 109463. 1120.36   1
  -7   0   5 33530.0 650.739  11
  -7   0   5 34538.9 466.448   2
   7   0  -5 34463.8 725.125   9
  -7   0   5 32849.9 615.555   1
  -7   0   5 32116.2 814.988   7
  -7   0   4 149500. 1295.50  11
  -7   0   4 154371. 1192.82   6
  -7   0   4 153801. 839.525   2
   7   0  -4 157117. 1500.10   9
  -7   0   4 150627. 1271.51   1
  -7   0   4 144358. 1705.86   7
  -7   0   3 169.855 193.867   1
  -7   0   3 155.802 76.6608   2
  -7   0   3 318.384 209.455  11
  -7   0   3-7.07161 269.838   6
   7   0  -3 648.095 215.995   9
  -7   0   3 363.050 315.068   7
  -7   0   2 88496.8 976.813  11
  -7   0   2 92758.1 1246.98   6
   7   0  -2 92144.7 1100.80   9
  -7   0   2 92922.0 1440.16   7
  -7   0   2 97009.8 1023.04   1
  -7   0   1 856.045 201.684   1
  -7   0   1 935.340 239.934  11
  -7   0   1 452.642 352.912   6
   7   0  -1 663.753 219.260   9
   7   0  -1 528.693 198.811   4
  -7   0   1 500.228 350.137   7
  -7   0   0 46412.1 707.364   1
  -7   0   0 42716.7 718.838  11
  -7   0   0 46661.8 1075.58   6
   7   0   0 49188.9 856.904   9
   7   0   0 42104.5 755.433   4
  -7   0   0 45495.4 1187.80   7
  -7   0  -1 8516.39 353.595   1
  -7   0  -1 8609.59 375.604  11
  -7   0  -1 8461.39 583.700   6
   7   0   1 9211.40 400.634   9
   7   0   1 8370.65 410.992   4
  -7   0  -2 82096.3 962.901   1
  -7   0  -2 77600.8 1032.58  11
  -7   0  -2 83818.8 1577.60   6
   7   0   2 80677.0 1090.46   9
   7   0   2 79742.2 1135.42   4
  -7   0  -3 29859.9 687.091  11
  -7   0  -3 30548.9 1069.03   6
  -7   0  -3 32262.1 632.963   1
   7   0   3 29307.8 703.470   9
   7   0   3 32429.7 788.916   4
  -7   0  -4 67301.7 1584.16   6
   7   0   4 65415.7 770.404  10
   7   0   4 63504.4 1036.64   9
  -7   0  -4 64399.5 871.765   1
   7   0   4 67017.5 1158.71   4
   7   0   5 56152.0 760.168  10
   7   0   5 53513.2 993.844   9
  -7   0  -5 52813.6 807.188   1
   7   0   5 54398.6 1080.46   4
  -7   0  -6 53250.3 994.510  11
   7   0   6 63112.8 839.654  10
  -7   0  -6 69412.0 1789.49   6
   7   0   6 62919.9 1113.68   9
  -7   0  -6 57667.7 861.363   1
   7   0   6 65807.0 1207.42   4
  -7   0  -7 50684.3 1053.67  11
   7   0   7 58994.1 863.235  10
  -7   0  -7 65459.1 1789.28   6
   7   0   7 63193.0 1198.40   9
   7   0   7 64905.9 1253.89   4
  -7   0  -7 54133.7 862.874   1
  -7  -1  13 47335.1 963.812   2
  -7  -1  13 43603.9 991.252   8
  -7  -1  12 38015.0 844.539   2
  -7  -1  12 36709.7 925.849   8
  -7  -1  11 57012.0 945.891  11
  -7  -1  11 58421.5 1060.25   8
  -7  -1  11 58720.6 812.465   1
  -7  -1  10 103719. 1220.81  11
  -7  -1  10 105366. 1232.19   2
  -7  -1  10 102350. 1341.76   8
  -7  -1  10 102665. 1066.62   1
  -7  -1   9 33484.9 687.031  11
  -7  -1   9 35427.3 700.384   2
  -7  -1   9 32240.0 822.654   8
  -7  -1   9 30284.7 749.305   7
  -7  -1   9 34834.1 645.255   1
  -7  -1   8 180306. 1478.57  11
  -7  -1   8 179445. 1436.89   2
  -7  -1   8 178249. 1687.71   8
  -7  -1   8 175634. 1367.95   1
  -7  -1   7 3814.74 292.425  11
  -7  -1   7 3774.13 271.138   2
   7   1  -7 3783.60 333.131   9
  -7  -1   7 2955.75 307.536   7
  -7  -1   7 3922.99 271.624   1
  -7  -1   6 114483. 1381.81   7
  -7  -1   6 117763. 1100.97   1
  -7  -1   5 215.341 199.068   1
  -7  -1   5 475.761 204.408  11
   7   1  -5 183.821 354.498   6
   7   1  -5 202.278 222.140   9
  -7  -1   5 574.803 301.015   7
  -7  -1   4 99752.0 1014.93  11
  -7  -1   4 95684.0 983.359   6
   7   1  -4 99913.6 1238.92   9
  -7  -1   4 95586.0 1307.66   7
  -7  -1   4 92502.8 974.619   1
  -7  -1   3 20374.2 487.603   1
  -7  -1   3 20876.3 565.268   6
   7   1  -3 21517.4 587.851   9
  -7  -1   3 22235.9 713.379   7
  -7  -1   2 70169.4 884.946   1
  -7  -1   2 69650.1 849.186  11
  -7  -1   2 66636.5 1039.49   6
   7   1  -2 66733.1 986.476   9
  -7  -1   2 69608.9 1226.35   7
  -7  -1   1 21056.7 493.244   1
  -7  -1   1 20887.8 506.797  11
  -7  -1   1 20582.1 665.747   6
   7   1  -1 19872.4 562.526   9
  -7  -1   1 21020.0 857.558   7
  -7  -1   0 33851.7 615.062   1
  -7  -1   0 32920.6 624.241  11
  -7  -1   0 35888.9 932.054   6
   7   1   0 35364.3 738.235   9
  -7  -1  -1 113877. 1137.58   1
  -7  -1  -1 117768. 1749.00   6
   7   1   1 114249. 1290.79   9
  -7  -1  -2 82525.4 960.198   1
   7   1   2 80986.4 1111.00   9
  -7  -1  -3 139775. 2114.31   6
   7   1   3 139014. 1513.42   9
  -7  -1  -3 137629. 1281.33   1
  -7  -1  -4 18476.4 613.227  11
   7   1   4 17507.2 593.258   9
  -7  -1  -4 18577.0 532.568   1
  -7  -1  -5 91729.8 1872.48   6
   7   1   5 86674.3 1294.72   9
  -7  -1  -5 90882.4 1152.20   1
  -7  -1  -6 2248.98 375.157  11
   7   1   6 2020.29 367.816   9
  -7  -1  -6 2538.09 695.880   6
  -7  -1  -6 2205.82 301.904   1
  -7  -1  -7 56789.1 952.356   1
  -7  -1  -7 61640.4 1183.74  11
   7   1   7 68044.7 982.627  10
  -7  -1  -7 73681.4 1913.44   6
   7   1   7 64220.5 1183.36   9
  -7  -2  13 15311.0 639.754   2
  -7  -2  13 14810.5 678.334   8
  -7  -2  12 150054. 1712.97   2
  -7  -2  12 128956. 1641.89   8
  -7  -2  11 6161.81 298.519   1
  -7  -2  11 6523.67 423.036   2
  -7  -2  11 6463.68 459.459   8
  -7  -2  10 131297. 1121.80   1
  -7  -2  10 136790. 1580.81   8
  -7  -2   9 2763.34 241.070   1
  -7  -2   9 2944.52 249.834  11
  -7  -2   9 2795.97 297.541   2
  -7  -2   9 3060.75 381.176   8
  -7  -2   8 90056.6 928.576  11
   7   2  -8 87315.6 902.899   3
   7   2  -8 85951.2 1242.26   9
  -7  -2   8 87379.6 1218.37   8
  -7  -2   8 86698.9 1103.78   7
  -7  -2   7 24336.6 538.558   1
  -7  -2   7 25659.5 506.884  11
   7   2  -7 24786.3 476.625   3
   7   2  -7 24000.2 678.352   9
  -7  -2   7 24391.5 623.804   7
  -7  -2   6 66151.0 847.216   1
  -7  -2   6 70411.2 801.573  11
   7   2  -6 67200.2 1070.65   9
  -7  -2   6 72001.4 1058.52   7
   7   2  -6 67539.0 1149.78   6
  -7  -2   5 39551.6 643.199   1
   7   2  -5 39628.3 482.938   3
  -7  -2   5 48008.2 702.510  11
   7   2  -5 40772.9 836.379   9
  -7  -2   5 45725.5 857.930   7
   7   2  -5 44003.4 1012.09   6
  -7  -2   4 31601.8 553.009  11
   7   2  -4 30326.6 732.300   9
  -7  -2   4 32178.9 758.938   7
   7   2  -3 60426.3 471.430   3
  -7  -2   3 64261.6 827.536   1
  -7  -2   3 71155.9 836.616  11
  -7  -2   3 64482.3 932.762   6
   7   2  -3 68134.9 1049.55   9
  -7  -2   3 73097.7 1298.81   7
  -7  -2   2 21791.9 481.508  11
  -7  -2   2 22190.5 522.118   1
   7   2  -2 23062.4 619.955   9
  -7  -2   1 107887. 1086.24   1
   7   2  -1 110769. 1327.46   9
  -7  -2   0 15433.3 461.145  11
  -7  -2   0 16308.7 653.995   6
  -7  -2   0 15358.8 454.048   1
   7   2   0 16891.1 562.819   9
  -7  -2  -1 183838. 1490.77  11
  -7  -2  -1 179938. 2036.16   6
  -7  -2  -2 923.314 266.554  11
  -7  -2  -2 392.628 409.711   6
   7   2   2 1163.56 293.194   9
  -7  -2  -2 812.333 257.151   1
  -7  -2  -3 136037. 1978.36   6
   7   2   3 134583. 1494.63   9
  -7  -2  -3 136171. 1311.82   1
  -7  -2  -4 5570.88 414.697  11
  -7  -2  -4 5804.70 653.185   6
   7   2   4 4969.29 411.609   9
  -7  -2  -4 4426.28 348.666   1
  -7  -2  -5 51213.5 896.056   1
  -7  -2  -5 50167.0 984.201  11
  -7  -2  -5 57930.9 1492.23   6
   7   2   5 55009.0 1068.39   9
  -7  -2  -6 23343.1 659.561   1
  -7  -2  -6 26291.3 806.309  11
  -7  -2  -6 25468.7 1127.79   6
   7   2   6 23440.8 749.728   9
  -7  -3  12 103049. 1534.49   2
  -7  -3  12 94486.1 1457.78   8
  -7  -3  11 10448.3 366.621   1
  -7  -3  11 11147.1 538.027   2
  -7  -3  11 10661.4 550.655   8
  -7  -3  10 40316.9 639.792   1
  -7  -3  10 40551.5 962.652   8
  -7  -3   9 32995.4 590.605   1
  -7  -3   9 34566.9 881.777   8
  -7  -3   8 19390.7 473.654   1
   7   3  -8 19995.5 660.621   9
  -7  -3   8 19845.2 642.867   8
   7   3  -7 23358.0 831.649   6
   7   3  -7 23920.9 508.235   3
  -7  -3   7 25698.9 452.244  11
  -7  -3   7 22721.9 513.618   1
   7   3  -7 24783.4 704.676   9
  -7  -3   6 16420.3 386.889  11
  -7  -3   6 15537.7 439.691   1
   7   3  -6 15510.8 576.114   9
   7   3  -6 16645.1 754.850   6
   7   3  -5 66153.9 725.415   3
  -7  -3   5 69726.0 739.456  11
  -7  -3   5 62509.3 818.532   1
   7   3  -5 65051.5 1077.37   9
   7   3  -5 68372.2 1372.60   6
   7   3  -4 6535.20 271.082   3
  -7  -3   4 5716.84 283.419  11
  -7  -3   4 5587.55 296.741   1
   7   3  -4 6038.01 391.567   9
   7   3  -3 134211. 983.084   3
  -7  -3   3 133037. 1193.35   1
  -7  -3   2 410.384 205.981  11
   7   3  -2 376.699 173.964   3
  -7  -3   2 288.186 304.247   6
   7   3  -2 516.398 275.747   9
  -7  -3   2 189.790 213.191   1
  -7  -3   1 212441. 1486.77  11
  -7  -3   1 212047. 1997.01   6
   7   3  -1 212761. 1864.04   9
  -7  -3   0 1902.02 270.368  11
  -7  -3   0 2084.49 417.693   6
   7   3   0 1742.43 307.596   9
  -7  -3   0 2175.79 292.651   1
   7   3   0 2342.13 208.067   3
  -7  -3  -1 129300. 1285.82  11
  -7  -3  -1 145107. 1941.26   6
   7   3   1 145051. 1590.09   9
  -7  -3  -1 128148. 1242.21   1
  -7  -3  -2 39385.8 794.856  11
  -7  -3  -2 40165.5 1101.71   6
   7   3   2 40940.8 897.659   9
  -7  -3  -2 37692.1 753.751   1
  -7  -3  -3 25689.8 686.298  11
  -7  -3  -3 26772.5 961.376   6
   7   3   3 25041.5 712.489   9
  -7  -3  -4 28327.1 713.869   1
  -7  -3  -4 29290.8 802.538  11
  -7  -3  -4 27257.0 1007.98   6
   7   3   4 29533.0 779.942   9
  -7  -3  -5 3428.13 415.051  11
  -7  -3  -5 4309.39 384.664   1
  -7  -3  -5 3660.33 620.455   6
   7   3   5 4030.31 399.134   9
   7   4 -12 25843.1 861.435   3
  -7  -4  12 19085.3 717.883   8
   7   4 -11 22389.9 681.042   3
  -7  -4  11 20193.3 707.062   8
   7   4 -10 8714.97 461.482   3
  -7  -4  10 7846.15 333.872   1
  -7  -4  10 7222.95 504.202   8
   7   4  -9 48238.0 836.437   3
  -7  -4   9 45960.0 701.390   1
  -7  -4   9 46686.8 1023.57   8
   7   4  -8 6661.31 370.966   3
  -7  -4   8 6781.62 331.745   1
   7   4  -8 7553.80 481.392   9
  -7  -4   8 7198.19 475.010   8
   7   4  -7 90873.2 1661.41   6
   7   4  -7 91752.6 1046.83   3
   7   4  -7 89420.6 1342.27   9
  -7  -4   7 87363.1 962.859   1
  -7  -4   6 851.850 165.312  11
   7   4  -6 523.228 217.905   3
   7   4  -6 627.133 536.252   6
   7   4  -6 907.313 307.864   9
  -7  -4   6 510.815 207.212   1
  -7  -4   5 158392. 1080.08  11
   7   4  -5 164049. 1778.90   9
  -7  -4   5 155378. 1295.08   1
   7   4  -5 163568. 2251.42   6
  -7  -4   4 9297.82 318.391  11
   7   4  -4 9300.55 496.804   9
  -7  -4   4 9016.05 381.411   1
   7   4  -4 9498.24 742.375   6
  -7  -4   3 160282. 1254.39  11
   7   4  -3 155045. 1667.21   9
  -7  -4   3 146491. 1337.68   1
   7   4  -3 146408. 2292.88   6
   7   4  -3 143314. 1186.43   3
  -7  -4   2 43743.9 677.101  11
  -7  -4   2 42146.3 739.874   1
  -7  -4   1 79387.6 1232.28   6
   7   4  -1 79519.4 1220.00   9
  -7  -4   1 78651.2 1039.10   1
   7   4  -1 81735.5 879.062   3
  -7  -4   0 59376.6 887.091  11
  -7  -4   0 58315.0 1124.53   6
   7   4   0 57106.6 1017.33   9
  -7  -4   0 58971.7 940.708   1
  -7  -4  -1 19925.9 590.560   1
  -7  -4  -1 17836.9 542.146  11
  -7  -4  -1 20350.4 785.273   6
   7   4   1 18623.8 654.255   9
  -7  -4  -2 48366.8 890.417   1
  -7  -4  -2 50162.7 1208.58   6
   7   4   2 51003.5 1038.00   9
  -7  -4  -3 360.368 309.965  11
  -7  -4  -3 621.513 481.301   6
   7   4   3 321.967 270.303   9
  -7  -4  -3 366.634 286.175   1
  -7  -4  -4 40109.8 923.827  11
  -7  -4  -4 40781.4 920.376   1
  -7  -4  -4 39625.6 1198.02   6
   7   4   4 42919.6 992.321   9
   7   5 -11 46518.0 977.095   3
  -7  -5  11 43189.9 972.822   8
  -7  -5  10 295.990 223.544   1
   7   5 -10 149.003 291.251   3
  -7  -5  10 701.898 335.902   8
   7   5  -9 57416.5 972.392   3
  -7  -5   9 59254.6 1160.75   8
   7   5  -8 10589.3 465.289   3
  -7  -5   8 11039.3 553.622   8
  -7  -5   8 11907.8 438.590   1
   7   5  -7 85320.1 1787.91   6
   7   5  -7 85373.3 1355.61   9
  -7  -5   7 84735.2 1224.28   8
  -7  -5   7 83717.6 1035.78   1
   7   5  -6 59364.4 1096.39   9
  -7  -5   6 59025.3 885.680   1
   7   5  -5 84559.5 1054.85   3
   7   5  -5 93529.8 1386.94   9
  -7  -5   5 89918.7 1075.71   1
   7   5  -5 82562.7 1753.26   6
   7   5  -4 73334.2 1713.95   6
   7   5  -4 75727.6 984.241   3
  -7  -5   3 31771.8 587.403  11
   7   5  -3 33916.8 868.368   9
   7   5  -3 31944.6 647.807   3
   7   5  -3 31928.8 1248.30   6
  -7  -5   2 75883.5 1048.62   1
  -7  -5   2 78344.6 916.870  11
   7   5  -2 81519.5 1278.56   9
   7   5  -2 85513.4 1040.09   3
   7   5  -2 81250.6 1942.05   6
  -7  -5   1 3123.74 333.956   1
  -7  -5   1 2930.60 289.701  11
   7   5  -1 3202.09 759.321   6
   7   5  -1 3339.83 372.195   9
   7   5  -1 3805.39 305.860   3
  -7  -5   0 61812.0 1046.12   1
  -7  -5   0 59251.4 945.127  11
   7   5   0 62222.8 1132.38   9
  -7  -5  -1 3589.69 350.958  11
  -7  -5  -1 3680.45 383.264   1
   7   5   1 4411.56 408.988   9
  -7  -5  -2 25469.0 705.782  11
  -7  -5  -2 22775.0 720.923   1
   7   5   2 25003.9 799.941   9
  -7  -5  -2 23686.8 853.200   6
  -7  -5  -3 11423.9 559.261  11
   7   5   3 14775.9 633.558   9
  -7  -5  -3 13930.4 747.474   6
  -7  -5  -3 11589.8 619.241   1
   7   6 -10 20555.0 700.083   3
  -7  -6  10 21230.3 719.266   8
   7   6  -9 49220.9 964.860   3
  -7  -6   9 55101.2 839.103   1
   7   6  -8 59547.4 1042.51   3
  -7  -6   8 62965.2 898.160   1
   7   6  -7 23306.6 1165.40   6
   7   6  -7 25135.8 688.948   3
  -7  -6   7 23230.8 593.090   1
  -7  -6   7 25822.7 741.323   8
   7   6  -6 70939.2 1810.09   6
   7   6  -6 77690.2 1114.34   3
  -7  -6   6 67729.6 978.617   1
   7   6  -6 77012.2 1297.34   9
  -7  -6   6 73490.5 1133.59   8
   7   6  -5 6256.34 408.271   3
  -7  -6   5 6747.00 403.660   1
   7   6  -5 7546.80 506.869   9
   7   6  -5 5532.43 791.159   6
  -7  -6   4 67826.2 1051.47   1
   7   6  -4 69377.5 1262.05   9
   7   6  -4 70398.3 1031.35   3
  -7  -6   3 4143.38 366.387   1
   7   6  -3 3280.63 775.409   6
   7   6  -3 4565.26 435.145   9
   7   6  -3 4413.33 383.768   3
  -7  -6   2 40340.7 828.578   1
   7   6  -2 44849.4 1025.69   9
   7   6  -2 46703.5 857.612   3
   7   6  -2 40110.5 1495.51   6
  -7  -6   1 6753.20 467.047   1
   7   6  -1 5555.41 470.186   9
   7   6  -1 5934.07 924.892   6
  -7  -6   0 16462.3 561.425  11
   7   6   0 17515.1 685.183   9
  -7  -6   0 15245.4 624.872   1
   7   6   0 16794.0 1228.97   6
  -7  -6  -1 11433.8 526.507  11
   7   6   1 13689.9 630.360   9
  -7  -6  -1 13628.2 611.397   1
   7   6   1 14385.9 1234.07   6
   7   7  -6 38169.0 1526.70   6
   7   7  -6 49174.1 990.435   3
  -7  -7   6 37522.5 844.284   1
   7   7  -6 45501.4 1059.74   9
  -7  -7   6 42719.4 895.263   8
   7   7  -5 3140.72 860.483   6
  -7  -7   5 3446.48 398.031   1
   7   7  -5 5459.36 470.853   9
   7   7  -5 5196.26 463.054   3
   7   7  -4 33080.5 936.551   9
  -7  -7   4 29773.3 786.687   1
   7   7  -4 34455.5 818.379   3
   7   7  -4 29910.1 1413.45   6
  -7  -7   3 7854.46 512.515   1
   7   7  -3 7644.44 976.244   6
  -8   6   4 24047.6 831.814  11
  -8   6   4 26013.6 866.883   1
  -8   6   3 44729.1 1058.32  11
  -8   6   3 45799.0 1095.96   1
  -8   6   2 28689.9 839.290  11
  -8   6   2 29432.0 876.872   1
  -8   6   1 19379.1 692.097  11
  -8   6   1 18960.0 725.467   1
  -8   6   1 19300.5 975.961   7
  -8   6   0 37167.1 906.009  11
  -8   6   0 34946.5 932.313   1
  -8   6   0 37788.2 1331.41   7
  -8   6  -1 454.151 330.626  11
  -8   6  -1 27.8007 776.276   6
  -8   6  -1 210.453 334.866   1
   8  -6   1-51.4417 562.120   4
  -8   6  -1-87.2474 549.592   7
  -8   6  -2 33491.4 828.029  11
  -8   6  -2 28546.4 1479.40   6
  -8   6  -2 29427.8 824.826   1
  -8   6  -2 32834.8 1325.54   7
  -8   5   7 61332.3 1319.64  11
  -8   5   7 67560.1 1327.31   1
  -8   5   6 72945.0 1335.33   1
  -8   5   6 75589.5 1549.54   7
  -8   5   5 29349.0 934.926  11
  -8   5   5 31849.9 903.589   1
  -8   5   5 32579.1 1070.06   7
  -8   5   4 63861.5 1206.67   1
  -8   5   4 64000.4 1484.76   7
  -8   5   3 3100.72 435.678  11
  -8   5   3 3033.51 422.919   1
  -8   5   3 3356.98 584.880   7
  -8   5   2 24317.1 783.474  11
  -8   5   2 25014.2 774.250   1
  -8   5   2 26248.7 1060.85   7
  -8   5   1 1629.74 370.890  11
  -8   5   1 2329.84 382.412   1
   8  -5  -1 1160.24 460.009   4
  -8   5   1 2080.76 533.240   7
  -8   5   0 40804.5 908.994  11
  -8   5   0 34862.9 1306.01   6
  -8   5   0 44853.6 972.863   1
   8  -5   0 34135.9 1126.50   4
  -8   5   0 44106.4 1353.82   7
  -8   5  -1 8337.84 488.631  11
  -8   5  -1 6976.83 865.865   6
  -8   5  -1 7978.45 476.553   1
  -8   5  -1 7017.91 784.767   7
  -8   5  -2 50742.7 949.084  11
  -8   5  -2 49425.8 1646.17   6
  -8   5  -2 52061.5 981.479   1
  -8   5  -2 52140.6 1507.39   7
  -8   5  -3 10179.9 539.974  11
  -8   5  -3 11076.3 1065.74   6
   8  -5   3 8436.84 776.796   4
  -8   5  -3 10654.9 501.888   1
  -8   5  -3 8316.93 863.488   7
  -8   5  -4 56756.0 1014.15  11
  -8   5  -4 56937.5 1951.04   6
   8  -5   4 54123.3 1527.87   4
  -8   5  -4 55136.9 949.466   1
  -8   5  -4 55748.2 1770.87   7
  -8   4   8 113741. 1570.40   1
  -8   4   8 113831. 1888.53   7
  -8   4   7 11857.9 695.502  11
  -8   4   7 13505.0 621.283   1
  -8   4   6 52689.0 1093.12   1
  -8   4   6 54610.1 1291.38   7
  -8   4   5 1137.02 330.611  11
  -8   4   5 775.709 334.059   1
  -8   4   5 1349.97 420.012   7
  -8   4   4 36264.6 890.913   1
  -8   4   4 37821.6 1151.26   7
  -8   4   3 2358.25 364.224  11
  -8   4   3 2564.22 382.738   1
   8  -4  -3 1781.70 394.259   4
  -8   4   3 3086.43 504.627   7
  -8   4   2 32839.5 799.150  11
  -8   4   2 32519.2 836.115   1
  -8   4   2 34608.4 1162.01   7
  -8   4   1 21822.2 673.600  11
  -8   4   1 20752.2 956.687   6
  -8   4   1 22134.2 683.707   1
  -8   4   1 22800.0 1010.36   7
  -8   4   0 40474.3 887.510  11
  -8   4   0 39525.9 1292.83   6
   8  -4   0 41152.4 766.114   9
   8  -4   0 37610.1 1049.76   4
  -8   4   0 42066.7 897.272   1
  -8   4   0 38269.7 1235.41   7
  -8   4  -1 43549.2 905.281  11
  -8   4  -1 44046.7 1414.15   6
   8  -4   1 43113.7 783.172   9
  -8   4  -1 44587.6 867.496   1
  -8   4  -1 46141.1 1381.14   7
  -8   4  -2 42613.2 1451.33   6
   8  -4   2 41894.1 801.067   9
   8  -4   2 39305.9 1164.36   4
  -8   4  -2 44341.1 869.543   1
  -8   4  -2 41730.3 1385.70   7
  -8   4  -3 59043.1 1035.93  11
  -8   4  -3 62109.4 1787.82   6
   8  -4   3 55673.2 949.422   9
   8  -4   3 57097.4 1407.22   4
  -8   4  -3 62196.2 996.638   1
  -8   4  -3 62603.1 1777.04   7
  -8   4  -4 26263.7 736.210  11
  -8   4  -4 26374.9 1348.87   6
   8  -4   4 23261.7 676.262   9
   8  -4   4 24644.2 1055.61   4
  -8   4  -4 24833.6 640.002   1
  -8   4  -5 72365.8 1154.96  11
  -8   4  -5 81056.1 2154.03   6
   8  -4   5 74723.2 1187.84   9
   8  -4   5 75610.7 1710.81   4
  -8   4  -5 83986.4 1108.57   1
  -8   3   9 266.194 405.714  11
  -8   3   9-249.095 318.030   1
  -8   3   9 172.325 447.967   7
  -8   3   8 76602.2 1246.16   1
  -8   3   8 80841.7 1597.61   7
  -8   3   7 230.486 353.399  11
  -8   3   7 720.955 308.670   1
  -8   3   7 674.686 445.822   7
  -8   3   6 26886.8 758.259   1
  -8   3   6 27228.7 916.350   7
  -8   3   5 13018.5 570.775  11
  -8   3   5 12771.7 691.915   7
   8  -3  -4 20095.4 566.029   9
  -8   3   4 18279.9 635.425   1
  -8   3   4 19018.8 829.646   7
  -8   3   3 41298.9 879.322  11
   8  -3  -3 44846.0 797.214   9
  -8   3   3 42685.7 879.608   1
  -8   3   3 42386.1 1219.70   7
  -8   3   2 33824.5 782.214  11
  -8   3   2 34667.1 989.607   6
   8  -3  -2 37596.0 733.387   9
  -8   3   2 37643.3 841.489   1
   8  -3  -2 31772.5 830.229   4
  -8   3   2 37739.2 1160.12   7
  -8   3   1 86444.4 1187.46  11
  -8   3   1 95346.0 1697.47   6
   8  -3  -1 95400.2 1160.81   9
   8  -3  -1 84579.6 1347.90   4
  -8   3   1 94243.9 1225.65   1
  -8   3   1 88053.1 1721.88   7
  -8   3   0 27515.5 724.960  11
  -8   3   0 28941.4 1078.37   6
   8  -3   0 30726.3 688.535   9
   8  -3   0 30728.2 892.340   4
  -8   3   0 32496.1 723.172   1
  -8   3   0 31874.2 1135.91   7
  -8   3  -1 154559. 1572.54  11
  -8   3  -1 159852. 2369.90   6
   8  -3   1 151759. 1472.84   9
   8  -3   1 150979. 1935.51   4
  -8   3  -1 156293. 1499.89   1
  -8   3  -1 158570. 2430.77   7
  -8   3  -2 11216.0 511.558  11
  -8   3  -2 11511.6 889.138   6
   8  -3   2 11812.2 490.851   9
   8  -3   2 12647.9 730.853   4
  -8   3  -2 12787.4 487.598   1
  -8   3  -2 10516.8 845.216   7
  -8   3  -3 96443.6 1281.91  11
   8  -3   3 95958.3 1271.06   9
   8  -3   3 95533.5 1679.63   4
  -8   3  -3 92148.7 2352.85   7
  -8   3  -3 99845.9 1172.02   1
  -8   3  -4 670.199 271.815   1
  -8   3  -4 585.692 323.940  11
  -8   3  -4 708.147 739.416   6
   8  -3   4 361.739 279.434   9
   8  -3   4 620.374 448.435   4
  -8   3  -5 52233.8 853.481   1
  -8   3  -5 52346.1 1033.58  11
   8  -3   5 50496.2 1008.25   9
   8  -3   5 51189.3 1298.37   4
  -8   2  10 61991.7 1099.78   1
  -8   2  10 60606.5 1347.86   7
  -8   2   9 8562.98 551.196  11
  -8   2   9 9987.36 638.572   7
  -8   2   8 13549.3 564.506   8
  -8   2   8 13657.1 557.724   1
  -8   2   8 14546.0 729.098   7
  -8   2   7 23645.1 775.062  11
  -8   2   7 27740.7 688.448   8
  -8   2   7 27455.9 729.133   1
  -8   2   7 25234.7 859.344   7
   8  -2  -6 18878.2 546.858   9
  -8   2   6 18920.9 600.562   1
  -8   2   6 18320.4 743.546   7
   8  -2  -5 61211.6 937.150   9
  -8   2   5 63298.7 1032.92   1
  -8   2   5 64618.4 1355.42   7
  -8   2   4 14060.0 541.454  11
   8  -2  -4 15651.2 514.470   9
  -8   2   4 15967.1 547.349   1
   8  -2  -4 13143.3 441.649   4
  -8   2   4 15711.8 758.898   7
  -8   2   3 157850. 1572.03  11
   8  -2  -3 171123. 1541.43   9
  -8   2   3 167337. 1564.62   1
  -8   2   3 162113. 2168.35   7
  -8   2   2 1464.15 283.427  11
  -8   2   2 809.377 427.776   6
   8  -2  -2 1266.92 261.009   9
   8  -2  -2 915.570 287.993   4
  -8   2   2 1405.58 448.133   7
  -8   2   2 1106.41 267.949   1
  -8   2   1 206294. 2256.08   6
   8  -2  -1 210628. 1738.64   9
  -8   2   1 210522. 1718.75   1
  -8   2   1 206201. 2587.65   7
  -8   2   0 1728.86 305.244  11
   8  -2   0 1424.71 286.291   9
  -8   2   0 1303.08 500.757   6
   8  -2   0 1114.95 349.362   4
  -8   2   0 1417.37 272.042   1
  -8   2   0 1803.51 504.573   7
  -8   2  -1 104353. 1248.59  11
  -8   2  -1 120371. 1970.20   6
   8  -2   1 121541. 1356.02   9
   8  -2   1 116287. 1581.08   4
  -8   2  -1 122785. 1283.37   1
  -8   2  -1 109671. 2021.03   7
  -8   2  -2 26134.7 704.327  11
  -8   2  -2 29146.1 1134.96   6
   8  -2   2 29007.8 713.444   9
   8  -2   2 28269.7 852.256   4
  -8   2  -2 26904.8 1242.44   7
  -8   2  -3 41728.9 747.505   1
  -8   2  -3 42231.8 1394.61   6
   8  -2   3 39734.3 857.605   9
   8  -2   3 39233.8 1044.69   4
  -8   2  -4 38047.7 761.746   1
   8  -2   4 37194.6 861.796   9
   8  -2   4 36209.3 1026.25   4
  -8   2  -5 2560.44 388.624  11
  -8   2  -5 2965.85 317.183   1
   8  -2   5 3031.32 371.121   9
   8  -2   5 2895.38 499.253   4
  -8   1  11 21704.2 634.877   1
  -8   1  11 20277.0 861.456   7
  -8   1  10 15143.0 587.535   8
  -8   1  10 14976.2 549.371   1
  -8   1  10 14402.2 682.010   7
  -8   1   9 23865.2 754.597   8
  -8   1   9 23342.5 645.837   1
  -8   1   9 24462.6 869.071   7
  -8   1   8 2082.01 331.079  11
  -8   1   8 2452.34 347.869   8
  -8   1   8 2505.06 298.420   1
  -8   1   8 3106.79 432.786   7
  -8   1   7 69272.1 1105.16  11
   8  -1  -7 70389.4 1040.29   9
  -8   1   7 73856.4 1046.99   1
  -8   1   7 70927.6 1293.89   7
  -8   1   6 197.352 258.642  11
   8  -1  -6-257.959 237.308   9
  -8   1   6-203.369 226.996   1
  -8   1   6 56.2377 364.719   7
  -8   1   5 158747. 1525.50  11
   8  -1  -5 191425. 1789.29   9
  -8   1   5 178706. 1568.93   1
  -8   1   5 169644. 2068.81   7
  -8   1   4 10954.9 463.222  11
  -8   1   4 11700.7 456.655   1
  -8   1   4 10627.6 654.394   7
  -8   1   3 160922. 1496.72  11
  -8   1   3 180544. 1767.90   6
   8  -1  -3 178032. 1642.38   9
   8  -1  -3 155918. 1277.35   4
  -8   1   3 168092. 1481.78   1
  -8   1   3 158594. 2120.99   7
  -8   1   2 34119.8 717.686  11
  -8   1   2 36386.6 903.689   6
   8  -1  -2 37004.1 771.887   9
   8  -1  -2 34522.6 707.053   4
  -8   1   2 35627.0 730.423   1
  -8   1   2 34800.9 1073.60   7
  -8   1   1 123629. 1384.47  11
  -8   1   1 124210. 1717.75   6
   8  -1  -1 123232. 1370.71   9
   8  -1  -1 112720. 1272.78   4
  -8   1   1 111581. 1845.08   7
  -8   1   1 123338. 1265.62   1
  -8   1   0 22457.3 606.830  11
  -8   1   0 27844.2 953.246   6
   8  -1   0 25368.8 660.550   9
   8  -1   0 25432.1 689.590   4
  -8   1   0 23309.3 974.938   7
  -8   1   0 26244.3 621.552   1
  -8   1  -1 6660.10 366.170   1
  -8   1  -1 5971.55 384.349  11
  -8   1  -1 7063.26 644.976   6
   8  -1   1 6975.94 410.619   9
   8  -1   1 7136.39 465.405   4
  -8   1  -1 5867.74 761.282   7
  -8   1  -2 57787.4 883.453   1
  -8   1  -2 59138.7 1461.26   6
   8  -1   2 55358.3 959.489   9
   8  -1   2 57369.6 1096.80   4
  -8   1  -3 1195.77 327.330  11
  -8   1  -3 1116.07 267.731   1
   8  -1   3 1593.56 327.306   9
  -8   1  -3 1684.25 588.737   6
   8  -1   3 1444.21 375.436   4
  -8   1  -4 51339.5 1523.80   6
  -8   1  -4 48791.1 845.915   1
   8  -1   4 47185.1 963.794   9
   8  -1   4 50368.7 1112.68   4
  -8   1  -5 372.280 305.440  11
  -8   1  -5-83.3174 653.659   6
   8  -1   5 374.576 343.511   9
  -8   1  -5 432.185 255.059   1
   8  -1   5 68.3942 419.396   4
  -8   0  11 45241.5 971.078  11
  -8   0  11 46591.5 983.886   8
  -8   0  11 45546.5 818.315   1
  -8   0  10-25.5246 303.034  11
  -8   0  10-400.006 326.300   8
  -8   0  10 305.388 335.533   7
  -8   0  10-190.622 240.286   1
  -8   0   9 68307.6 1079.51  11
  -8   0   9 71373.4 1222.00   8
  -8   0   9 67320.0 968.681   1
  -8   0   9 69459.2 1305.89   7
  -8   0   8 6188.31 402.005  11
  -8   0   8 6063.02 415.654   8
  -8   0   8 6474.73 363.152   1
  -8   0   8 6215.20 467.016   7
   8   0  -7 112003. 1384.54   9
  -8   0   7 114036. 1216.97   1
  -8   0   7 110890. 1577.75   7
  -8   0   6 35358.3 732.807  11
   8   0  -6 35453.6 784.228   9
  -8   0   6 34323.1 697.822   1
  -8   0   5 160517. 1448.81  11
   8   0  -5 164218. 1639.03   9
  -8   0   4 84779.2 1061.04  11
  -8   0   4 85371.2 1461.32   7
  -8   0   4 85064.8 1037.05   1
  -8   0   3 50507.2 804.638  11
  -8   0   3 51667.8 922.043   6
   8   0  -3 52007.1 928.350   9
  -8   0   3 52531.6 1217.02   7
  -8   0   3 54114.0 834.539   1
  -8   0   2 67853.6 956.357  11
  -8   0   2 70423.6 1183.23   6
   8   0  -2 66753.0 1039.85   9
  -8   0   2 69873.7 1390.07   7
  -8   0   2 67614.7 931.180   1
  -8   0   1 11256.9 416.577   1
  -8   0   1 11073.1 452.298  11
  -8   0   1 12700.3 662.826   6
   8   0  -1 12468.2 503.837   9
  -8   0   1 10559.3 704.912   7
  -8   0   0 77553.3 991.013   1
  -8   0   0 79279.7 1481.89   6
   8   0   0 76176.0 1138.94   9
  -8   0  -1 2525.29 310.384   1
  -8   0  -1 1789.95 284.918  11
   8   0   1 2534.37 337.818   9
  -8   0  -1 2291.65 540.140   6
   8   0   1 2168.48 303.340   4
  -8   0  -2 65051.0 1076.50  11
  -8   0  -2 63562.1 920.683   1
  -8   0  -2 64989.2 1491.43   6
   8   0   2 63104.0 1059.59   9
   8   0   2 64525.1 1050.26   4
  -8   0  -3 7723.39 757.974   6
  -8   0  -3 6928.71 389.141   1
   8   0   3 6873.94 442.623   9
   8   0   3 7044.50 452.716   4
   8   0   4 51743.8 1044.21   9
  -8   0  -4 54768.9 896.723   1
   8   0   4 54213.4 1079.02   4
  -8   0  -5 5077.85 441.642  11
  -8   0  -5 6729.92 847.157   6
   8   0   5 6118.63 477.505   9
  -8   0  -5 5423.13 378.827   1
   8   0   5 6744.60 507.853   4
  -8  -1  11 68000.2 1206.93   8
  -8  -1  11 65441.4 908.413   1
  -8  -1  10 23229.5 619.730  11
  -8  -1  10 23060.6 781.589   8
  -8  -1  10 24600.2 586.936   1
  -8  -1   9 67185.1 969.433  11
  -8  -1   9 66462.6 1205.32   8
  -8  -1   9 66930.5 918.108   1
  -8  -1   8 107605. 1188.28  11
  -8  -1   8 106778. 1380.47   8
  -8  -1   8 101257. 1454.74   7
  -8  -1   8 103634. 1120.95   1
  -8  -1   7 76454.1 976.637  11
   8   1  -7 76659.1 1196.11   9
  -8  -1   7 72625.6 1234.19   7
  -8  -1   7 73022.9 947.107   1
   8   1  -6 152107. 1629.72   9
  -8  -1   6 150699. 1770.60   7
  -8  -1   6 152030. 1348.05   1
  -8  -1   5 21331.4 549.833   1
  -8  -1   5 21370.4 543.592  11
   8   1  -5 22162.6 661.489   9
  -8  -1   5 21875.4 738.594   7
  -8  -1   4 111328. 1142.28   1
  -8  -1   4 126677. 1275.39  11
  -8  -1   4 115768. 1185.99   6
   8   1  -4 116801. 1443.72   9
  -8  -1   4 127643. 1671.97   7
  -8  -1   3 57.3852 227.941   1
  -8  -1   3-129.031 211.830  11
  -8  -1   3-95.6176 308.061   6
   8   1  -3-85.7976 240.320   9
  -8  -1   3-11.0401 354.003   7
  -8  -1   2 40991.5 727.954   1
  -8  -1   2 42882.1 759.266  11
  -8  -1   2 39089.9 893.140   6
   8   1  -2 40896.4 848.494   9
  -8  -1   2 44009.2 1213.85   7
  -8  -1   1 20188.9 537.254   1
  -8  -1   1 20099.3 540.385  11
  -8  -1   1 19471.8 719.929   6
   8   1  -1 21274.6 656.709   9
  -8  -1   0 62485.0 952.571  11
  -8  -1   0 63149.9 914.557   1
  -8  -1   0 60844.5 1243.67   6
   8   1   0 60857.6 1030.94   9
  -8  -1  -1 22116.1 616.620  11
  -8  -1  -1 23600.3 596.835   1
   8   1   1 22834.2 678.604   9
  -8  -1  -2 44090.1 875.826  11
  -8  -1  -2 44566.7 1230.33   6
  -8  -1  -2 44131.1 803.759   1
  -8  -1  -3 35082.4 800.823  11
  -8  -1  -3 37171.0 1235.01   6
   8   1   3 35838.5 864.788   9
  -8  -1  -3 37280.3 752.291   1
  -8  -1  -4 50191.3 1027.38  11
   8   1   4 51087.2 1048.26   9
  -8  -1  -4 49074.7 869.146   1
   8   1   5 47025.1 1048.09   9
  -8  -1  -5 46736.3 895.479   1
  -8  -2  11 27125.6 615.923   1
  -8  -2  11 27383.1 747.552   2
  -8  -2  10 111173. 1175.09   1
  -8  -2  10 110282. 1348.54   2
  -8  -2  10 110346. 1620.43   8
  -8  -2   9 6464.70 363.597   1
  -8  -2   9 5928.88 397.036   2
  -8  -2   9 6134.12 493.654   8
  -8  -2   8 124158. 1234.22   1
  -8  -2   8 126177. 1191.71  11
  -8  -2   8 123819. 1500.90   8
  -8  -2   7 2504.82 282.807   1
  -8  -2   7 2644.62 252.858  11
   8   2  -7 2805.47 341.996   9
  -8  -2   6 79499.1 967.959   1
   8   2  -6 83175.8 1262.24   9
  -8  -2   5 14035.7 461.677   1
  -8  -2   5 15282.1 439.694  11
   8   2  -5 14172.4 565.220   9
  -8  -2   4 42055.1 703.065  11
   8   2  -4 41332.3 914.347   9
  -8  -2   3 15496.7 456.145  11
  -8  -2   3 14815.2 548.488   6
   8   2  -3 15096.0 574.064   9
  -8  -2   2 35308.4 687.580  11
  -8  -2   2 35398.6 698.898   1
  -8  -2   2 36498.3 889.193   6
   8   2  -2 36751.7 842.209   9
  -8  -2   1 47092.7 799.034  11
   8   2  -1 46108.9 930.100   9
  -8  -2   0 40534.4 780.350  11
  -8  -2   0 39321.7 1019.14   6
   8   2   0 41493.2 908.888   9
  -8  -2   0 39911.5 748.390   1
  -8  -2  -1 69685.3 1022.72  11
  -8  -2  -1 72827.1 1436.20   6
   8   2   1 77858.7 1242.48   9
  -8  -2  -1 75925.1 1042.23   1
  -8  -2  -2 16179.3 572.945  11
  -8  -2  -2 17746.4 868.343   6
   8   2   2 17053.5 663.392   9
  -8  -2  -2 16862.7 555.751   1
  -8  -2  -3 59346.0 1047.48  11
  -8  -2  -3 68042.5 1548.47   6
   8   2   3 64590.7 1164.69   9
  -8  -2  -3 57684.3 924.729   1
  -8  -2  -4 5802.57 475.996  11
  -8  -2  -4 6192.31 718.099   6
   8   2   4 5444.99 456.839   9
  -8  -2  -4 5429.22 409.035   1
  -8  -3  11 540.717 321.069   2
  -8  -3  11 325.090 218.626   1
  -8  -3  11 672.942 369.477   8
  -8  -3  10 104246. 1104.40   1
  -8  -3  10 112403. 1634.86   8
  -8  -3   9 2212.50 276.170   1
  -8  -3   9 1955.06 406.140   8
  -8  -3   8 71545.4 933.313   1
   8   3  -8 75299.0 1284.25   9
  -8  -3   8 73742.9 1199.46   8
  -8  -3   7 9212.08 399.523   1
   8   3  -7 9023.06 513.891   9
  -8  -3   6 40496.8 636.592  11
  -8  -3   6 38711.7 704.988   1
   8   3  -6 38218.9 913.150   9
  -8  -3   5 41768.1 653.733  11
  -8  -3   5 38925.5 725.455   1
   8   3  -5 42211.4 951.802   9
   8   3  -5 41049.0 1153.79   6
  -8  -3   4 19716.6 517.087  11
   8   3  -4 18289.6 648.553   9
   8   3  -4 17413.0 907.936   6
  -8  -3   3 55800.9 857.001   1
   8   3  -3 53081.0 1036.97   9
  -8  -3   2 10286.0 414.670  11
  -8  -3   2 9861.70 515.189   6
   8   3  -2 9460.05 504.616   9
  -8  -3   2 9558.17 424.352   1
  -8  -3   1 101832. 1147.57  11
  -8  -3   1 102378. 1499.64   6
   8   3  -1 105330. 1449.76   9
  -8  -3   1 106710. 1217.97   1
  -8  -3   0 3919.81 372.253  11
  -8  -3   0 4817.49 531.750   6
   8   3   0 4052.65 414.237   9
  -8  -3   0 3443.27 350.713   1
  -8  -3  -1 111426. 1321.30  11
  -8  -3  -1 113131. 1752.07   6
   8   3   1 116902. 1562.54   9
  -8  -3  -2 27.8904 299.830   1
  -8  -3  -2-55.3073 306.088  11
  -8  -3  -2 393.042 535.476   6
   8   3   2 258.496 308.894   9
  -8  -3  -3 60975.0 1497.59   6
   8   3   3 58293.0 1144.64   9
  -8  -3  -3 57184.5 1000.44   1
  -8  -4  10 37327.6 690.534   1
  -8  -4  10 36240.1 1003.31   8
  -8  -4   9 29574.6 629.206   1
  -8  -4   9 27768.3 856.964   8
   8   4  -8 15760.0 670.736   9
  -8  -4   8 16030.3 494.867   1
  -8  -4   8 16005.9 629.502   8
   8   4  -7 59269.4 1164.93   9
  -8  -4   7 51818.8 821.675   1
   8   4  -6 2971.05 411.827   9
  -8  -4   6 2558.56 278.525   1
   8   4  -5 66479.9 1198.88   9
  -8  -4   5 68624.9 952.869   1
  -8  -4   4 1194.21 222.114  11
   8   4  -4 1152.23 634.833   6
   8   4  -4 1275.05 338.670   9
  -8  -4   4 891.649 260.300   1
  -8  -4   3 93629.7 1060.57  11
   8   4  -3 91487.9 1401.97   9
  -8  -4   3 85921.9 1083.44   1
   8   4  -3 87698.9 1905.98   6
  -8  -4   2 1421.46 260.738  11
   8   4  -2 1890.68 376.193   9
  -8  -4   2 1871.19 284.083   1
  -8  -4   1 118047. 1278.41  11
  -8  -4   1 120181. 1405.08   1
  -8  -4   0 13157.9 512.849  11
   8   4   0 13337.7 617.414   9
  -8  -4   0 13415.0 549.315   1
  -8  -4  -1 48063.1 919.518   1
  -8  -4  -1 45049.4 893.188  11
  -8  -4  -1 55065.8 1292.65   6
   8   4   1 51911.3 1119.51   9
  -8  -4  -2 29849.1 785.947   1
  -8  -4  -2 28999.4 780.049  11
  -8  -4  -2 30570.9 1069.98   6
   8   4   2 30455.8 870.386   9
  -8  -5   9 36426.2 967.854   8
  -8  -5   9 31706.5 639.345   1
   8   5  -8 863.613 365.569   9
  -8  -5   8 260.302 310.286   8
  -8  -5   8 654.074 239.068   1
   8   5  -7 52878.3 1143.21   9
  -8  -5   7 41976.4 751.157   1
   8   5  -6 4619.69 445.042   9
  -8  -5   6 4739.57 379.910   1
  -8  -5   5 63419.8 980.408   1
   8   5  -5 57367.9 1584.34   6
  -8  -5   4 25762.9 670.495   1
   8   5  -4 27888.9 1247.53   6
  -8  -5   3 72289.4 1083.50   1
   8   5  -3 69170.2 1830.89   6
  -8  -5   2 34650.7 718.108  11
   8   5  -2 38279.6 966.583   9
   8   5  -2 35651.0 1470.41   6
  -8  -5   1 39564.1 859.099   1
  -8  -5   1 36532.8 749.678  11
   8   5  -1 37232.7 1541.58   6
  -8  -5   0 36341.2 803.023  11
   8   5   0 38449.3 973.186   9
  -8  -6   5 27912.3 712.227   1
   8   6  -5 26849.9 1315.54   6
  -8  -6   4 55322.4 995.929   1
   8   6  -4 50751.2 1710.32   6
  -9   4   6 67828.9 1272.66   1
  -9   4   6 67125.9 1629.06   7
  -9   4   5 11952.3 630.031  11
  -9   4   5 13815.6 651.677   1
  -9   4   4 53577.0 1125.68   1
  -9   4   4 53663.2 1533.31   7
  -9   4   3 931.721 370.176  11
  -9   4   3 1581.27 381.129   1
  -9   4   3 499.145 557.507   7
  -9   4   2 48194.4 1007.28  11
  -9   4   2 51297.3 1549.70   7
  -9   4   1 3518.87 419.956  11
  -9   4   1 4104.08 414.659   1
   9  -4  -1 2432.96 483.289   4
  -9   4   1 3127.17 641.853   7
  -9   4   0 30535.4 817.330  11
  -9   4   0 31427.8 808.175   1
  -9   4   0 31423.4 1262.89   7
  -9   4  -1 2265.13 421.507  11
   9  -4   1 2110.52 557.091   4
  -9   4  -1 2748.41 365.911   1
  -9   4  -1 2980.70 674.721   7
  -9   3   7 1586.55 387.367  11
  -9   3   7 1746.82 374.743   1
  -9   3   7 2053.69 557.364   7
  -9   3   6 78674.8 1294.66   1
  -9   3   6 73265.9 1638.30   7
  -9   3   5 1081.27 354.400  11
  -9   3   5 787.612 344.598   1
  -9   3   5 108.256 487.685   7
  -9   3   4 49910.8 1004.43   1
  -9   3   4 45897.7 1354.50   7
  -9   3   3 9314.24 509.750  11
  -9   3   3 9966.34 504.138   1
  -9   3   2 27284.0 789.575  11
  -9   3   2 29696.7 761.068   1
  -9   3   2 30408.2 1146.74   7
  -9   3   1 35236.8 841.432  11
   9  -3  -1 35905.4 798.104   9
  -9   3   1 37557.9 847.584   1
  -9   3   1 37728.0 1317.19   7
  -9   3   0 41728.5 906.552  11
   9  -3   0 42262.1 878.269   9
   9  -3   0 38480.7 996.632   4
  -9   3   0 43196.1 875.376   1
  -9   3   0 37547.6 1348.07   7
  -9   3  -1 32316.5 818.190  11
  -9   3  -1 34418.3 1276.59   6
   9  -3   1 32936.3 790.193   9
   9  -3   1 31341.8 962.570   4
  -9   3  -1 31938.8 1282.47   7
  -9   3  -2 14346.2 586.082  11
  -9   3  -2 13996.1 1026.58   6
   9  -3   2 14778.1 590.800   9
   9  -3   2 14165.4 755.017   4
  -9   3  -2 12783.5 1141.91   7
  -9   3  -2 15692.3 578.950   1
  -9   2   8 64910.2 1130.59   1
  -9   2   8 60244.5 1377.76   7
  -9   2   7 14005.2 573.561   1
  -9   2   7 12748.8 756.929   7
  -9   2   6 29009.1 752.105   1
  -9   2   6 28590.7 1058.23   7
   9  -2  -5 29245.6 720.325   9
  -9   2   5 31376.2 771.677   1
  -9   2   5 31023.3 1099.68   7
   9  -2  -4 23193.6 668.700   9
  -9   2   4 22897.1 663.891   1
  -9   2   4 22799.2 960.441   7
  -9   2   3 43485.5 931.516  11
   9  -2  -3 49566.6 937.883   9
  -9   2   3 50235.0 938.549   1
  -9   2   3 43978.8 1276.43   7
  -9   2   2 8828.88 478.990  11
   9  -2  -2 9715.29 483.451   9
   9  -2  -2 7941.45 458.547   4
  -9   2   2 10319.0 475.659   1
  -9   2   2 9509.01 765.633   7
  -9   2   1 51927.5 978.498  11
   9  -2  -1 55323.1 989.179   9
   9  -2  -1 50453.0 1000.06   4
  -9   2   1 58389.1 1010.13   1
  -9   2   1 54090.2 1495.26   7
  -9   2   0 2842.62 365.270  11
   9  -2   0 2744.42 337.560   9
  -9   2   0 2743.40 616.733   6
   9  -2   0 3093.02 420.225   4
  -9   2   0 3368.32 354.180   1
  -9   2   0 2336.82 609.304   7
  -9   2  -1 80469.3 1776.03   6
   9  -2   1 79732.8 1215.53   9
   9  -2   1 77491.6 1364.05   4
  -9   2  -1 81506.5 1147.03   1
  -9   2  -2-130.083 259.769   1
  -9   2  -2 104.962 314.453  11
  -9   2  -2-251.204 641.475   6
   9  -2   2 390.704 297.583   9
   9  -2   2 168.633 399.091   4
  -9   2  -3 87941.4 1179.36   1
   9  -2   3 84707.6 1297.70   9
   9  -2   3 86946.8 1565.31   4
  -9   1   9 13532.8 641.305  11
  -9   1   9 14208.2 647.968   8
  -9   1   9 14217.2 565.167   1
  -9   1   8 17153.6 637.873   8
  -9   1   8 18351.8 613.216   1
  -9   1   7 29421.1 773.485  11
   9  -1  -7 31192.6 772.498   9
  -9   1   7 29619.6 990.469   7
  -9   1   6 5037.13 417.881  11
   9  -1  -6 5180.09 404.333   9
  -9   1   6 5561.85 392.513   1
  -9   1   6 5059.86 565.533   7
  -9   1   5 49858.7 934.031  11
   9  -1  -5 52925.3 999.474   9
  -9   1   5 52251.9 915.867   1
  -9   1   4 1593.06 311.332   1
  -9   1   4 2193.14 335.989  11
   9  -1  -4 1789.94 307.430   9
  -9   1   4 1168.83 444.780   7
  -9   1   3 86845.8 1196.22  11
   9  -1  -3 92347.7 1290.89   9
  -9   1   3 87422.6 1733.18   7
  -9   1   3 90882.0 1180.59   1
  -9   1   2 1163.28 340.794  11
   9  -1  -2 2449.27 343.981   9
   9  -1  -2 1621.38 279.297   4
  -9   1   2 1660.10 303.162   1
  -9   1   2 1774.00 532.750   7
  -9   1   1 90396.6 1215.48  11
  -9   1   1 105236. 1707.09   6
   9  -1  -1 100986. 1345.98   9
   9  -1  -1 96564.1 1226.28   4
  -9   1   1 93173.3 1849.26   7
  -9   1   1 101587. 1237.36   1
  -9   1   0 14158.5 509.887   1
  -9   1   0 11956.7 536.938  11
  -9   1   0 12995.9 803.151   6
   9  -1   0 13152.7 550.402   9
   9  -1   0 12956.2 555.077   4
  -9   1   0 12186.9 961.779   7
  -9   1  -1 108174. 1275.65   1
  -9   1  -1 105531. 1936.82   6
   9  -1   1 103900. 1423.41   9
   9  -1   1 102799. 1422.51   4
  -9   1  -2 16958.2 593.568   1
  -9   1  -2 14478.1 592.672  11
  -9   1  -2 17515.3 987.107   6
   9  -1   2 15571.2 621.404   9
   9  -1   2 15460.3 654.338   4
  -9   1  -3 37784.0 810.979   1
  -9   1  -3 35250.1 1360.74   6
   9  -1   3 33773.6 871.500   9
   9  -1   3 34061.4 952.942   4
  -9   0   9 34705.1 824.126  11
  -9   0   9 36381.8 982.455   8
  -9   0   9 36175.8 789.570   1
  -9   0   8 566.614 288.891   1
  -9   0   8 195.814 302.147  11
   9   0  -8 815.752 315.114   9
  -9   0   8 1007.43 340.234   8
  -9   0   8 615.505 412.845   7
  -9   0   7 77595.2 1116.55  11
   9   0  -7 81063.3 1256.47   9
  -9   0   7 79430.7 1096.94   1
  -9   0   6-80.3009 273.189   1
  -9   0   6 384.757 278.643  11
   9   0  -6 280.345 293.871   9
  -9   0   6 353.928 415.365   7
  -9   0   5 92508.5 1196.61  11
   9   0  -5 92906.6 1345.91   9
  -9   0   5 96326.0 1183.70   1
  -9   0   4 17414.0 552.844  11
   9   0  -4 18664.5 653.153   9
  -9   0   4 16317.0 791.775   7
  -9   0   4 16850.4 543.975   1
  -9   0   3 99298.9 1211.59   1
  -9   0   3 102194. 1259.85  11
   9   0  -3 102422. 1395.14   9
  -9   0   3 103828. 1784.64   7
  -9   0   2 37440.2 755.187   1
  -9   0   2 35545.9 762.557  11
   9   0  -2 37535.2 869.456   9
  -9   0   2 37140.9 1197.57   7
  -9   0   1 66256.7 1000.74   1
  -9   0   1 64666.6 1037.20  11
  -9   0   1 67487.7 1356.92   6
   9   0  -1 62803.9 1100.80   9
  -9   0   1 67739.5 1784.97   7
  -9   0   0 73777.9 1499.26   6
   9   0   0 75458.7 1236.71   9
  -9   0  -1 21955.9 680.081  11
  -9   0  -1 24346.8 648.205   1
  -9   0  -1 23488.9 1057.07   6
   9   0   1 23942.2 757.654   9
  -9   0  -2 56215.7 951.553   1
   9   0   2 59804.6 1184.62   9
  -9   0  -3 678.747 342.969  11
  -9   0  -3 626.010 686.872   6
   9   0   3 892.258 380.534   9
  -9   0  -3 914.554 302.790   1
  -9  -1   9 48702.1 862.679  11
  -9  -1   9 47778.1 1085.41   8
  -9  -1   9 49170.0 855.591   1
  -9  -1   8 15716.1 522.709  11
   9   1  -8 14429.4 631.282   9
  -9  -1   8 14985.9 520.053   1
  -9  -1   7 72367.0 1028.25   1
  -9  -1   7 75436.0 1060.54  11
  -9  -1   6 47994.8 836.330   1
  -9  -1   6 47598.4 814.165  11
  -9  -1   5 53287.4 912.594   1
  -9  -1   5 51766.7 866.507  11
   9   1  -5 51042.1 1041.63   9
  -9  -1   4 71570.3 1005.40   1
  -9  -1   4 71116.8 994.407  11
   9   1  -4 70704.7 1217.15   9
  -9  -1   4 70958.8 1389.84   7
  -9  -1   3 47194.1 828.204   1
  -9  -1   3 47047.0 855.141  11
   9   1  -3 47548.6 1001.91   9
  -9  -1   2 94292.0 1169.71   1
  -9  -1   2 91358.2 1145.94  11
   9   1  -2 91877.3 1359.22   9
  -9  -1   1 3451.53 352.148  11
  -9  -1   1 3405.98 345.338   1
  -9  -1   1 3452.19 502.292   6
   9   1  -1 2870.97 375.083   9
  -9  -1   0 54534.9 969.013  11
  -9  -1   0 55946.5 934.902   1
  -9  -1   0 55681.6 1288.29   6
   9   1   0 57552.7 1134.61   9
  -9  -1  -1 3133.23 362.798  11
  -9  -1  -1 4057.51 588.445   6
  -9  -1  -1 3711.71 352.740   1
   9   1   1 3740.37 421.840   9
  -9  -1  -2 37618.6 862.815  11
  -9  -1  -2 39904.8 1266.66   6
   9   1   2 40123.9 971.522   9
  -9  -1  -2 41814.1 857.719   1
  -9  -2   9 42487.7 786.906   1
  -9  -2   9 44113.8 1090.25   8
  -9  -2   8 53839.7 865.529   1
   9   2  -8 53380.7 1137.79   9
  -9  -2   7 35511.0 745.275   1
  -9  -2   7 37016.4 705.091  11
   9   2  -7 36101.4 926.774   9
  -9  -2   6 110124. 1271.06   1
  -9  -2   6 108002. 1140.79  11
  -9  -2   5 6443.07 379.520  11
  -9  -2   5 6894.71 378.006   1
  -9  -2   4 91312.6 1072.98  11
  -9  -2   4 89065.5 1135.52   1
   9   2  -4 92650.6 1432.50   9
  -9  -2   3 143.779 245.969  11
  -9  -2   3 300.835 267.983   1
   9   2  -3 175.850 315.866   9
  -9  -2   2 67086.2 994.152  11
  -9  -2   2 69454.0 1035.24   1
  -9  -2   2 68378.8 1254.10   6
   9   2  -2 67643.2 1224.90   9
  -9  -2   1 17624.6 573.982  11
  -9  -2   1 18486.5 774.224   6
  -9  -2   1 17611.2 554.256   1
   9   2  -1 18148.5 696.349   9
  -9  -2   0 24863.2 687.320  11
  -9  -2   0 27281.1 1026.07   6
   9   2   0 28066.5 844.397   9
  -9  -2   0 26587.2 702.349   1
  -9  -2  -1 15570.0 588.370  11
  -9  -2  -1 17389.3 888.562   6
   9   2   1 16977.5 687.711   9
  -9  -2  -1 17317.0 601.759   1
  -9  -3   8 133464. 1346.95   1
  -9  -3   8 133419. 1693.13   8
  -9  -3   7 623.807 263.626   1
   9   3  -7 946.656 349.073   9
  -9  -3   6 84559.6 1110.20   1
   9   3  -6 87158.4 1429.14   9
  -9  -3   5 5188.47 343.195  11
  -9  -3   5 4412.13 335.121   1
   9   3  -5 5483.91 471.039   9
  -9  -3   4 31160.9 652.501  11
  -9  -3   4 30809.2 709.348   1
  -9  -3   3 30420.9 678.002  11
   9   3  -3 31383.2 905.111   9
  -9  -3   3 30750.2 719.355   1
  -9  -3   2 14110.2 509.933  11
  -9  -3   2 13854.9 652.098   6
   9   3  -2 15363.4 670.762   9
  -9  -3   2 13422.7 510.869   1
  -9  -3   1 39150.7 819.337  11
  -9  -3   1 38666.9 1006.50   6
   9   3  -1 41618.5 1007.44   9
  -9  -3   1 40979.6 838.885   1
  -9  -3   0 7966.18 474.219  11
  -9  -3   0 7506.81 641.831   6
   9   3   0 8139.77 543.671   9
  -9  -3   0 7455.06 454.409   1
   9   4  -7 31744.0 929.278   9
  -9  -4   7 28396.0 701.267   1
   9   4  -6 14589.8 682.898   9
  -9  -4   6 12623.4 503.008   1
   9   4  -5 31567.0 915.496   9
  -9  -4   5 25791.2 676.531   1
   9   4  -4 3610.74 445.837   9
  -9  -4   4 3422.07 356.595   1
  -9  -4   3 59321.3 922.147  11
  -9  -4   3 55638.7 968.536   1
   9   4  -3 58066.7 1750.15   6
  -9  -4   2 1037.76 293.374  11
   9   4  -2 642.540 814.541   6
   9   4  -2 1269.73 377.884   9
  -9  -4   2 920.082 308.733   1
  10  -1  -5 24050.5 804.513   9
 -10   1   5 21667.6 987.833   7
 -10   1   5 23844.2 692.067   1
 -10   1   4 3325.19 387.838  11
  10  -1  -4 3259.74 413.422   9
 -10   1   4 3681.62 603.122   7
 -10   1   4 3388.28 371.980   1
 -10   1   3 33862.5 848.826  11
  10  -1  -3 38749.3 951.430   9
 -10   1   3 34855.9 1265.70   7
 -10   1   3 36884.1 835.394   1
 -10   1   2 2361.48 354.591   1
 -10   1   2 2090.31 348.794  11
  10  -1  -2 2380.37 387.434   9
 -10   1   2 1435.59 633.852   7
 -10   0   5 43777.2 892.515   1
 -10   0   5 43891.8 945.766  11
  10   0  -5 41486.7 994.709   9
 -10   0   4 213.226 287.862   1
 -10   0   4 765.194 358.520  11
  10   0  -4 1108.97 361.434   9
 -10   0   3 58028.4 1052.21  11
  10   0  -3 59403.3 1171.68   9
 -10   0   3 55985.9 1538.36   7
 -10   0   2 1927.04 343.045   1
 -10   0   2 2083.30 366.509  11
  10   0  -2 1997.19 400.450   9
 -10   0   2 2019.12 724.080   7
 -10  -1   5 60430.7 1003.83   1
 -10  -1   5 62890.1 1029.78  11
  10   1  -5 63177.8 1245.41   9
 -10  -1   4 9782.95 490.643   1
 -10  -1   4 10426.6 505.632  11
  10   1  -4 10300.3 587.703   9
 -10  -1   3 72431.4 1098.61  11
  10   1  -3 74884.3 1359.76   9
   0   0   0    0.00    0.00   0

TITL abs_cor_77A in P-1
REM P-1 (#2 in standard setting)
CELL 0.71073   7.790219   7.850062  11.597843 101.2717 104.3282  91.4381
ZERR    2.00   0.000173   0.000249   0.000285   0.0024   0.0020   0.0022
LATT  1
SFAC C H N Cl Pt
UNIT 24.00 34.00 2.00 4.00 2.00
TREF
HKLF 4
END
;
_shelx_hkl_checksum              83352
loop_
_space_group_symop_operation_xyz
'x, y, z'
'-x, -y, -z'
loop_
_atom_site_label
_atom_site_type_symbol
_atom_site_fract_x
_atom_site_fract_y
_atom_site_fract_z
_atom_site_U_iso_or_equiv
_atom_site_adp_type
_atom_site_occupancy
_atom_site_site_symmetry_order
_atom_site_calc_flag
_atom_site_refinement_flags_posn
_atom_site_refinement_flags_adp
Pt1 Pt 0.43319(2) 0.58991(2) 0.77170(2) 0.01418(5) Uani 1 1 d . .
Cl1 Cl 0.62492(9) 0.42392(10) 0.68715(7) 0.01950(14) Uani 1 1 d . .
Cl2 Cl 0.21963(9) 0.74685(10) 0.83758(7) 0.02054(14) Uani 1 1 d . .
N1 N 0.2303(3) 0.4253(3) 0.6473(2) 0.0162(5) Uani 1 1 d . .
C2 C -0.0344(4) 0.2407(4) 0.5950(3) 0.0205(6) Uani 1 1 d . .
H2 H -0.1223 0.1857 0.6195 0.025 Uiso 1 1 calc R U
C9 C 0.6227(3) 0.7989(4) 0.8393(3) 0.0177(5) Uani 1 1 d . .
C7 C 0.8082(4) 1.0549(4) 0.8455(3) 0.0216(6) Uani 1 1 d . .
H7A H 0.8506 1.0468 0.9292 0.032 Uiso 1 1 calc R U
H7B H 0.7676 1.1685 0.8412 0.032 Uiso 1 1 calc R U
H7C H 0.9028 1.0362 0.8060 0.032 Uiso 1 1 calc R U
C1 C 0.0989(3) 0.3492(4) 0.6797(3) 0.0183(5) Uani 1 1 d . .
H1 H 0.0977 0.3702 0.7613 0.022 Uiso 1 1 calc R U
C3 C -0.0367(4) 0.2142(4) 0.4736(3) 0.0217(6) Uani 1 1 d . .
H3 H -0.1265 0.1424 0.4149 0.026 Uiso 1 1 calc R U
C8 C 0.6571(3) 0.9189(4) 0.7831(3) 0.0171(5) Uani 1 1 d . .
C6 C 0.5546(4) 0.9334(4) 0.6587(3) 0.0213(6) Uani 1 1 d . .
H6A H 0.4766 0.8301 0.6217 0.032 Uiso 1 1 calc R U
H6B H 0.6354 0.9464 0.6100 0.032 Uiso 1 1 calc R U
H6C H 0.4858 1.0330 0.6645 0.032 Uiso 1 1 calc R U
C10 C 0.6530(4) 0.7153(4) 0.9350(3) 0.0189(5) Uani 1 1 d . .
C5 C 0.2283(4) 0.3983(4) 0.5292(3) 0.0199(6) Uani 1 1 d . .
H5 H 0.3197 0.4510 0.5068 0.024 Uiso 1 1 calc R U
C4 C 0.0968(4) 0.2962(4) 0.4409(3) 0.0205(6) Uani 1 1 d . .
H4 H 0.0973 0.2821 0.3594 0.025 Uiso 1 1 calc R U
C12 C 0.8083(4) 0.6052(4) 0.9586(3) 0.0212(6) Uani 1 1 d . .
H12A H 0.8531 0.5791 0.8876 0.032 Uiso 1 1 calc R U
H12B H 0.7706 0.4987 0.9772 0.032 Uiso 1 1 calc R U
H12C H 0.9003 0.6676 1.0261 0.032 Uiso 1 1 calc R U
C11 C 0.5846(4) 0.7765(4) 1.0455(3) 0.0206(6) Uani 1 1 d . .
H11A H 0.6776 0.8455 1.1091 0.031 Uiso 1 1 calc R U
H11B H 0.5468 0.6775 1.0727 0.031 Uiso 1 1 calc R U
H11C H 0.4860 0.8456 1.0251 0.031 Uiso 1 1 calc R U
loop_
_atom_site_aniso_label
_atom_site_aniso_U_11
_atom_site_aniso_U_22
_atom_site_aniso_U_33
_atom_site_aniso_U_23
_atom_site_aniso_U_13
_atom_site_aniso_U_12
Pt1 0.01327(7) 0.01564(7) 0.01438(8) 0.00293(5) 0.00507(5) 0.00134(4)
Cl1 0.0185(3) 0.0215(3) 0.0203(3) 0.0035(3) 0.0085(2) 0.0060(2)
Cl2 0.0162(3) 0.0245(3) 0.0196(3) -0.0006(3) 0.0057(2) 0.0048(2)
N1 0.0164(10) 0.0154(11) 0.0170(12) 0.0037(9) 0.0044(9) 0.0024(8)
C2 0.0166(12) 0.0186(13) 0.0281(15) 0.0065(11) 0.0074(11) 0.0020(10)
C9 0.0158(12) 0.0175(13) 0.0190(13) 0.0011(10) 0.0050(10) 0.0012(10)
C7 0.0199(13) 0.0211(14) 0.0240(14) 0.0055(11) 0.0058(11) -0.0036(10)
C1 0.0178(12) 0.0207(13) 0.0185(13) 0.0051(10) 0.0077(10) 0.0037(10)
C3 0.0175(12) 0.0202(14) 0.0244(14) 0.0004(11) 0.0027(10) 0.0047(10)
C8 0.0147(11) 0.0177(13) 0.0196(13) 0.0029(10) 0.0066(10) 0.0017(10)
C6 0.0227(14) 0.0222(14) 0.0206(14) 0.0083(11) 0.0058(11) 0.0008(11)
C10 0.0171(12) 0.0208(14) 0.0168(13) 0.0022(10) 0.0027(10) -0.0023(10)
C5 0.0191(13) 0.0223(14) 0.0204(14) 0.0054(11) 0.0080(11) 0.0044(10)
C4 0.0188(13) 0.0246(14) 0.0177(13) 0.0035(11) 0.0042(10) 0.0055(11)
C12 0.0189(13) 0.0253(15) 0.0191(13) 0.0061(11) 0.0028(10) 0.0032(10)
C11 0.0229(13) 0.0236(14) 0.0154(13) 0.0026(11) 0.0064(11) 0.0001(11)
loop_
_atom_type_symbol
_atom_type_description
_atom_type_scat_dispersion_real
_atom_type_scat_dispersion_imag
_atom_type_scat_source
C C 0.0033 0.0016 'International Tables Vol C Tables 4.2.6.8 and 6.1.1.4'
H H 0.0000 0.0000 'International Tables Vol C Tables 4.2.6.8 and 6.1.1.4'
N N 0.0061 0.0033 'International Tables Vol C Tables 4.2.6.8 and 6.1.1.4'
Cl Cl 0.1484 0.1585 'International Tables Vol C Tables 4.2.6.8 and 6.1.1.4'
Pt Pt -1.7033 8.3905 'International Tables Vol C Tables 4.2.6.8 and 6.1.1.4'
loop_
_geom_angle_atom_site_label_1
_geom_angle_atom_site_label_2
_geom_angle_atom_site_label_3
_geom_angle
C9 Pt1 N1 158.01(12)
C9 Pt1 C10 36.69(11)
N1 Pt1 C10 165.19(11)
C9 Pt1 Cl1 91.61(8)
N1 Pt1 Cl1 86.72(7)
C10 Pt1 Cl1 91.96(8)
C9 Pt1 Cl2 92.45(8)
N1 Pt1 Cl2 87.89(7)
C10 Pt1 Cl2 93.88(8)
Cl1 Pt1 Cl2 174.07(2)
C1 N1 C5 118.9(2)
C1 N1 Pt1 122.67(19)
C5 N1 Pt1 118.36(19)
C1 C2 C3 119.5(3)
C1 C2 H2 120.3
C3 C2 H2 120.3
C8 C9 C10 153.7(3)
C8 C9 Pt1 127.3(2)
C10 C9 Pt1 78.85(17)
C8 C7 H7A 109.5
C8 C7 H7B 109.5
H7A C7 H7B 109.5
C8 C7 H7C 109.5
H7A C7 H7C 109.5
H7B C7 H7C 109.5
N1 C1 C2 121.4(3)
N1 C1 H1 119.3
C2 C1 H1 119.3
C4 C3 C2 118.6(3)
C4 C3 H3 120.7
C2 C3 H3 120.7
C9 C8 C6 124.4(2)
C9 C8 C7 119.3(3)
C6 C8 C7 116.4(2)
C8 C6 H6A 109.5
C8 C6 H6B 109.5
H6A C6 H6B 109.5
C8 C6 H6C 109.5
H6A C6 H6C 109.5
H6B C6 H6C 109.5
C9 C10 C12 120.8(3)
C9 C10 C11 122.2(3)
C12 C10 C11 113.2(2)
C9 C10 Pt1 64.46(16)
C12 C10 Pt1 113.12(19)
C11 C10 Pt1 111.85(19)
N1 C5 C4 122.2(3)
N1 C5 H5 118.9
C4 C5 H5 118.9
C5 C4 C3 119.3(3)
C5 C4 H4 120.4
C3 C4 H4 120.4
C10 C12 H12A 109.5
C10 C12 H12B 109.5
H12A C12 H12B 109.5
C10 C12 H12C 109.5
H12A C12 H12C 109.5
H12B C12 H12C 109.5
C10 C11 H11A 109.5
C10 C11 H11B 109.5
H11A C11 H11B 109.5
C10 C11 H11C 109.5
H11A C11 H11C 109.5
H11B C11 H11C 109.5
loop_
_geom_bond_atom_site_label_1
_geom_bond_atom_site_label_2
_geom_bond_distance
Pt1 C9 2.071(3)
Pt1 N1 2.071(2)
Pt1 C10 2.252(3)
Pt1 Cl1 2.2834(7)
Pt1 Cl2 2.2877(7)
N1 C1 1.340(3)
N1 C5 1.340(4)
C2 C1 1.376(4)
C2 C3 1.379(4)
C2 H2 0.9300
C9 C8 1.304(4)
C9 C10 1.371(4)
C7 C8 1.504(4)
C7 H7A 0.9600
C7 H7B 0.9600
C7 H7C 0.9600
C1 H1 0.9300
C3 C4 1.377(4)
C3 H3 0.9300
C8 C6 1.493(4)
C6 H6A 0.9600
C6 H6B 0.9600
C6 H6C 0.9600
C10 C12 1.505(4)
C10 C11 1.506(4)
C5 C4 1.364(4)
C5 H5 0.9300
C4 H4 0.9300
C12 H12A 0.9600
C12 H12B 0.9600
C12 H12C 0.9600
C11 H11A 0.9600
C11 H11B 0.9600
C11 H11C 0.9600
