#------------------------------------------------------------------------------
#$Date: 2016-08-05 03:43:14 +0300 (Fri, 05 Aug 2016) $
#$Revision: 184853 $
#$URL: file:///home/coder/svn-repositories/cod/cif/4/08/66/4086623.cif $
#------------------------------------------------------------------------------
#
# This file is available in the Crystallography Open Database (COD),
# http://www.crystallography.net/
#
# All data on this site have been placed in the public domain by the
# contributors.
#
data_4086623
loop_
_publ_author_name
'Shynkaruk, Olena'
'Qi, Yanyu'
'Cottrell-Callbeck, Aiden'
'Torres Delgado, William'
'McDonald, Robert'
'Ferguson, Michael J.'
'He, Gang'
'Rivard, Eric'
_publ_section_title
;
 Modular Synthesis of Diarylalkynes and Their Efficient Conversion into
 Luminescent Tetraarylbutadienes
;
_journal_issue                   13
_journal_name_full               Organometallics
_journal_page_first              2232
_journal_paper_doi               10.1021/acs.organomet.6b00298
_journal_volume                  35
_journal_year                    2016
_chemical_formula_moiety         'C38 H28 N2'
_chemical_formula_sum            'C38 H28 N2'
_chemical_formula_weight         512.62
_chemical_name_common            5
_space_group_crystal_system      triclinic
_space_group_IT_number           2
_space_group_name_Hall           '-P 1'
_space_group_name_H-M_alt        'P -1'
_symmetry_space_group_name_Hall  '-P 1'
_symmetry_space_group_name_H-M   'P -1'
_atom_sites_solution_hydrogens   geom
_audit_creation_method           SHELXL-2014/7
_cell_angle_alpha                104.2892(5)
_cell_angle_beta                 98.3322(5)
_cell_angle_gamma                93.1680(6)
_cell_formula_units_Z            1
_cell_length_a                   5.61635(9)
_cell_length_b                   11.25535(19)
_cell_length_c                   11.73665(18)
_cell_measurement_reflns_used    9938
_cell_measurement_temperature    233(2)
_cell_measurement_theta_max      73.60
_cell_measurement_theta_min      3.94
_cell_volume                     708.16(2)
_computing_cell_refinement       'Bruker SAINT'
_computing_data_collection       'Bruker APEX2'
_computing_data_reduction        'Bruker SAINT'
_computing_molecular_graphics    'Bruker SHELXTL'
_computing_publication_material  'Bruker SHELXTL'
_computing_structure_refinement  'SHELXL-2014/7 (Sheldrick, 2014)'
_computing_structure_solution    'SHELXT-2014 (Sheldrick, 2015)'
_diffrn_ambient_temperature      233(2)
_diffrn_measured_fraction_theta_full 0.963
_diffrn_measured_fraction_theta_max 0.960
_diffrn_measurement_device_type  'Bruker APEX-II CCD'
_diffrn_measurement_method       '\f and \w scans'
_diffrn_radiation_type           CuK\a
_diffrn_radiation_wavelength     1.54178
_diffrn_reflns_av_R_equivalents  0.0311
_diffrn_reflns_av_unetI/netI     0.0360
_diffrn_reflns_Laue_measured_fraction_full 0.963
_diffrn_reflns_Laue_measured_fraction_max 0.960
_diffrn_reflns_limit_h_max       6
_diffrn_reflns_limit_h_min       -6
_diffrn_reflns_limit_k_max       11
_diffrn_reflns_limit_k_min       -13
_diffrn_reflns_limit_l_max       14
_diffrn_reflns_limit_l_min       -14
_diffrn_reflns_number            4967
_diffrn_reflns_point_group_measured_fraction_full 0.963
_diffrn_reflns_point_group_measured_fraction_max 0.960
_diffrn_reflns_theta_full        67.679
_diffrn_reflns_theta_max         73.815
_diffrn_reflns_theta_min         3.940
_exptl_absorpt_coefficient_mu    0.534
_exptl_absorpt_correction_T_max  1.0000
_exptl_absorpt_correction_T_min  0.6977
_exptl_absorpt_correction_type   numerical
_exptl_absorpt_process_details   'SADABS 2014/5'
_exptl_crystal_colour            colourless
_exptl_crystal_density_diffrn    1.202
_exptl_crystal_description       fragment
_exptl_crystal_F_000             270
_exptl_crystal_size_max          0.283
_exptl_crystal_size_mid          0.268
_exptl_crystal_size_min          0.080
_refine_diff_density_max         0.279
_refine_diff_density_min         -0.221
_refine_diff_density_rms         0.053
_refine_ls_extinction_coef       0.020(3)
_refine_ls_extinction_expression Fc^*^=kFc[1+0.001xFc^2^\l^3^/sin(2\q)]^-1/4^
_refine_ls_extinction_method     'SHELXL-2014/7 (Sheldrick 2014'
_refine_ls_goodness_of_fit_ref   1.064
_refine_ls_hydrogen_treatment    constr
_refine_ls_matrix_type           full
_refine_ls_number_parameters     182
_refine_ls_number_reflns         2733
_refine_ls_number_restraints     0
_refine_ls_restrained_S_all      1.064
_refine_ls_R_factor_all          0.0535
_refine_ls_R_factor_gt           0.0515
_refine_ls_shift/su_max          0.000
_refine_ls_shift/su_mean         0.000
_refine_ls_structure_factor_coef Fsqd
_refine_ls_weighting_details
'w=1/[\s^2^(Fo^2^)+(0.0859P)^2^+0.1159P] where P=(Fo^2^+2Fc^2^)/3'
_refine_ls_weighting_scheme      calc
_refine_ls_wR_factor_gt          0.1426
_refine_ls_wR_factor_ref         0.1453
_reflns_Friedel_coverage         0.000
_reflns_number_gt                2540
_reflns_number_total             2733
_reflns_threshold_expression     'I > 2\s(I)'
_cod_data_source_file            om6b00298_si_002.cif
_cod_data_source_block           riv15e1
_cod_database_code               4086623
_shelx_shelxl_version_number     2014/7
_shelx_space_group_comment
; 
The symmetry employed for this shelxl refinement is uniquely defined 
by the following loop, which should always be used as a source of 
symmetry information in preference to the above space-group names. 
They are only intended as comments. 
;
_shelx_estimated_absorpt_t_min   0.864
_shelx_estimated_absorpt_t_max   0.959
_shelx_res_file
; 
  
    riv15e1.res created by SHELXL-2014/7 
  
  
TITL riv15e1 in P-1 
CELL 1.54178 5.61635 11.25535 11.73665 104.2892 98.3322 93.1680 
ZERR    1.00 0.00009  0.00019  0.00018   0.0005  0.0005  0.0006 
LATT 1 
SFAC C  H  N 
UNIT 38 28 2 
SIZE 0.08 0.268 0.283 
TEMP -40 
L.S. 4 
ACTA 
CONF 
WGHT    0.085900    0.115900 
EXTI    0.019507 
FVAR       0.53649 
N     3   -0.075612    0.814395    0.204217    11.00000    0.06187    0.02820 = 
         0.03962    0.00685   -0.01862    0.01026 
C1    1    0.442967    0.531623    0.474172    11.00000    0.04281    0.03752 = 
         0.03786    0.01190    0.00075    0.01375 
C2    1    0.308987    0.605427    0.409101    11.00000    0.03949    0.03509 = 
         0.03184    0.01071    0.00241    0.01562 
C3    1    0.070497    0.567767    0.353507    11.00000    0.04278    0.03020 = 
         0.04135    0.01134    0.00034    0.00817 
AFIX  43 
H3    2   -0.005707    0.494595    0.361800    11.00000   -1.20000 
AFIX   0 
C4    1   -0.055650    0.636041    0.286514    11.00000    0.03631    0.03368 = 
         0.04153    0.00875   -0.00555    0.00700 
AFIX  43 
H4    2   -0.216229    0.608875    0.249950    11.00000   -1.20000 
AFIX   0 
C5    1    0.052864    0.744817    0.272611    11.00000    0.04187    0.02986 = 
         0.03168    0.00795   -0.00350    0.01231 
C6    1    0.288659    0.784967    0.330678    11.00000    0.04060    0.03864 = 
         0.04439    0.01834   -0.00156    0.00401 
AFIX  43 
H6    2    0.363033    0.859377    0.324207    11.00000   -1.20000 
AFIX   0 
C7    1    0.414238    0.716316    0.397747    11.00000    0.03228    0.04634 = 
         0.04459    0.01791   -0.00275    0.00784 
AFIX  43 
H7    2    0.573107    0.744821    0.436319    11.00000   -1.20000 
AFIX   0 
C8    1   -0.231621    0.758066    0.095997    11.00000    0.03840    0.03573 = 
         0.03087    0.00887   -0.00300    0.00709 
C9    1   -0.185412    0.648441    0.021524    11.00000    0.05352    0.03613 = 
         0.03985    0.00724   -0.00101    0.01234 
AFIX  43 
H9    2   -0.047283    0.609938    0.042299    11.00000   -1.20000 
AFIX   0 
C10   1   -0.343315    0.595534   -0.083799    11.00000    0.07614    0.03897 = 
         0.03765    0.00304   -0.00097   -0.00022 
AFIX  43 
H10   2   -0.313687    0.520035   -0.132903    11.00000   -1.20000 
AFIX   0 
C11   1   -0.542192    0.652418   -0.116874    11.00000    0.05970    0.06024 = 
         0.04364    0.01113   -0.01677   -0.01351 
AFIX  43 
H11   2   -0.647368    0.616757   -0.188731    11.00000   -1.20000 
AFIX   0 
C12   1   -0.586039    0.761993   -0.043929    11.00000    0.03878    0.07913 = 
         0.05531    0.01517   -0.01046    0.01275 
AFIX  43 
H12   2   -0.721640    0.801402   -0.066469    11.00000   -1.20000 
AFIX   0 
C13   1   -0.433248    0.814963    0.062152    11.00000    0.04444    0.05792 = 
         0.04125    0.00648   -0.00100    0.01970 
AFIX  43 
H13   2   -0.465948    0.889675    0.111479    11.00000   -1.20000 
AFIX   0 
C14   1   -0.025497    0.945145    0.238337    11.00000    0.03959    0.02914 = 
         0.03040    0.00847   -0.00428    0.01158 
C15   1   -0.075867    1.011886    0.346317    11.00000    0.05816    0.04566 = 
         0.03345    0.00815    0.00692    0.01039 
AFIX  43 
H15   2   -0.148386    0.971985    0.395893    11.00000   -1.20000 
AFIX   0 
C16   1   -0.018163    1.138637    0.380840    11.00000    0.08241    0.04576 = 
         0.04526   -0.00678   -0.00082    0.02072 
AFIX  43 
H16   2   -0.050423    1.184674    0.454513    11.00000   -1.20000 
AFIX   0 
C17   1    0.085901    1.197094    0.307790    11.00000    0.08365    0.02992 = 
         0.07523    0.01291   -0.02083    0.00352 
AFIX  43 
H17   2    0.126999    1.282695    0.332105    11.00000   -1.20000 
AFIX   0 
C18   1    0.129613    1.130547    0.199634    11.00000    0.06448    0.05415 = 
         0.06893    0.03473   -0.00161   -0.00151 
AFIX  43 
H18   2    0.197573    1.170884    0.149064    11.00000   -1.20000 
AFIX   0 
C19   1    0.074626    1.005144    0.164695    11.00000    0.05005    0.04936 = 
         0.03971    0.01757    0.00785    0.01631 
AFIX  43 
H19   2    0.105263    0.959966    0.090355    11.00000   -1.20000 
  
AFIX   0 
HKLF 4 
  
REM  riv15e1 in P-1 
REM R1 =  0.0515 for    2540 Fo > 4sig(Fo)  and  0.0535 for all    2733 data 
REM    182 parameters refined using      0 restraints 
  
END 
  
WGHT      0.0859      0.1159 
  
REM Highest difference peak  0.279,  deepest hole -0.221,  1-sigma level  0.053 
Q1    1  -0.4155  0.6367 -0.1140  11.00000  0.05    0.28 
Q2    1  -0.0589  1.1781  0.3197  11.00000  0.05    0.26 
Q3    1  -0.2940  0.7985  0.0602  11.00000  0.05    0.24 
Q4    1   0.3456  0.5700  0.4556  11.00000  0.05    0.20 
Q5    1   0.2000  0.5837  0.3830  11.00000  0.05    0.20 
Q6    1   0.4106  0.4889  0.5148  11.00000  0.05    0.19 
Q7    1  -0.0120  0.7777  0.2386  11.00000  0.05    0.18 
Q8    1  -0.2489  0.6477 -0.0443  11.00000  0.05    0.18 
Q9    1  -0.0084  0.6096  0.3352  11.00000  0.05    0.18 
Q10   1  -0.4737  0.6121 -0.0625  11.00000  0.05    0.17 
Q11   1   0.3104  0.7595  0.3810  11.00000  0.05    0.17 
Q12   1   0.0091  1.1696  0.2419  11.00000  0.05    0.16 
Q13   1  -0.3067  0.6173 -0.0206  11.00000  0.05    0.16 
Q14   1  -0.4451  0.8011 -0.0218  11.00000  0.05    0.16 
Q15   1  -0.1106  0.5948  0.0723  11.00000  0.05    0.16 
Q16   1   0.1943  0.7486  0.2781  11.00000  0.05    0.15 
Q17   1  -0.0676  0.9882  0.1801  11.00000  0.05    0.15 
Q18   1   0.0299  0.9644  0.3224  11.00000  0.05    0.15 
Q19   1   0.1636  1.1643  0.3432  11.00000  0.05    0.15 
Q20   1  -0.5660  0.6629 -0.0559  11.00000  0.05    0.15 
;
_shelx_res_checksum              78430
_shelx_hkl_file
; 
   1   0 -14    0.18    0.04 
   2   0 -14    0.29    0.04 
   1   1 -14    0.56    0.05 
   2   1 -14    5.49    0.19 
   0   2 -14    0.22    0.04 
   1   2 -14    1.00    0.07 
   2   2 -14    0.15    0.03 
   0   3 -14    0.13    0.04 
   1   3 -14    0.92    0.09 
   2   3 -14    1.61    0.09 
  -1   4 -14    0.52    0.07 
   0   4 -14   20.84    0.87 
   1   4 -14    1.05    0.06 
   2   4 -14    0.19    0.04 
   0   5 -14    3.45    0.13 
   1   5 -14    0.15    0.03 
   2   5 -14   15.85    0.47 
   0   6 -14   -0.01    0.03 
   1   6 -14    0.45    0.04 
   2   6 -14    0.80    0.08 
   1  -3 -13    0.10    0.03 
   0  -2 -13    0.47    0.03 
   1  -2 -13    1.01    0.04 
   2  -2 -13    3.27    0.08 
  -1  -1 -13    0.32    0.03 
   0  -1 -13    3.86    0.14 
   1  -1 -13    0.58    0.04 
   2  -1 -13    0.03    0.02 
   3  -1 -13    1.41    0.05 
  -1   0 -13    3.05    0.12 
   0   0 -13    0.88    0.06 
   1   0 -13    0.24    0.04 
   2   0 -13    3.76    0.11 
   3   0 -13    5.78    0.13 
  -1   1 -13   12.31    0.39 
   0   1 -13    0.49    0.05 
   1   1 -13    1.36    0.10 
   2   1 -13   21.96    0.56 
   3   1 -13    0.11    0.02 
  -2   2 -13    0.00    0.02 
  -1   2 -13    5.62    0.19 
   0   2 -13    4.24    0.16 
   1   2 -13    0.18    0.05 
   2   2 -13    0.64    0.05 
   3   2 -13    0.77    0.04 
   4   2 -13    0.39    0.05 
  -2   3 -13    4.86    0.13 
  -1   3 -13    1.35    0.08 
   0   3 -13    0.04    0.03 
   1   3 -13    0.11    0.03 
   2   3 -13    0.44    0.05 
   3   3 -13    0.52    0.05 
   4   3 -13    0.04    0.03 
  -2   4 -13    1.25    0.05 
  -1   4 -13    5.66    0.16 
   0   4 -13    2.02    0.11 
   1   4 -13    1.62    0.09 
   2   4 -13    4.65    0.20 
   3   4 -13    0.01    0.02 
  -2   5 -13    0.37    0.03 
  -1   5 -13    0.08    0.03 
   0   5 -13    7.36    0.26 
   1   5 -13    0.77    0.07 
   2   5 -13    7.34    0.27 
   3   5 -13    3.41    0.12 
  -2   6 -13    0.06    0.04 
  -1   6 -13    0.93    0.05 
   0   6 -13    0.43    0.04 
   1   6 -13    1.19    0.07 
   2   6 -13   16.29    0.52 
   3   6 -13    0.04    0.02 
  -1   7 -13    7.25    0.17 
   0   7 -13    1.16    0.06 
   1   7 -13    1.27    0.07 
   2   7 -13    6.26    0.19 
   3   7 -13    0.02    0.03 
  -1   8 -13    0.15    0.03 
   0   8 -13    0.40    0.04 
   1   8 -13    2.38    0.11 
   2   8 -13    1.55    0.12 
   0   9 -13    9.69    0.31 
   1   9 -13    0.01    0.04 
   0  -4 -12    0.58    0.05 
   1  -4 -12    0.15    0.02 
   2  -4 -12    0.54    0.02 
   3  -4 -12    1.53    0.12 
  -1  -3 -12    4.38    0.12 
   0  -3 -12    0.11    0.02 
   1  -3 -12    0.11    0.02 
   2  -3 -12    0.18    0.02 
   3  -3 -12    0.20    0.02 
  -1  -2 -12    0.03    0.02 
   0  -2 -12    1.43    0.07 
   1  -2 -12    0.25    0.03 
   2  -2 -12    5.04    0.11 
   3  -2 -12    0.05    0.02 
   4  -2 -12    0.06    0.02 
  -2  -1 -12   13.08    0.34 
  -1  -1 -12   14.46    0.33 
   0  -1 -12    2.74    0.09 
   1  -1 -12   21.14    0.42 
   2  -1 -12    0.92    0.04 
   3  -1 -12    0.30    0.03 
   4  -1 -12    2.51    0.07 
  -2   0 -12   12.21    0.32 
  -1   0 -12    2.91    0.12 
   0   0 -12    0.31    0.04 
   1   0 -12    4.45    0.16 
   2   0 -12    3.34    0.11 
   3   0 -12    5.27    0.12 
   4   0 -12    1.56    0.05 
  -2   1 -12    4.96    0.14 
  -1   1 -12   13.79    0.44 
   0   1 -12    0.03    0.03 
   1   1 -12    0.48    0.07 
   2   1 -12    4.11    0.15 
   3   1 -12    0.32    0.04 
   4   1 -12    0.17    0.03 
  -3   2 -12    1.14    0.07 
  -2   2 -12    7.33    0.20 
  -1   2 -12    7.36    0.21 
   0   2 -12   10.53    0.30 
   1   2 -12   26.21    0.73 
   2   2 -12    6.31    0.21 
   3   2 -12    0.86    0.06 
   4   2 -12    3.82    0.11 
  -3   3 -12    6.42    0.21 
  -2   3 -12    1.65    0.06 
  -1   3 -12   20.77    0.54 
   0   3 -12   19.09    0.52 
   1   3 -12    4.44    0.15 
   2   3 -12    1.18    0.08 
   3   3 -12    0.08    0.03 
   4   3 -12    0.01    0.02 
  -3   4 -12    1.08    0.05 
  -2   4 -12   12.24    0.28 
  -1   4 -12   48.11    1.20 
   0   4 -12   12.80    0.36 
   1   4 -12   16.16    0.44 
   2   4 -12    4.16    0.16 
   3   4 -12    0.01    0.03 
   4   4 -12    0.09    0.03 
  -3   5 -12    2.92    0.16 
  -2   5 -12    4.80    0.13 
  -1   5 -12    2.38    0.09 
   0   5 -12    7.40    0.28 
   1   5 -12    5.28    0.21 
   2   5 -12   10.39    0.31 
   3   5 -12    0.64    0.06 
   4   5 -12    3.35    0.10 
  -2   6 -12   10.63    0.22 
  -1   6 -12    0.69    0.06 
   0   6 -12    7.19    0.27 
   1   6 -12    4.27    0.20 
   2   6 -12    0.87    0.07 
   3   6 -12    1.87    0.10 
   4   6 -12    0.01    0.02 
  -2   7 -12    1.11    0.05 
  -1   7 -12    3.51    0.13 
   0   7 -12   11.66    0.56 
   1   7 -12    1.67    0.17 
   2   7 -12   21.35    0.70 
   3   7 -12    0.30    0.04 
  -2   8 -12    2.33    0.07 
  -1   8 -12    5.25    0.16 
   0   8 -12    2.23    0.18 
   1   8 -12    0.32    0.08 
   2   8 -12    3.23    0.16 
   3   8 -12    0.05    0.03 
  -1   9 -12    4.28    0.13 
   0   9 -12    0.47    0.08 
   2   9 -12    0.17    0.06 
   0  10 -12    0.99    0.06 
   1  10 -12    0.22    0.05 
   0  -6 -11    0.02    0.03 
   1  -6 -11    9.63    0.18 
   2  -6 -11    1.10    0.04 
  -1  -5 -11    0.89    0.07 
   0  -5 -11    0.18    0.02 
   1  -5 -11    3.74    0.08 
   2  -5 -11    0.02    0.01 
   3  -5 -11    3.73    0.08 
  -1  -4 -11    0.35    0.02 
   0  -4 -11    0.75    0.03 
   1  -4 -11    0.97    0.03 
   2  -4 -11    0.14    0.02 
   3  -4 -11    3.99    0.08 
   4  -4 -11    0.45    0.04 
  -2  -3 -11    2.37    0.07 
  -1  -3 -11    0.02    0.02 
   0  -3 -11    0.03    0.02 
   1  -3 -11    3.68    0.08 
   2  -3 -11    0.27    0.02 
   3  -3 -11    1.09    0.04 
   4  -3 -11    3.34    0.08 
  -2  -2 -11    0.85    0.04 
  -1  -2 -11    5.59    0.13 
   0  -2 -11    4.25    0.11 
   1  -2 -11    8.28    0.15 
   2  -2 -11    4.30    0.09 
   3  -2 -11    1.73    0.06 
   4  -2 -11    4.49    0.11 
  -3  -1 -11    0.13    0.01 
  -2  -1 -11    0.31    0.03 
  -1  -1 -11    7.31    0.21 
   0  -1 -11    0.80    0.05 
   1  -1 -11   13.38    0.25 
   2  -1 -11    8.06    0.16 
   3  -1 -11    3.02    0.08 
   4  -1 -11    0.46    0.03 
   5  -1 -11    0.23    0.03 
  -3   0 -11    0.56    0.03 
  -2   0 -11    4.94    0.15 
  -1   0 -11   26.03    0.67 
   0   0 -11    0.92    0.06 
   1   0 -11    3.58    0.12 
   2   0 -11    1.46    0.06 
   3   0 -11    0.56    0.04 
   4   0 -11    2.46    0.08 
   5   0 -11    0.00    0.02 
  -3   1 -11    5.11    0.13 
  -2   1 -11   16.87    0.44 
  -1   1 -11    0.07    0.04 
   0   1 -11    0.60    0.06 
   1   1 -11    8.51    0.22 
   2   1 -11   10.84    0.24 
   3   1 -11    3.04    0.10 
   4   1 -11    2.26    0.09 
   5   1 -11    0.86    0.04 
  -3   2 -11    0.02    0.02 
  -2   2 -11    1.77    0.07 
  -1   2 -11   15.82    0.38 
   0   2 -11   16.70    0.42 
   1   2 -11    1.32    0.11 
   2   2 -11    0.05    0.04 
   3   2 -11    0.03    0.03 
   4   2 -11    0.25    0.04 
   5   2 -11    0.49    0.04 
  -3   3 -11    1.87    0.06 
  -2   3 -11    0.77    0.05 
  -1   3 -11    9.00    0.24 
   0   3 -11    0.51    0.06 
   1   3 -11    2.48    0.12 
   2   3 -11    1.15    0.09 
   3   3 -11    0.59    0.05 
   4   3 -11   -0.02    0.03 
   5   3 -11    0.52    0.04 
  -3   4 -11    0.02    0.02 
  -2   4 -11    2.44    0.08 
  -1   4 -11    0.12    0.05 
   0   4 -11    0.00    0.04 
   1   4 -11    5.90    0.19 
   2   4 -11    0.79    0.08 
   3   4 -11    0.09    0.04 
   4   4 -11    3.25    0.12 
   5   4 -11    0.03    0.02 
  -3   5 -11    0.07    0.02 
  -2   5 -11    2.91    0.10 
  -1   5 -11   41.74    1.12 
   0   5 -11    0.27    0.08 
   1   5 -11    1.28    0.11 
   2   5 -11    4.65    0.18 
   3   5 -11    3.21    0.13 
   4   5 -11    0.62    0.05 
   5   5 -11    0.45    0.07 
  -3   6 -11    0.09    0.02 
  -2   6 -11    2.51    0.09 
  -1   6 -11   11.65    0.38 
   0   6 -11    0.64    0.27 
   1   6 -11   33.47    1.58 
   2   6 -11    0.06    0.05 
   3   6 -11    1.23    0.08 
   4   6 -11    0.44    0.04 
  -3   7 -11    4.72    0.12 
  -2   7 -11    4.21    0.14 
  -1   7 -11   14.44    0.71 
   0   7 -11    1.88    0.39 
   1   7 -11   23.99    1.18 
   2   7 -11    0.66    0.10 
   3   7 -11    0.73    0.07 
   4   7 -11    0.02    0.02 
  -3   8 -11    0.16    0.03 
  -2   8 -11    0.69    0.06 
  -1   8 -11   15.96    0.78 
   1   8 -11    7.72    0.46 
   2   8 -11   10.11    0.40 
   3   8 -11    0.70    0.07 
   4   8 -11    1.39    0.08 
  -2   9 -11    1.05    0.07 
  -1   9 -11    6.54    0.33 
   1   9 -11    0.24    0.08 
   2   9 -11   -0.02    0.05 
   3   9 -11    0.03    0.03 
  -2  10 -11    1.63    0.11 
  -1  10 -11   -0.01    0.03 
   2  10 -11    2.35    0.18 
   0  11 -11    0.13    0.05 
   0  -7 -10    1.60    0.05 
   1  -7 -10    0.03    0.01 
   2  -7 -10    0.40    0.02 
  -1  -6 -10    0.04    0.02 
   0  -6 -10    0.36    0.02 
   1  -6 -10    0.51    0.02 
   2  -6 -10    0.15    0.02 
   3  -6 -10    2.17    0.05 
  -2  -5 -10    0.40    0.04 
  -1  -5 -10    3.68    0.08 
   0  -5 -10    2.91    0.06 
   1  -5 -10    0.27    0.02 
   2  -5 -10    8.91    0.14 
   3  -5 -10    0.35    0.02 
   4  -5 -10    0.06    0.01 
  -2  -4 -10    1.17    0.04 
  -1  -4 -10    0.02    0.02 
   0  -4 -10    8.51    0.17 
   1  -4 -10    4.79    0.08 
   2  -4 -10    4.71    0.08 
   3  -4 -10   35.93    0.50 
   4  -4 -10    2.10    0.07 
  -3  -3 -10    0.01    0.01 
  -2  -3 -10    0.06    0.02 
  -1  -3 -10    0.01    0.02 
   0  -3 -10    3.89    0.08 
   1  -3 -10   26.94    0.39 
   2  -3 -10    0.86    0.03 
   3  -3 -10    6.26    0.11 
   4  -3 -10    0.01    0.01 
   5  -3 -10    0.30    0.05 
  -3  -2 -10    0.54    0.03 
  -2  -2 -10    1.18    0.05 
  -1  -2 -10    3.19    0.09 
   0  -2 -10    8.43    0.16 
   1  -2 -10    6.12    0.11 
   2  -2 -10    3.17    0.07 
   3  -2 -10    0.53    0.03 
   4  -2 -10    0.16    0.02 
   5  -2 -10    1.87    0.07 
  -3  -1 -10    0.83    0.04 
  -2  -1 -10   19.14    0.49 
  -1  -1 -10    3.19    0.09 
   0  -1 -10    8.29    0.19 
   1  -1 -10   13.82    0.25 
   2  -1 -10    5.75    0.11 
   3  -1 -10    0.56    0.04 
   4  -1 -10    1.67    0.06 
   5  -1 -10    0.02    0.02 
  -4   0 -10    1.18    0.06 
  -3   0 -10    6.12    0.15 
  -2   0 -10    1.48    0.07 
  -1   0 -10    0.03    0.03 
   0   0 -10    3.57    0.11 
   1   0 -10    4.85    0.49 
   2   0 -10   18.43    0.32 
   3   0 -10   13.56    0.27 
   4   0 -10    0.19    0.04 
   5   0 -10    0.26    0.03 
  -4   1 -10   12.41    0.28 
  -3   1 -10    4.08    0.11 
  -2   1 -10   64.03    1.25 
  -1   1 -10    2.05    0.09 
   0   1 -10    5.92    0.37 
   1   1 -10    2.92    0.44 
   2   1 -10    7.16    0.21 
   3   1 -10    7.03    0.15 
   4   1 -10   13.27    0.33 
   5   1 -10    0.07    0.03 
  -4   2 -10    3.45    0.09 
  -3   2 -10    0.46    0.03 
  -2   2 -10   37.99    0.76 
  -1   2 -10   10.27    0.28 
   0   2 -10   39.72    1.39 
   1   2 -10   90.78    4.04 
   2   2 -10   16.42    0.76 
   3   2 -10    0.52    0.06 
   4   2 -10    2.03    0.10 
   5   2 -10    0.05    0.03 
  -4   3 -10    0.25    0.03 
  -3   3 -10    0.17    0.03 
  -2   3 -10    0.53    0.05 
  -1   3 -10   39.40    0.91 
   0   3 -10   14.31    1.00 
   1   3 -10   53.32    1.88 
   2   3 -10    7.33    0.26 
   3   3 -10   15.17    0.33 
   4   3 -10    0.21    0.05 
   5   3 -10    0.00    0.03 
  -4   4 -10    1.95    0.06 
  -3   4 -10    0.10    0.02 
  -2   4 -10   18.41    0.40 
  -1   4 -10   18.70    0.56 
   0   4 -10   22.43    1.39 
   1   4 -10    0.19    0.14 
   2   4 -10   11.09    0.33 
   3   4 -10    1.48    0.09 
   4   4 -10    0.01    0.04 
   5   4 -10    0.07    0.03 
  -4   5 -10    0.18    0.02 
  -3   5 -10    0.04    0.03 
  -2   5 -10    4.13    0.14 
  -1   5 -10    3.39    0.23 
   0   5 -10    0.27    0.21 
   1   5 -10    0.63    0.12 
   2   5 -10    5.69    0.21 
   3   5 -10    0.07    0.04 
   4   5 -10    0.00    0.03 
   5   5 -10    0.04    0.03 
  -4   6 -10    5.55    0.16 
  -3   6 -10    0.83    0.05 
  -2   6 -10   20.13    0.50 
  -1   6 -10   13.45    0.58 
   0   6 -10    5.99    0.66 
   1   6 -10    0.66    0.11 
   2   6 -10    9.34    0.36 
   3   6 -10    0.12    0.05 
   4   6 -10    0.34    0.04 
   5   6 -10    0.02    0.02 
  -3   7 -10    0.89    0.06 
  -2   7 -10    0.03    0.06 
  -1   7 -10   35.00    1.40 
   0   7 -10    0.05    0.20 
   1   7 -10   41.95    1.36 
   2   7 -10    3.60    0.24 
   3   7 -10    0.39    0.07 
   4   7 -10   11.27    0.25 
  -3   8 -10    0.31    0.04 
  -2   8 -10    3.66    0.24 
  -1   8 -10    0.01    0.17 
   0   8 -10   -0.03    0.18 
   1   8 -10    4.60    0.66 
   2   8 -10   14.84    0.83 
   3   8 -10    1.09    0.11 
   4   8 -10    0.47    0.04 
  -3   9 -10    0.03    0.03 
  -2   9 -10    0.03    0.05 
   1   9 -10    2.06    0.23 
   2   9 -10    0.01    0.10 
   3   9 -10    0.78    0.09 
   4   9 -10    4.54    0.17 
  -2  10 -10    0.26    0.06 
   1  10 -10    0.13    0.08 
   2  10 -10   -0.06    0.08 
   3  10 -10    0.04    0.03 
   2  11 -10    0.44    0.08 
   0  -8  -9    6.00    0.10 
   1  -8  -9    8.25    0.11 
   2  -8  -9    7.47    0.11 
  -1  -7  -9    0.38    0.02 
   0  -7  -9    1.67    0.04 
   1  -7  -9    4.28    0.07 
   2  -7  -9    0.29    0.02 
   3  -7  -9    1.64    0.04 
  -2  -6  -9    3.04    0.07 
  -1  -6  -9    0.40    0.02 
   0  -6  -9    0.83    0.03 
   1  -6  -9    0.10    0.02 
   2  -6  -9    4.03    0.07 
   3  -6  -9    0.42    0.02 
   4  -6  -9    0.01    0.01 
  -3  -5  -9    0.01    0.01 
  -2  -5  -9    4.73    0.09 
  -1  -5  -9    4.60    0.09 
   0  -5  -9    4.35    0.08 
   1  -5  -9    2.15    0.05 
   2  -5  -9   15.28    0.20 
   3  -5  -9   15.05    0.21 
   4  -5  -9    0.16    0.02 
  -3  -4  -9    7.88    0.17 
  -2  -4  -9    0.23    0.02 
  -1  -4  -9    0.02    0.02 
   0  -4  -9    0.09    0.02 
   1  -4  -9   36.76    0.46 
   2  -4  -9   13.20    0.18 
   3  -4  -9    0.43    0.02 
   4  -4  -9    0.93    0.03 
   5  -4  -9    0.11    0.02 
  -3  -3  -9    4.32    0.11 
  -2  -3  -9    4.34    0.10 
  -1  -3  -9    0.81    0.03 
   0  -3  -9   16.54    0.27 
   1  -3  -9   25.52    0.35 
   2  -3  -9    1.13    0.04 
   3  -3  -9   20.21    0.29 
   4  -3  -9    1.60    0.05 
   5  -3  -9    0.14    0.02 
  -4  -2  -9    0.11    0.01 
  -3  -2  -9    2.96    0.08 
  -2  -2  -9    6.71    0.16 
  -1  -2  -9    1.13    0.05 
   0  -2  -9    0.14    0.13 
   1  -2  -9    2.38    0.37 
   2  -2  -9   16.67    0.68 
   3  -2  -9   14.76    0.23 
   4  -2  -9    1.07    0.04 
   5  -2  -9    0.99    0.04 
  -4  -1  -9    0.05    0.01 
  -3  -1  -9    4.04    0.11 
  -2  -1  -9    0.23    0.03 
  -1  -1  -9    1.05    0.25 
   0  -1  -9    1.16    0.17 
   1  -1  -9   22.73    1.26 
   2  -1  -9    4.28    0.45 
   3  -1  -9    4.15    0.09 
   4  -1  -9    1.24    0.05 
   5  -1  -9    3.37    0.09 
  -4   0  -9    1.64    0.05 
  -3   0  -9    3.28    0.10 
  -2   0  -9   16.87    0.33 
  -1   0  -9    8.84    0.65 
   0   0  -9    1.32    0.19 
   1   0  -9    5.56    0.51 
   2   0  -9    6.60    0.60 
   3   0  -9    1.19    0.06 
   4   0  -9    0.16    0.03 
   5   0  -9    1.11    0.07 
   6   0  -9    0.91    0.07 
  -4   1  -9    1.80    0.06 
  -3   1  -9   37.22    0.67 
  -2   1  -9   11.93    0.27 
  -1   1  -9    0.01    0.12 
   0   1  -9    4.73    0.32 
   1   1  -9    3.27    0.45 
   2   1  -9   15.39    1.02 
   3   1  -9    3.45    0.48 
   4   1  -9    0.96    0.06 
   5   1  -9    3.23    0.17 
  -4   2  -9    4.29    0.10 
  -3   2  -9    0.95    0.05 
  -2   2  -9   69.87    1.36 
  -1   2  -9   -0.02    0.14 
   0   2  -9   10.31    0.52 
   1   2  -9    0.02    0.15 
   2   2  -9    0.20    0.17 
   3   2  -9   -0.04    0.15 
   4   2  -9   13.40    0.32 
   5   2  -9    1.37    0.08 
   6   2  -9    3.69    0.22 
  -4   3  -9    0.43    0.03 
  -3   3  -9    6.73    0.15 
  -2   3  -9    1.55    0.07 
  -1   3  -9    0.43    0.23 
   0   3  -9   36.85    1.38 
   1   3  -9   11.90    0.62 
   2   3  -9    6.04    0.63 
   3   3  -9    0.54    0.10 
   4   3  -9    1.13    0.08 
   5   3  -9    0.06    0.04 
  -4   4  -9    0.30    0.03 
  -3   4  -9    7.48    0.19 
  -2   4  -9    8.67    0.23 
  -1   4  -9    7.01    0.66 
   0   4  -9    0.04    0.17 
   1   4  -9    7.83    0.49 
   2   4  -9    0.08    0.21 
   3   4  -9    0.36    0.05 
   4   4  -9   -0.02    0.04 
   5   4  -9    3.93    0.15 
  -4   5  -9    1.54    0.06 
  -3   5  -9    0.52    0.05 
  -2   5  -9   83.89    1.90 
  -1   5  -9    3.44    0.32 
   0   5  -9    0.35    0.23 
   1   5  -9    6.16    0.45 
   2   5  -9    1.39    0.40 
   3   5  -9    5.30    0.21 
   4   5  -9    0.39    0.06 
   5   5  -9    0.21    0.04 
  -4   6  -9    3.99    0.13 
  -3   6  -9   13.60    0.46 
  -2   6  -9   29.66    0.90 
  -1   6  -9    8.00    0.47 
   0   6  -9    7.72    0.78 
   1   6  -9    0.21    0.16 
   2   6  -9    4.94    0.42 
   3   6  -9    0.64    0.09 
   4   6  -9    0.25    0.05 
   5   6  -9    0.58    0.05 
  -4   7  -9    4.85    0.14 
  -3   7  -9    2.57    0.14 
  -2   7  -9    0.23    0.12 
  -1   7  -9    0.03    0.10 
   0   7  -9   19.14    1.42 
   1   7  -9   12.23    0.73 
   2   7  -9    1.05    0.14 
   3   7  -9    0.02    0.06 
   4   7  -9    2.80    0.12 
   5   7  -9    0.25    0.03 
  -4   8  -9    1.07    0.06 
  -3   8  -9    3.14    0.14 
  -2   8  -9   11.50    0.88 
  -1   8  -9    5.82    0.43 
   0   8  -9    2.59    0.51 
   1   8  -9   40.03    2.52 
   2   8  -9    1.15    0.25 
   3   8  -9   16.18    0.60 
   4   8  -9    0.72    0.06 
  -3   9  -9    0.63    0.09 
  -1   9  -9    0.48    0.15 
   0   9  -9    3.68    0.60 
   1   9  -9    0.56    0.28 
   3   9  -9    2.76    0.16 
   4   9  -9    2.05    0.08 
  -3  10  -9    0.00    0.03 
   3  10  -9    1.04    0.10 
   2  11  -9    0.67    0.12 
   3  11  -9    1.15    0.13 
   0  -9  -8    0.87    0.02 
   1  -9  -8    3.53    0.06 
   2  -9  -8    1.89    0.04 
  -1  -8  -8    2.68    0.05 
   0  -8  -8   10.41    0.14 
   1  -8  -8    3.45    0.06 
   2  -8  -8    0.22    0.02 
   3  -8  -8    0.44    0.02 
  -2  -7  -8    2.17    0.05 
  -1  -7  -8    0.06    0.01 
   0  -7  -8    3.44    0.07 
   1  -7  -8    1.37    0.04 
   2  -7  -8    0.11    0.02 
   3  -7  -8    0.30    0.02 
   4  -7  -8    1.35    0.03 
  -3  -6  -8    2.55    0.07 
  -2  -6  -8    0.29    0.02 
  -1  -6  -8    4.39    0.08 
   0  -6  -8    0.13    0.02 
   1  -6  -8    2.79    0.06 
   2  -6  -8    0.05    0.02 
   3  -6  -8    2.83    0.06 
   4  -6  -8    2.28    0.05 
   5  -6  -8    0.18    0.02 
  -3  -5  -8    2.47    0.06 
  -2  -5  -8    5.34    0.10 
  -1  -5  -8    0.61    0.03 
   0  -5  -8   70.87    0.84 
   1  -5  -8    2.04    0.05 
   2  -5  -8    1.07    0.03 
   3  -5  -8    1.87    0.04 
   4  -5  -8    0.16    0.02 
   5  -5  -8    0.16    0.02 
  -4  -4  -8    9.08    0.23 
  -3  -4  -8   16.92    0.27 
  -2  -4  -8   23.53    0.34 
  -1  -4  -8    6.18    0.11 
   0  -4  -8   11.56    0.55 
   1  -4  -8   23.18    0.73 
   2  -4  -8   50.67    0.61 
   3  -4  -8   11.59    0.16 
   4  -4  -8    1.16    0.04 
   5  -4  -8    4.40    0.10 
  -4  -3  -8    0.41    0.02 
  -3  -3  -8    8.54    0.16 
  -2  -3  -8    5.98    0.13 
  -1  -3  -8    9.03    0.44 
   0  -3  -8   42.20    2.06 
   1  -3  -8    8.12    0.41 
   2  -3  -8   33.38    1.19 
   3  -3  -8    3.53    0.07 
   4  -3  -8    0.08    0.02 
   5  -3  -8    1.22    0.05 
  -4  -2  -8    2.37    0.07 
  -3  -2  -8    0.13    0.02 
  -2  -2  -8    8.71    0.19 
  -1  -2  -8    2.66    0.24 
   0  -2  -8   12.24    0.57 
   1  -2  -8    3.06    0.35 
   2  -2  -8    0.90    0.15 
   3  -2  -8    5.86    0.47 
   4  -2  -8    6.10    0.12 
   5  -2  -8    0.13    0.03 
   6  -2  -8    0.50    0.03 
  -4  -1  -8    1.43    0.06 
  -3  -1  -8    8.66    0.18 
  -2  -1  -8    0.41    0.17 
  -1  -1  -8    0.00    0.06 
   0  -1  -8    0.74    0.14 
   1  -1  -8    8.39    0.62 
   2  -1  -8   15.58    0.65 
   3  -1  -8   13.17    0.60 
   4  -1  -8    1.83    0.06 
   5  -1  -8    3.22    0.10 
   6  -1  -8    7.12    0.19 
  -5   0  -8    0.04    0.02 
  -4   0  -8    0.51    0.03 
  -3   0  -8    0.30    0.03 
  -2   0  -8    0.04    0.12 
  -1   0  -8    0.49    0.18 
   0   0  -8    1.32    0.19 
   1   0  -8    4.89    0.46 
   2   0  -8   20.42    0.83 
   3   0  -8    0.52    0.14 
   4   0  -8   20.21    0.41 
   5   0  -8    8.07    0.22 
   6   0  -8    1.40    0.06 
  -5   1  -8    9.61    0.25 
  -4   1  -8    0.03    0.02 
  -3   1  -8   46.70    0.84 
  -2   1  -8   48.22    2.34 
  -1   1  -8    5.59    0.50 
   0   1  -8   12.31    0.56 
   1   1  -8   23.92    0.96 
   2   1  -8   10.54    0.79 
   3   1  -8  126.51    3.91 
   4   1  -8   14.67    0.34 
   5   1  -8   13.44    0.39 
   6   1  -8    1.44    0.07 
  -5   2  -8    4.00    0.12 
  -4   2  -8    0.54    0.04 
  -3   2  -8   14.31    0.27 
  -2   2  -8    3.49    0.47 
  -1   2  -8    2.02    0.35 
   0   2  -8  148.41    4.65 
   1   2  -8    0.51    0.11 
   2   2  -8   10.95    0.82 
   3   2  -8    5.87    0.60 
   4   2  -8    4.85    0.23 
   5   2  -8    2.74    0.17 
   6   2  -8    0.18    0.06 
  -5   3  -8    0.06    0.02 
  -4   3  -8    0.07    0.03 
  -3   3  -8   12.41    0.30 
  -2   3  -8  108.01    3.39 
   0   3  -8    4.82    0.28 
   1   3  -8    8.76    0.41 
   2   3  -8   16.71    1.14 
   3   3  -8    0.04    0.10 
   4   3  -8    0.20    0.05 
   5   3  -8    3.63    0.16 
   6   3  -8    3.62    0.21 
  -5   4  -8    0.54    0.03 
  -4   4  -8    1.63    0.07 
  -3   4  -8    6.04    0.18 
  -2   4  -8   41.06    1.47 
  -1   4  -8    4.39    0.30 
   0   4  -8   42.08    1.57 
   1   4  -8    4.99    0.38 
   2   4  -8    2.09    0.43 
   3   4  -8    4.05    0.60 
   4   4  -8    0.24    0.05 
   5   4  -8    0.81    0.08 
   6   4  -8    7.70    0.36 
  -5   5  -8    3.80    0.14 
  -4   5  -8    0.05    0.03 
  -3   5  -8    4.01    0.17 
  -2   5  -8   42.55    1.55 
  -1   5  -8    0.03    0.09 
   0   5  -8    0.06    0.16 
   1   5  -8    0.13    0.13 
   2   5  -8    0.71    0.20 
   3   5  -8    5.73    0.69 
   4   5  -8    2.75    0.13 
   5   5  -8    0.03    0.04 
  -5   6  -8    2.47    0.14 
  -4   6  -8    2.90    0.11 
  -3   6  -8   21.33    0.78 
  -2   6  -8    8.42    0.48 
  -1   6  -8    0.89    0.30 
   0   6  -8    3.01    0.52 
   1   6  -8   22.54    1.08 
   2   6  -8    3.19    0.39 
   3   6  -8    4.54    0.34 
   4   6  -8    1.62    0.11 
   5   6  -8    0.29    0.05 
  -4   7  -8    0.49    0.04 
  -3   7  -8    0.49    0.08 
  -2   7  -8   16.90    0.78 
  -1   7  -8    0.50    0.28 
   0   7  -8   23.41    1.59 
   1   7  -8   12.25    0.74 
   2   7  -8    0.98    0.25 
   3   7  -8   19.85    1.07 
   4   7  -8    0.65    0.08 
   5   7  -8    0.04    0.03 
  -4   8  -8    1.12    0.07 
  -2   8  -8    1.65    0.32 
  -1   8  -8    0.05    0.20 
   0   8  -8    9.53    0.92 
   1   8  -8   26.96    1.81 
   2   8  -8    1.21    0.26 
   3   8  -8    3.40    0.28 
   4   8  -8    5.00    0.19 
   5   8  -8    1.16    0.06 
  -4   9  -8    0.04    0.02 
  -2   9  -8   11.21    0.79 
  -1   9  -8   12.38    1.04 
   0   9  -8    4.90    0.71 
   1   9  -8   60.18    3.46 
   2   9  -8    0.16    0.16 
   3   9  -8    0.85    0.15 
   4   9  -8    0.03    0.04 
   0  10  -8    5.93    0.70 
   1  10  -8    0.18    0.21 
   3  10  -8    4.43    0.31 
   4  10  -8    0.12    0.03 
   3  11  -8    0.27    0.07 
   0 -10  -7    0.82    0.03 
   1 -10  -7    0.09    0.01 
   2 -10  -7    1.71    0.05 
  -1  -9  -7    7.60    0.11 
   0  -9  -7    0.02    0.01 
   1  -9  -7    3.69    0.07 
   2  -9  -7    0.01    0.01 
   3  -9  -7    0.50    0.02 
  -2  -8  -7    0.85    0.02 
  -1  -8  -7   18.80    0.25 
   0  -8  -7    0.45    0.02 
   1  -8  -7    0.98    0.03 
   2  -8  -7    9.89    0.14 
   3  -8  -7    0.83    0.03 
   4  -8  -7    0.66    0.02 
  -3  -7  -7    0.17    0.01 
  -2  -7  -7    6.53    0.10 
  -1  -7  -7   17.96    0.25 
   0  -7  -7    0.09    0.02 
   1  -7  -7    8.93    0.12 
   2  -7  -7    0.14    0.02 
   3  -7  -7    1.78    0.05 
   4  -7  -7    2.61    0.05 
   5  -7  -7    0.10    0.02 
  -3  -6  -7    9.58    0.17 
  -2  -6  -7    5.21    0.09 
  -1  -6  -7    5.30    0.08 
   0  -6  -7    0.68    0.03 
   1  -6  -7    6.62    0.09 
   2  -6  -7   11.63    0.15 
   3  -6  -7    0.00    0.01 
   4  -6  -7   -0.01    0.01 
   5  -6  -7    0.01    0.01 
  -4  -5  -7    0.03    0.01 
  -3  -5  -7    1.50    0.04 
  -2  -5  -7    5.60    0.10 
  -1  -5  -7    0.98    0.03 
   0  -5  -7   70.47    1.92 
   1  -5  -7    7.69    0.33 
   2  -5  -7    8.67    0.30 
   3  -5  -7    0.04    0.01 
   4  -5  -7    1.39    0.04 
   5  -5  -7    4.08    0.08 
  -4  -4  -7    3.91    0.09 
  -3  -4  -7    2.04    0.05 
  -2  -4  -7    1.04    0.04 
  -1  -4  -7   10.61    0.42 
   0  -4  -7   23.68    0.74 
   1  -4  -7   24.47    0.76 
   2  -4  -7    3.65    0.17 
   3  -4  -7   15.97    0.25 
   4  -4  -7    1.09    0.04 
   5  -4  -7    0.73    0.03 
   6  -4  -7    0.01    0.02 
  -4  -3  -7    0.68    0.03 
  -3  -3  -7   16.06    0.26 
  -2  -3  -7    0.08    0.10 
  -1  -3  -7    3.51    0.21 
   0  -3  -7  119.62    3.11 
   1  -3  -7   15.30    0.51 
   2  -3  -7   67.83    1.80 
   3  -3  -7    3.13    0.23 
   4  -3  -7    0.30    0.03 
   5  -3  -7   23.01    0.37 
   6  -3  -7    0.19    0.03 
  -5  -2  -7    0.04    0.02 
  -4  -2  -7    3.24    0.09 
  -3  -2  -7    0.22    0.02 
  -2  -2  -7    1.31    0.25 
  -1  -2  -7    4.79    0.29 
   0  -2  -7   19.58    0.56 
   1  -2  -7   24.63    0.76 
   2  -2  -7  102.46    2.64 
   3  -2  -7   25.01    1.33 
   4  -2  -7    0.02    0.02 
   5  -2  -7    0.32    0.03 
   6  -2  -7    0.12    0.03 
  -5  -1  -7    0.04    0.01 
  -4  -1  -7    3.96    0.10 
  -3  -1  -7    1.63    0.06 
  -2  -1  -7    9.79    0.66 
  -1  -1  -7   19.59    0.75 
   0  -1  -7   36.69    1.05 
   1  -1  -7    4.22    0.25 
   2  -1  -7    4.23    0.18 
   3  -1  -7    6.46    0.37 
   4  -1  -7    8.48    0.21 
   5  -1  -7    4.57    0.11 
   6  -1  -7    3.01    0.11 
  -5   0  -7    3.78    0.10 
  -4   0  -7    0.01    0.02 
  -3   0  -7    0.25    0.03 
  -2   0  -7   22.72    1.22 
  -1   0  -7    1.07    0.14 
   0   0  -7   49.32    1.36 
   1   0  -7    0.18    0.08 
   2   0  -7    2.00    0.17 
   3   0  -7    2.51    0.25 
   4   0  -7    1.39    0.29 
   5   0  -7    2.24    0.10 
   6   0  -7    0.14    0.03 
  -5   1  -7    2.34    0.08 
  -4   1  -7   18.37    0.38 
  -3   1  -7    0.32    0.10 
  -2   1  -7    4.11    0.41 
  -1   1  -7   56.76    1.89 
   0   1  -7    4.66    0.29 
   1   1  -7   11.35    0.54 
   2   1  -7    0.02    0.05 
   3   1  -7    0.22    0.11 
   4   1  -7    0.58    0.21 
   5   1  -7    0.40    0.06 
   6   1  -7    1.33    0.09 
  -5   2  -7    8.70    0.24 
  -4   2  -7    2.11    0.08 
  -3   2  -7  180.89    8.03 
  -2   2  -7   33.52    1.19 
  -1   2  -7   11.28    0.75 
   0   2  -7    0.27    0.08 
   1   2  -7    6.58    0.31 
   2   2  -7    3.91    0.31 
   3   2  -7   32.50    1.22 
   4   2  -7    3.88    0.49 
   5   2  -7   10.83    0.31 
   6   2  -7    2.17    0.12 
  -5   3  -7    0.52    0.04 
  -4   3  -7    1.04    0.06 
  -3   3  -7   10.31    0.50 
  -2   3  -7   23.58    0.90 
  -1   3  -7   48.92    1.40 
   0   3  -7   24.53    0.81 
   1   3  -7    0.03    0.06 
   2   3  -7    9.74    0.54 
   3   3  -7    0.83    0.18 
   4   3  -7    0.52    0.08 
   5   3  -7   16.01    0.50 
   6   3  -7    0.06    0.04 
  -5   4  -7    0.04    0.02 
  -4   4  -7    6.23    0.18 
  -3   4  -7   57.47    2.71 
  -2   4  -7   11.08    0.54 
  -1   4  -7    0.02    0.07 
   0   4  -7    9.90    0.43 
   1   4  -7   14.69    0.71 
   3   4  -7    1.03    0.21 
   4   4  -7    0.20    0.06 
   5   4  -7    1.37    0.13 
   6   4  -7    0.19    0.07 
  -5   5  -7    3.21    0.11 
  -4   5  -7    0.50    0.06 
  -3   5  -7    8.19    0.36 
  -2   5  -7    0.32    0.13 
  -1   5  -7   15.34    1.08 
   0   5  -7   19.92    0.91 
   1   5  -7    9.75    0.56 
   2   5  -7   10.76    0.95 
   3   5  -7    4.38    0.66 
   4   5  -7    3.68    0.22 
   5   5  -7    6.65    0.23 
   6   5  -7    3.11    0.19 
  -5   6  -7    0.03    0.02 
  -4   6  -7    1.32    0.09 
  -3   6  -7    5.26    0.55 
  -2   6  -7   31.58    1.23 
  -1   6  -7    5.25    0.59 
   0   6  -7    1.73    0.40 
   1   6  -7    2.53    0.49 
   3   6  -7    9.59    0.95 
   4   6  -7    1.39    0.12 
   5   6  -7    0.64    0.07 
  -5   7  -7    1.77    0.08 
  -4   7  -7    5.89    0.33 
  -3   7  -7    0.42    0.18 
  -2   7  -7    8.94    0.68 
  -1   7  -7   11.45    0.96 
   0   7  -7   53.92    3.04 
   2   7  -7    2.23    0.49 
   3   7  -7    3.30    0.37 
   4   7  -7    0.34    0.09 
   5   7  -7    0.26    0.05 
  -4   8  -7    2.36    0.17 
  -3   8  -7    2.23    0.34 
  -2   8  -7   15.87    1.03 
  -1   8  -7    5.06    0.69 
   0   8  -7   78.22    4.27 
   3   8  -7    0.56    0.15 
   4   8  -7    0.18    0.08 
   5   8  -7    0.93    0.06 
  -2   9  -7   -0.01    0.14 
  -1   9  -7    0.61    0.27 
   0   9  -7    0.51    0.30 
   2   9  -7    0.18    0.23 
   4   9  -7    0.13    0.06 
   0  10  -7    0.68    0.30 
   4  10  -7    0.53    0.05 
   3  11  -7    0.07    0.05 
  -1 -10  -6   13.11    0.19 
   0 -10  -6    0.01    0.01 
   1 -10  -6    1.35    0.04 
   2 -10  -6    0.48    0.02 
   3 -10  -6    0.05    0.01 
  -2  -9  -6    3.50    0.06 
  -1  -9  -6    3.79    0.07 
   0  -9  -6    0.06    0.02 
   1  -9  -6    2.11    0.05 
   2  -9  -6    1.91    0.05 
   3  -9  -6    1.70    0.04 
   4  -9  -6    0.15    0.01 
  -3  -8  -6    0.25    0.02 
  -2  -8  -6    1.43    0.03 
  -1  -8  -6    6.36    0.10 
   0  -8  -6    0.15    0.02 
   1  -8  -6    0.04    0.02 
   2  -8  -6    0.40    0.02 
   3  -8  -6    0.29    0.02 
   4  -8  -6    0.69    0.03 
  -3  -7  -6    1.13    0.04 
  -2  -7  -6   11.01    0.15 
  -1  -7  -6   12.45    0.17 
   0  -7  -6   25.10    0.31 
   1  -7  -6   51.70    0.58 
   2  -7  -6   22.72    0.27 
   3  -7  -6    0.79    0.03 
   4  -7  -6    3.52    0.07 
   5  -7  -6    2.33    0.04 
  -4  -6  -6    0.95    0.03 
  -3  -6  -6    0.10    0.01 
  -2  -6  -6    2.30    0.05 
  -1  -6  -6   35.98    0.41 
   0  -6  -6  101.18    2.63 
   1  -6  -6    0.65    0.08 
   2  -6  -6    0.71    0.10 
   3  -6  -6    0.02    0.02 
   4  -6  -6    0.40    0.03 
   5  -6  -6    1.46    0.04 
  -4  -5  -6    0.05    0.01 
  -3  -5  -6   12.30    0.18 
  -2  -5  -6   20.49    0.26 
  -1  -5  -6  176.72    3.88 
   0  -5  -6    1.11    0.13 
   1  -5  -6   20.04    0.54 
   2  -5  -6    3.54    0.17 
   3  -5  -6    0.98    0.11 
   4  -5  -6    0.47    0.02 
   5  -5  -6    3.36    0.07 
   6  -5  -6    0.31    0.03 
  -4  -4  -6    7.80    0.13 
  -3  -4  -6   20.24    0.28 
  -2  -4  -6    8.85    0.61 
  -1  -4  -6   36.77    0.91 
   0  -4  -6    2.79    0.17 
   1  -4  -6   14.20    0.40 
   2  -4  -6    9.27    0.30 
   3  -4  -6    1.53    0.14 
   4  -4  -6   10.54    0.14 
   5  -4  -6    3.37    0.07 
   6  -4  -6    0.26    0.02 
  -5  -3  -6    0.49    0.02 
  -4  -3  -6    2.53    0.07 
  -3  -3  -6    0.06    0.02 
  -2  -3  -6    2.75    0.31 
  -1  -3  -6    0.60    0.10 
   0  -3  -6    1.05    0.09 
   1  -3  -6   32.16    0.71 
   2  -3  -6   29.78    0.68 
   3  -3  -6    6.68    0.27 
   4  -3  -6    1.13    0.04 
   5  -3  -6    2.60    0.07 
   6  -3  -6    7.24    0.15 
  -5  -2  -6    0.41    0.03 
  -4  -2  -6   10.71    0.20 
  -3  -2  -6   10.90    0.68 
  -2  -2  -6    0.85    0.20 
  -1  -2  -6    7.90    0.28 
   0  -2  -6   12.11    0.32 
   1  -2  -6    1.16    0.08 
   2  -2  -6  103.38    1.91 
   3  -2  -6    8.00    0.30 
   4  -2  -6    3.07    0.39 
   5  -2  -6    0.25    0.03 
   6  -2  -6    7.38    0.17 
  -5  -1  -6    0.07    0.02 
  -4  -1  -6    0.55    0.03 
  -3  -1  -6   -0.03    0.08 
  -2  -1  -6    2.62    0.29 
  -1  -1  -6    0.10    0.04 
   0  -1  -6   20.67    0.65 
   1  -1  -6   26.27    0.59 
   2  -1  -6    4.65    0.18 
   3  -1  -6    0.61    0.17 
   4  -1  -6   42.58    2.06 
   5  -1  -6   31.17    0.55 
   6  -1  -6    1.34    0.08 
  -5   0  -6    2.90    0.08 
  -4   0  -6    1.99    0.07 
  -3   0  -6    0.34    0.10 
  -2   0  -6    1.95    0.25 
  -1   0  -6   94.07    2.35 
   0   0  -6    7.92    0.31 
   1   0  -6   17.23    0.58 
   2   0  -6    0.12    0.06 
   3   0  -6   43.29    1.57 
   4   0  -6    1.57    0.32 
   5   0  -6   13.10    0.28 
   6   0  -6    0.96    0.07 
  -5   1  -6    0.00    0.02 
  -4   1  -6    4.99    0.13 
  -3   1  -6   98.04    3.09 
  -2   1  -6    1.99    0.17 
  -1   1  -6    3.16    0.24 
   0   1  -6    5.18    0.21 
   1   1  -6    6.31    0.35 
   2   1  -6   57.14    1.91 
   3   1  -6    2.21    0.25 
   4   1  -6   15.57    0.98 
   5   1  -6    7.13    0.23 
   6   1  -6    2.04    0.11 
  -5   2  -6    0.78    0.04 
  -4   2  -6    2.09    0.08 
  -3   2  -6   22.26    0.85 
  -2   2  -6    5.77    0.28 
  -1   2  -6   21.49    0.58 
   0   2  -6  101.32    4.61 
   1   2  -6    3.68    0.21 
   2   2  -6   11.83    0.52 
   3   2  -6   10.49    0.54 
   4   2  -6    0.15    0.18 
   5   2  -6    0.99    0.09 
   6   2  -6    4.31    0.19 
  -5   3  -6   22.13    0.50 
  -4   3  -6    8.34    0.23 
  -3   3  -6  227.45    9.96 
  -2   3  -6   11.12    0.44 
  -1   3  -6    5.04    0.32 
   0   3  -6   11.03    0.42 
   1   3  -6   11.67    0.56 
   2   3  -6    0.16    0.07 
   3   3  -6   51.39    2.61 
   4   3  -6    1.53    0.34 
   5   3  -6    8.11    0.26 
   6   3  -6    0.13    0.05 
  -5   4  -6    7.07    0.21 
  -4   4  -6    5.48    0.20 
  -3   4  -6  115.46    5.25 
  -2   4  -6    0.09    0.07 
  -1   4  -6  139.70    4.66 
   0   4  -6   31.76    1.22 
   1   4  -6    0.42    0.13 
   2   4  -6   12.85    0.88 
   3   4  -6    3.20    0.34 
   4   4  -6    2.25    0.41 
   5   4  -6   38.83    0.91 
   6   4  -6    0.14    0.05 
  -5   5  -6    0.01    0.03 
  -4   5  -6    0.64    0.07 
  -3   5  -6    5.35    0.54 
  -2   5  -6    6.48    0.38 
  -1   5  -6    2.73    0.27 
   0   5  -6   34.90    1.33 
   1   5  -6    4.48    0.36 
   2   5  -6   12.07    1.03 
   3   5  -6   30.84    1.81 
   4   5  -6    1.05    0.16 
   5   5  -6    0.58    0.10 
   6   5  -6    1.80    0.16 
  -5   6  -6    0.15    0.04 
  -4   6  -6   -0.02    0.04 
  -3   6  -6    7.84    0.61 
  -2   6  -6    0.36    0.17 
  -1   6  -6    5.46    0.57 
   0   6  -6   10.82    0.82 
   1   6  -6    0.09    0.11 
   3   6  -6    6.99    0.51 
   4   6  -6   -0.01    0.09 
   5   6  -6    0.59    0.07 
  -5   7  -6    2.15    0.10 
  -4   7  -6    0.75    0.11 
  -3   7  -6   16.86    1.05 
  -2   7  -6    1.36    0.28 
  -1   7  -6    2.67    0.46 
   1   7  -6    5.48    0.65 
   2   7  -6    2.27    0.50 
   4   7  -6    0.00    0.09 
   5   7  -6    0.30    0.06 
  -5   8  -6    1.35    0.11 
  -3   8  -6    8.77    0.68 
  -2   8  -6    5.25    0.56 
  -1   8  -6    3.22    0.53 
   1   8  -6    4.33    0.68 
   3   8  -6   -0.03    0.20 
   4   8  -6    0.52    0.16 
   5   8  -6    0.46    0.05 
  -3   9  -6   15.93    1.03 
  -2   9  -6   19.14    1.14 
  -1   9  -6   35.36    2.20 
   4   9  -6    0.81    0.16 
   5   9  -6    0.20    0.09 
   0  10  -6   13.72    1.13 
   2  10  -6   -0.09    0.16 
   4  10  -6    0.69    0.08 
   0  11  -6    5.50    0.64 
  -1 -11  -5    0.00    0.02 
   0 -11  -5    0.03    0.01 
   1 -11  -5    2.73    0.06 
   2 -11  -5    1.53    0.05 
  -2 -10  -5    0.00    0.01 
  -1 -10  -5    0.35    0.02 
   0 -10  -5    2.27    0.05 
   1 -10  -5    0.40    0.03 
   2 -10  -5    0.59    0.03 
   3 -10  -5    0.20    0.02 
   4 -10  -5    0.26    0.06 
  -3  -9  -5    1.62    0.06 
  -2  -9  -5    2.66    0.05 
  -1  -9  -5    7.95    0.13 
   0  -9  -5    2.88    0.06 
   1  -9  -5    8.01    0.12 
   2  -9  -5    0.15    0.02 
   3  -9  -5    2.22    0.06 
   4  -9  -5    4.36    0.07 
  -3  -8  -5    0.34    0.02 
  -2  -8  -5   21.48    0.29 
  -1  -8  -5    1.50    0.04 
   0  -8  -5    0.36    0.03 
   1  -8  -5    1.26    0.04 
   2  -8  -5   12.87    0.18 
   3  -8  -5   11.12    0.16 
   4  -8  -5    4.40    0.08 
   5  -8  -5    0.92    0.03 
  -4  -7  -5    0.76    0.02 
  -3  -7  -5    0.04    0.01 
  -2  -7  -5   20.77    0.24 
  -1  -7  -5   42.10    0.48 
   0  -7  -5   52.42    1.45 
   1  -7  -5   16.83    0.47 
   2  -7  -5    5.84    0.09 
   3  -7  -5    0.11    0.02 
   4  -7  -5    0.40    0.03 
   5  -7  -5    2.12    0.04 
  -4  -6  -5    2.31    0.05 
  -3  -6  -5    0.02    0.01 
  -2  -6  -5    0.42    0.02 
  -1  -6  -5   65.54    1.55 
   0  -6  -5   21.32    0.67 
   1  -6  -5   33.61    0.83 
   2  -6  -5    0.75    0.10 
   3  -6  -5    0.10    0.02 
   4  -6  -5    0.14    0.02 
   5  -6  -5    1.10    0.03 
   6  -6  -5    0.06    0.02 
  -5  -5  -5    0.03    0.02 
  -4  -5  -5    2.48    0.05 
  -3  -5  -5    1.08    0.04 
  -2  -5  -5    1.00    0.12 
  -1  -5  -5   37.46    0.93 
   0  -5  -5   18.96    0.60 
   1  -5  -5    4.41    0.18 
   2  -5  -5    0.88    0.10 
   3  -5  -5    0.67    0.10 
   4  -5  -5   24.44    0.28 
   5  -5  -5    4.33    0.08 
   6  -5  -5    1.75    0.05 
  -5  -4  -5    0.00    0.01 
  -4  -4  -5    0.49    0.02 
  -3  -4  -5    4.25    0.08 
  -2  -4  -5    0.38    0.10 
  -1  -4  -5    0.04    0.04 
   0  -4  -5    0.18    0.04 
   1  -4  -5    4.21    0.15 
   2  -4  -5   78.16    1.60 
   3  -4  -5    7.94    0.25 
   4  -4  -5    0.75    0.06 
   5  -4  -5    0.12    0.02 
   6  -4  -5    0.15    0.02 
  -5  -3  -5    0.29    0.02 
  -4  -3  -5   21.37    0.32 
  -3  -3  -5    0.92    0.20 
  -2  -3  -5    7.79    0.53 
  -1  -3  -5   66.61    1.36 
   0  -3  -5   12.97    0.30 
   1  -3  -5   27.98    0.62 
   2  -3  -5   26.76    0.55 
   3  -3  -5    0.76    0.09 
   4  -3  -5   19.13    0.76 
   5  -3  -5    6.22    0.10 
   6  -3  -5    0.56    0.03 
  -5  -2  -5    0.01    0.02 
  -4  -2  -5    0.18    0.02 
  -3  -2  -5    1.61    0.16 
  -2  -2  -5   37.01    1.28 
  -1  -2  -5    0.59    0.08 
   0  -2  -5   20.60    0.55 
   1  -2  -5  386.82    8.60 
   2  -2  -5   20.60    0.44 
   3  -2  -5   26.14    0.66 
   4  -2  -5   12.57    0.56 
   5  -2  -5    1.94    0.06 
   6  -2  -5    5.78    0.13 
  -5  -1  -5    2.12    0.07 
  -4  -1  -5    0.00    0.02 
  -3  -1  -5    0.18    0.07 
  -2  -1  -5    0.64    0.11 
  -1  -1  -5  125.55    2.79 
   1  -1  -5   31.11    1.10 
   2  -1  -5  488.99    9.69 
   3  -1  -5    1.08    0.13 
   4  -1  -5    8.40    0.63 
   5  -1  -5    0.13    0.03 
   6  -1  -5   -0.02    0.02 
  -6   0  -5    2.34    0.13 
  -5   0  -5    4.65    0.15 
  -4   0  -5    5.37    0.14 
  -3   0  -5    6.69    0.33 
  -2   0  -5    2.56    0.17 
  -1   0  -5  174.82    5.47 
   0   0  -5    0.76    0.11 
   1   0  -5    0.04    0.06 
   2   0  -5    2.89    0.20 
   3   0  -5    1.89    0.20 
   4   0  -5    7.07    0.58 
   5   0  -5    0.98    0.06 
   6   0  -5    0.17    0.05 
  -6   1  -5    6.12    0.21 
  -5   1  -5    0.15    0.03 
  -4   1  -5    3.27    0.10 
  -3   1  -5    7.12    0.35 
  -2   1  -5    2.10    0.15 
  -1   1  -5    8.07    0.31 
   0   1  -5    0.14    0.06 
   1   1  -5    0.30    0.11 
   2   1  -5    2.81    0.20 
   3   1  -5    0.31    0.10 
   4   1  -5    0.39    0.20 
   5   1  -5    0.20    0.03 
   6   1  -5    0.79    0.10 
  -6   2  -5    7.66    0.27 
  -5   2  -5    4.57    0.13 
  -4   2  -5  132.91    2.92 
  -3   2  -5    0.04    0.09 
  -2   2  -5    0.00    0.04 
  -1   2  -5    5.54    0.25 
   0   2  -5    7.77    0.36 
   1   2  -5    0.66    0.17 
   2   2  -5  167.41    5.37 
   3   2  -5    7.04    0.40 
   4   2  -5   25.67    1.47 
   5   2  -5    1.09    0.10 
   6   2  -5    1.61    0.13 
  -6   3  -5    0.81    0.05 
  -5   3  -5    0.13    0.03 
  -4   3  -5   56.62    1.27 
  -3   3  -5    2.27    0.31 
  -2   3  -5    0.23    0.06 
  -1   3  -5   44.98    1.51 
   0   3  -5   13.54    0.81 
   1   3  -5    5.62    0.46 
   2   3  -5   82.38    3.84 
   3   3  -5    3.27    0.24 
   4   3  -5   18.91    1.22 
   5   3  -5    0.21    0.08 
   6   3  -5    2.76    0.13 
  -6   4  -5    3.58    0.14 
  -5   4  -5   -0.02    0.03 
  -4   4  -5    8.04    0.35 
  -3   4  -5   19.58    1.08 
  -2   4  -5    0.02    0.04 
  -1   4  -5   77.55    3.44 
   0   4  -5  167.26    7.22 
   1   4  -5  232.91    9.73 
   3   4  -5    0.26    0.09 
   4   4  -5    3.44    0.52 
   5   4  -5    4.35    0.19 
   6   4  -5    0.00    0.04 
  -6   5  -5    0.15    0.05 
  -5   5  -5    5.70    0.32 
  -4   5  -5    7.82    0.28 
  -3   5  -5   11.14    0.74 
  -2   5  -5    2.43    0.25 
  -1   5  -5    5.77    0.36 
   0   5  -5    0.23    0.09 
   1   5  -5    1.62    0.22 
   2   5  -5    3.73    0.27 
   4   5  -5    8.10    0.76 
   5   5  -5   11.96    0.39 
   6   5  -5    0.01    0.04 
  -5   6  -5    0.15    0.06 
  -4   6  -5   -0.02    0.06 
  -3   6  -5    1.84    0.32 
  -2   6  -5   24.25    1.30 
  -1   6  -5    0.15    0.10 
   0   6  -5    0.02    0.07 
   1   6  -5    2.49    0.23 
   2   6  -5   17.89    1.28 
   3   6  -5    1.88    0.30 
   4   6  -5    0.78    0.22 
   5   6  -5    0.16    0.06 
   6   6  -5    0.09    0.08 
  -5   7  -5    1.30    0.11 
  -4   7  -5    0.76    0.12 
  -3   7  -5    2.34    0.36 
  -1   7  -5   25.46    1.61 
   0   7  -5    5.23    0.53 
   1   7  -5    0.89    0.30 
   2   7  -5    2.91    0.55 
   3   7  -5    0.15    0.16 
   4   7  -5    0.28    0.16 
   5   7  -5    2.89    0.19 
  -3   8  -5   28.90    1.61 
  -1   8  -5   57.75    3.14 
   1   8  -5    1.16    0.37 
   2   8  -5    9.98    0.97 
   3   8  -5    0.15    0.15 
   5   8  -5    0.87    0.07 
  -5   9  -5    0.01    0.03 
  -3   9  -5    0.27    0.14 
  -2   9  -5    5.09    0.54 
   1   9  -5   15.51    1.25 
   2   9  -5    0.46    0.27 
   3   9  -5    5.43    0.79 
   5   9  -5    1.28    0.09 
  -2  10  -5    0.46    0.17 
   1  10  -5    2.02    0.45 
   2  10  -5    2.67    0.54 
   4  10  -5    0.73    0.13 
   4  11  -5    0.66    0.11 
  -1 -11  -4    0.24    0.02 
   0 -11  -4    0.95    0.03 
   1 -11  -4    0.27    0.02 
   2 -11  -4    0.18    0.02 
   3 -11  -4    2.12    0.05 
  -2 -10  -4    1.64    0.04 
  -1 -10  -4    2.47    0.06 
   0 -10  -4    1.23    0.04 
   1 -10  -4    0.55    0.03 
   2 -10  -4    0.02    0.02 
   3 -10  -4    1.23    0.04 
   4 -10  -4    0.01    0.01 
  -3  -9  -4    1.09    0.03 
  -2  -9  -4    0.59    0.03 
  -1  -9  -4    1.79    0.05 
   0  -9  -4    2.09    0.05 
   1  -9  -4    0.16    0.02 
   2  -9  -4   15.50    0.22 
   3  -9  -4    3.42    0.07 
   4  -9  -4    1.77    0.04 
   5  -9  -4    1.99    0.04 
  -4  -8  -4    0.40    0.02 
  -3  -8  -4    0.66    0.02 
  -2  -8  -4   35.18    0.40 
  -1  -8  -4    7.14    0.11 
   0  -8  -4   16.12    0.22 
   1  -8  -4   16.60    0.23 
   2  -8  -4    9.40    0.15 
   3  -8  -4   11.61    0.18 
   4  -8  -4   21.60    0.29 
   5  -8  -4    0.39    0.02 
  -4  -7  -4    0.02    0.01 
  -3  -7  -4    1.88    0.04 
  -2  -7  -4   24.72    0.28 
  -1  -7  -4  112.23    2.55 
   0  -7  -4   75.42    2.00 
   1  -7  -4  104.56    2.33 
   2  -7  -4   27.61    0.80 
   3  -7  -4    0.18    0.02 
   4  -7  -4    1.40    0.04 
   5  -7  -4    0.29    0.02 
  -4  -6  -4    0.34    0.02 
  -3  -6  -4    0.20    0.02 
  -2  -6  -4   28.62    0.85 
  -1  -6  -4   34.96    0.88 
   0  -6  -4    0.76    0.08 
   1  -6  -4   29.87    0.74 
   2  -6  -4   33.61    0.79 
   3  -6  -4   29.11    0.71 
   4  -6  -4    0.53    0.03 
   5  -6  -4    0.89    0.03 
   6  -6  -4    2.02    0.04 
  -5  -5  -4    2.74    0.06 
  -4  -5  -4    1.63    0.04 
  -3  -5  -4    0.00    0.01 
  -2  -5  -4    0.68    0.10 
  -1  -5  -4   12.38    0.37 
   0  -5  -4   36.30    0.79 
   1  -5  -4    2.02    0.10 
   2  -5  -4    1.60    0.10 
   3  -5  -4    0.79    0.07 
   4  -5  -4   10.85    0.13 
   5  -5  -4    3.38    0.06 
   6  -5  -4    0.22    0.02 
  -5  -4  -4    1.10    0.04 
  -4  -4  -4    0.32    0.02 
  -3  -4  -4    4.69    0.41 
  -2  -4  -4   17.50    0.55 
  -1  -4  -4    2.47    0.12 
   0  -4  -4    4.59    0.14 
   1  -4  -4    0.36    0.05 
   2  -4  -4   27.30    0.60 
   3  -4  -4    6.45    0.21 
   4  -4  -4    2.12    0.12 
   5  -4  -4    1.68    0.04 
   6  -4  -4    2.94    0.06 
  -5  -3  -4    1.11    0.05 
  -4  -3  -4    2.21    0.06 
  -3  -3  -4    1.43    0.15 
  -2  -3  -4    7.91    0.27 
  -1  -3  -4  115.26    2.30 
   0  -3  -4    8.85    0.23 
   1  -3  -4  145.26    2.83 
   2  -3  -4    4.05    0.12 
   3  -3  -4    3.11    0.12 
   4  -3  -4    6.38    0.26 
   5  -3  -4   14.87    0.21 
   6  -3  -4    2.04    0.06 
  -6  -2  -4    0.03    0.02 
  -5  -2  -4    7.40    0.18 
  -4  -2  -4   22.12    0.35 
  -3  -2  -4    0.80    0.12 
  -2  -2  -4    0.06    0.04 
  -1  -2  -4  265.45    6.95 
   0  -2  -4    0.14    0.09 
   1  -2  -4  697.42   21.97 
   2  -2  -4  206.17    3.67 
   3  -2  -4    7.63    0.21 
   4  -2  -4    6.57    0.26 
   5  -2  -4    1.15    0.04 
   6  -2  -4    3.24    0.08 
  -6  -1  -4    3.78    0.14 
  -5  -1  -4    2.23    0.09 
  -4  -1  -4    7.03    0.46 
  -3  -1  -4    0.10    0.06 
  -2  -1  -4    7.96    0.30 
  -1  -1  -4    6.08    0.48 
   0  -1  -4    0.38    0.07 
   1  -1  -4   30.70    1.06 
   2  -1  -4   27.48    0.83 
   3  -1  -4    6.01    0.20 
   4  -1  -4    6.87    0.39 
   5  -1  -4    0.02    0.02 
   6  -1  -4    0.06    0.02 
  -6   0  -4    0.07    0.02 
  -5   0  -4   10.72    0.24 
  -4   0  -4   36.71    1.64 
  -3   0  -4    0.85    0.12 
  -2   0  -4    0.98    0.10 
   0   0  -4   77.46    3.23 
   2   0  -4   32.24    1.12 
   3   0  -4   36.76    1.06 
   4   0  -4   31.60    1.17 
   5   0  -4    0.01    0.02 
   6   0  -4    2.04    0.12 
  -6   1  -4    0.12    0.02 
  -5   1  -4    0.43    0.04 
  -4   1  -4    3.00    0.34 
  -3   1  -4   69.15    2.27 
  -2   1  -4   37.59    1.01 
  -1   1  -4    1.75    0.14 
   0   1  -4    5.90    0.27 
   1   1  -4  163.23    5.42 
   3   1  -4    0.78    0.14 
   4   1  -4   14.97    0.98 
   5   1  -4   -0.01    0.03 
   6   1  -4    1.28    0.09 
  -6   2  -4    1.57    0.07 
  -5   2  -4    5.40    0.14 
  -4   2  -4  117.30    5.13 
  -3   2  -4    1.01    0.17 
  -2   2  -4   91.82    2.05 
  -1   2  -4    0.34    0.08 
   0   2  -4   40.23    1.26 
   1   2  -4   13.38    0.74 
   2   2  -4   32.91    1.17 
   3   2  -4   12.43    0.50 
   4   2  -4    9.78    0.78 
   5   2  -4    7.24    0.25 
   6   2  -4    0.22    0.07 
  -6   3  -4   42.04    1.08 
  -5   3  -4   19.01    0.46 
  -4   3  -4  219.52    9.85 
  -3   3  -4   97.03    4.32 
  -2   3  -4   24.11    0.65 
  -1   3  -4  184.53    6.04 
   0   3  -4   12.86    0.74 
   1   3  -4   57.43    2.69 
   2   3  -4  595.72   18.66 
   3   3  -4    2.03    0.21 
   4   3  -4    6.92    0.66 
   5   3  -4    6.63    0.29 
   6   3  -4    0.01    0.05 
  -6   4  -4    3.19    0.09 
  -5   4  -4    7.64    0.40 
  -4   4  -4   18.62    0.70 
  -3   4  -4   32.76    1.66 
  -2   4  -4    9.82    0.40 
  -1   4  -4   99.27    3.15 
   0   4  -4    8.97    0.60 
   1   4  -4  107.92    4.97 
   2   4  -4  148.83    3.87 
   3   4  -4    1.04    0.21 
   4   4  -4   39.13    2.28 
   5   4  -4    0.93    0.10 
   6   4  -4    0.22    0.06 
  -6   5  -4    0.16    0.03 
  -5   5  -4   13.91    0.67 
  -4   5  -4    0.70    0.12 
  -3   5  -4   20.49    1.14 
  -2   5  -4   12.43    0.49 
  -1   5  -4  144.22    4.70 
   0   5  -4    0.28    0.13 
   1   5  -4   12.28    0.80 
   2   5  -4   34.44    1.11 
   3   5  -4    1.15    0.23 
   4   5  -4   10.70    0.92 
   5   5  -4    9.69    0.31 
   6   5  -4    0.43    0.06 
  -6   6  -4    0.29    0.03 
  -5   6  -4    0.26    0.07 
  -4   6  -4    0.02    0.07 
  -3   6  -4    7.17    0.56 
  -2   6  -4    5.20    0.52 
  -1   6  -4   56.93    2.72 
   0   6  -4    5.73    0.49 
   1   6  -4    0.72    0.17 
   2   6  -4   44.79    2.64 
   3   6  -4    9.40    0.89 
   4   6  -4   16.86    1.02 
   5   6  -4    7.11    0.33 
   6   6  -4    0.35    0.07 
  -4   7  -4   21.88    0.83 
  -3   7  -4    0.33    0.17 
  -1   7  -4   18.99    1.18 
   0   7  -4   24.41    1.40 
   1   7  -4    3.77    0.60 
   2   7  -4   21.80    1.43 
   3   7  -4   18.16    1.40 
   4   7  -4    0.15    0.15 
   5   7  -4    2.80    0.19 
  -4   8  -4    6.36    0.42 
  -3   8  -4   35.02    1.90 
   3   8  -4    5.98    0.52 
   5   8  -4    2.52    0.16 
  -5   9  -4    0.00    0.03 
  -2   9  -4    0.95    0.22 
   2   9  -4   18.40    1.39 
   3   9  -4    2.95    0.37 
   5   9  -4    3.42    0.16 
   1  10  -4    0.37    0.25 
   2  10  -4    0.18    0.21 
   1  11  -4    0.22    0.19 
  -1 -12  -3    0.05    0.02 
   0 -12  -3    0.03    0.01 
  -2 -11  -3    0.01    0.01 
  -1 -11  -3    1.04    0.04 
   0 -11  -3    2.32    0.06 
   1 -11  -3    0.03    0.02 
   2 -11  -3    6.89    0.15 
   3 -11  -3    4.94    0.11 
  -3 -10  -3    0.80    0.02 
  -2 -10  -3    1.19    0.04 
  -1 -10  -3    0.06    0.02 
   0 -10  -3    0.20    0.02 
   1 -10  -3    3.12    0.08 
   2 -10  -3    5.94    0.13 
   3 -10  -3    6.75    0.11 
   4 -10  -3    0.51    0.02 
  -3  -9  -3    0.10    0.01 
  -2  -9  -3   17.14    0.23 
  -1  -9  -3    5.93    0.10 
   0  -9  -3    0.09    0.02 
   1  -9  -3    5.30    0.11 
   2  -9  -3   13.62    0.21 
   3  -9  -3    3.32    0.06 
   4  -9  -3    2.66    0.06 
   5  -9  -3    0.07    0.01 
  -4  -8  -3    0.03    0.01 
  -3  -8  -3   13.79    0.18 
  -2  -8  -3   28.43    0.35 
  -1  -8  -3    2.65    0.07 
   0  -8  -3    0.02    0.05 
   1  -8  -3   15.84    0.50 
   2  -8  -3   15.48    0.49 
   3  -8  -3   11.15    0.15 
   4  -8  -3    0.41    0.03 
   5  -8  -3    5.66    0.09 
  -4  -7  -3    9.20    0.14 
  -3  -7  -3    0.06    0.01 
  -2  -7  -3   86.22    1.59 
  -1  -7  -3   27.43    0.72 
   0  -7  -3    0.79    0.10 
   1  -7  -3    1.88    0.12 
   2  -7  -3    0.10    0.05 
   3  -7  -3    0.52    0.07 
   4  -7  -3   44.85    0.52 
   5  -7  -3    2.02    0.04 
   6  -7  -3    6.23    0.14 
  -5  -6  -3    0.16    0.01 
  -4  -6  -3    0.91    0.03 
  -3  -6  -3    2.82    0.06 
  -2  -6  -3  127.29    3.25 
  -1  -6  -3    1.62    0.13 
   0  -6  -3   46.14    0.98 
   1  -6  -3    0.48    0.06 
   2  -6  -3    0.01    0.03 
   3  -6  -3    0.01    0.03 
   4  -6  -3    1.42    0.04 
   5  -6  -3    1.63    0.04 
   6  -6  -3   19.52    0.28 
  -5  -5  -3    1.90    0.05 
  -4  -5  -3    2.44    0.05 
  -3  -5  -3    0.85    0.14 
  -2  -5  -3    0.07    0.05 
  -1  -5  -3    0.49    0.06 
   0  -5  -3   52.06    0.99 
   1  -5  -3   27.21    0.59 
   2  -5  -3    0.93    0.07 
   3  -5  -3   25.74    0.63 
   4  -5  -3   20.12    0.59 
   5  -5  -3   20.49    0.23 
   6  -5  -3    8.19    0.13 
  -5  -4  -3    0.00    0.01 
  -4  -4  -3    1.24    0.04 
  -3  -4  -3    0.00    0.04 
  -2  -4  -3   34.81    0.78 
  -1  -4  -3    2.22    0.10 
   0  -4  -3   10.00    0.26 
   1  -4  -3   32.68    0.76 
   2  -4  -3    1.00    0.06 
   3  -4  -3    0.83    0.06 
   4  -4  -3   29.77    0.72 
   5  -4  -3    3.77    0.07 
   6  -4  -3    1.27    0.04 
  -6  -3  -3    0.01    0.01 
  -5  -3  -3    5.53    0.13 
  -4  -3  -3    3.66    0.08 
  -3  -3  -3   13.60    0.53 
  -2  -3  -3   30.10    0.60 
  -1  -3  -3    4.47    0.18 
   0  -3  -3    0.39    0.13 
   1  -3  -3  108.61    4.68 
   2  -3  -3   94.13    1.70 
   3  -3  -3   11.14    0.28 
   4  -3  -3   19.46    0.50 
   5  -3  -3    0.00    0.02 
   6  -3  -3    0.23    0.02 
  -6  -2  -3    0.57    0.04 
  -5  -2  -3    8.11    0.21 
  -4  -2  -3    1.76    0.23 
  -3  -2  -3   15.40    0.50 
  -2  -2  -3   12.46    0.34 
  -1  -2  -3    3.66    0.22 
   0  -2  -3  133.39    4.46 
   1  -2  -3    1.14    0.11 
   2  -2  -3   30.16    1.11 
   3  -2  -3   19.75    0.44 
   4  -2  -3    0.88    0.09 
   5  -2  -3    1.51    0.05 
   6  -2  -3    0.38    0.03 
  -6  -1  -3    1.12    0.05 
  -5  -1  -3    1.80    0.07 
  -4  -1  -3   12.48    0.67 
  -3  -1  -3    3.25    0.18 
  -2  -1  -3  165.07    4.00 
  -1  -1  -3   51.50    1.73 
   0  -1  -3   30.80    1.00 
   2  -1  -3   10.23    0.45 
   3  -1  -3   70.52    1.61 
   4  -1  -3   17.56    0.55 
   5  -1  -3    0.13    0.02 
   6  -1  -3    0.16    0.03 
  -6   0  -3    1.28    0.06 
  -5   0  -3    3.03    0.10 
  -4   0  -3   26.62    1.27 
  -3   0  -3   13.97    0.58 
  -2   0  -3   12.34    0.82 
  -1   0  -3   73.44    2.26 
   0   0  -3  198.23    8.30 
   1   0  -3   74.57    2.52 
   3   0  -3   27.49    0.67 
   4   0  -3   31.78    1.19 
   5   0  -3    0.76    0.05 
   6   0  -3    0.19    0.06 
  -6   1  -3    0.01    0.02 
  -5   1  -3    1.05    0.06 
  -4   1  -3    0.12    0.11 
  -3   1  -3   24.42    0.91 
  -2   1  -3   39.98    2.05 
  -1   1  -3    0.03    0.04 
   0   1  -3    4.60    0.21 
   1   1  -3   55.07    1.80 
   2   1  -3  163.96    5.15 
   3   1  -3   10.17    0.47 
   4   1  -3   11.55    0.57 
   5   1  -3    0.48    0.04 
   6   1  -3    1.99    0.13 
  -6   2  -3    0.65    0.05 
  -5   2  -3   16.15    0.35 
  -4   2  -3    3.81    0.23 
  -3   2  -3    0.02    0.04 
  -2   2  -3   14.10    0.97 
  -1   2  -3   25.14    0.88 
   0   2  -3  134.58    4.39 
   3   2  -3   35.83    1.80 
   4   2  -3    0.65    0.26 
   5   2  -3    7.31    0.26 
   6   2  -3    2.69    0.14 
  -6   3  -3    0.74    0.04 
  -5   3  -3   16.08    0.47 
  -4   3  -3    6.71    0.32 
  -3   3  -3   26.98    1.09 
  -2   3  -3   19.33    0.78 
  -1   3  -3    1.05    0.13 
   0   3  -3   51.99    1.70 
   1   3  -3    7.78    0.52 
   2   3  -3   10.32    0.50 
   3   3  -3    0.28    0.11 
   4   3  -3    7.66    0.72 
   5   3  -3    4.92    0.25 
   6   3  -3    0.17    0.07 
  -6   4  -3    2.34    0.09 
  -5   4  -3    0.03    0.04 
  -4   4  -3   62.26    2.04 
  -3   4  -3    6.46    0.41 
  -2   4  -3   46.82    1.70 
  -1   4  -3  108.80    3.48 
   0   4  -3   24.56    1.26 
   1   4  -3  191.15    6.40 
   2   4  -3    1.32    0.14 
   3   4  -3    5.97    0.35 
   4   4  -3   17.58    1.29 
   5   4  -3    5.77    0.24 
   6   4  -3    2.87    0.17 
  -6   5  -3    0.69    0.05 
  -5   5  -3    1.19    0.17 
  -4   5  -3   55.68    1.83 
  -3   5  -3    2.92    0.36 
  -2   5  -3   14.94    0.73 
  -1   5  -3   57.22    1.98 
   0   5  -3   22.08    1.20 
   1   5  -3   89.35    2.91 
   2   5  -3    6.08    0.40 
   3   5  -3    2.26    0.41 
   4   5  -3   10.67    0.93 
   5   5  -3    0.12    0.07 
   6   5  -3    3.45    0.17 
  -6   6  -3    0.00    0.02 
  -4   6  -3    0.13    0.08 
  -3   6  -3    3.94    0.43 
  -2   6  -3    4.74    0.38 
  -1   6  -3    7.18    0.56 
   0   6  -3    1.71    0.24 
   1   6  -3    3.44    0.27 
   2   6  -3    2.09    0.29 
   3   6  -3    8.77    0.81 
   4   6  -3    0.12    0.12 
   5   6  -3    9.10    0.33 
   6   6  -3    0.11    0.06 
  -6   7  -3    0.48    0.04 
  -4   7  -3    5.40    0.39 
  -3   7  -3    8.25    0.62 
  -1   7  -3    1.70    0.32 
   0   7  -3    2.64    0.32 
   1   7  -3    1.32    0.41 
   2   7  -3    0.59    0.22 
   3   7  -3   -0.02    0.17 
   4   7  -3    1.57    0.21 
   5   7  -3    0.08    0.07 
  -4   8  -3   14.28    0.80 
   2   8  -3    0.29    0.19 
   4   8  -3   -0.01    0.11 
   5   8  -3    0.84    0.09 
   2   9  -3   19.28    1.30 
   3   9  -3    1.82    0.30 
   5   9  -3    2.24    0.18 
  -3  10  -3    1.15    0.17 
  -1 -12  -2    0.76    0.03 
   0 -12  -2    1.63    0.07 
  -2 -11  -2    5.25    0.09 
  -1 -11  -2    2.35    0.06 
   0 -11  -2    1.13    0.05 
   3 -11  -2   18.86    0.38 
   4 -11  -2    1.32    0.04 
  -3 -10  -2    0.61    0.02 
  -2 -10  -2    0.68    0.03 
  -1 -10  -2    2.14    0.06 
   0 -10  -2    0.22    0.02 
   1 -10  -2    2.46    0.11 
   2 -10  -2    9.84    0.26 
   3 -10  -2   18.70    0.31 
   4 -10  -2    5.46    0.09 
  -4  -9  -2    0.23    0.01 
  -3  -9  -2    0.48    0.02 
  -2  -9  -2   15.26    0.20 
  -1  -9  -2    2.89    0.07 
   0  -9  -2    0.84    0.04 
   1  -9  -2    8.42    0.24 
   2  -9  -2    6.92    0.14 
   3  -9  -2    5.49    0.10 
   4  -9  -2   19.80    0.28 
   5  -9  -2    1.92    0.04 
  -4  -8  -2    0.27    0.02 
  -3  -8  -2   40.19    0.45 
  -2  -8  -2    0.74    0.03 
  -1  -8  -2    0.32    0.07 
   0  -8  -2    0.21    0.07 
   1  -8  -2    3.39    0.23 
   2  -8  -2   19.45    0.62 
   3  -8  -2   82.80    0.96 
   4  -8  -2   22.21    0.28 
   5  -8  -2   11.83    0.16 
  -5  -7  -2    0.05    0.01 
  -4  -7  -2    0.18    0.01 
  -3  -7  -2   40.71    0.45 
  -2  -7  -2   12.41    0.44 
  -1  -7  -2    0.05    0.04 
   0  -7  -2   25.11    0.69 
   1  -7  -2   19.30    0.57 
   2  -7  -2    4.29    0.15 
   3  -7  -2   16.43    0.49 
   4  -7  -2    2.69    0.06 
   5  -7  -2    9.90    0.13 
   6  -7  -2    1.09    0.03 
  -5  -6  -2    2.29    0.05 
  -4  -6  -2    0.36    0.02 
  -3  -6  -2    1.73    0.19 
  -2  -6  -2    5.33    0.25 
  -1  -6  -2    8.74    0.26 
   0  -6  -2    0.03    0.03 
   1  -6  -2   47.51    0.98 
   2  -6  -2   15.59    0.37 
   3  -6  -2   31.56    0.86 
   4  -6  -2    3.34    0.06 
   5  -6  -2   14.06    0.17 
   6  -6  -2    3.12    0.06 
  -5  -5  -2    0.07    0.02 
  -4  -5  -2    2.79    0.06 
  -3  -5  -2   22.08    0.66 
  -2  -5  -2   88.08    1.96 
  -1  -5  -2   24.81    0.53 
   0  -5  -2   59.89    1.03 
   1  -5  -2  103.03    2.01 
   2  -5  -2    3.68    0.11 
   3  -5  -2    1.00    0.07 
   4  -5  -2   28.20    0.79 
   5  -5  -2    1.46    0.03 
   6  -5  -2   15.80    0.23 
  -6  -4  -2    0.62    0.03 
  -5  -4  -2    0.13    0.02 
  -4  -4  -2    1.85    0.05 
  -3  -4  -2    2.74    0.16 
  -2  -4  -2   85.99    1.56 
  -1  -4  -2   12.63    0.29 
   0  -4  -2    3.05    0.21 
   1  -4  -2   44.03    1.49 
   2  -4  -2    3.96    0.11 
   3  -4  -2    4.29    0.14 
   4  -4  -2    0.80    0.08 
   5  -4  -2    5.44    0.09 
   6  -4  -2    3.25    0.06 
  -6  -3  -2    0.05    0.02 
  -5  -3  -2    0.90    0.04 
  -4  -3  -2   10.80    0.61 
  -3  -3  -2   32.76    0.81 
  -2  -3  -2   32.24    0.62 
  -1  -3  -2    0.46    0.09 
   0  -3  -2   81.56    2.55 
   1  -3  -2   13.47    0.52 
   2  -3  -2    0.79    0.13 
   3  -3  -2    8.63    0.22 
   4  -3  -2    0.00    0.03 
   5  -3  -2    1.01    0.04 
   6  -3  -2    1.38    0.04 
  -6  -2  -2    0.06    0.02 
  -5  -2  -2   40.93    0.79 
  -4  -2  -2    0.86    0.17 
  -3  -2  -2    3.35    0.17 
  -2  -2  -2  270.37    8.42 
  -1  -2  -2   57.06    1.77 
   1  -2  -2  212.26    6.90 
   2  -2  -2    3.35    0.22 
   3  -2  -2   92.36    1.82 
   4  -2  -2    0.19    0.05 
   5  -2  -2    1.36    0.05 
   6  -2  -2    1.15    0.04 
  -6  -1  -2   -0.02    0.02 
  -5  -1  -2    0.02    0.02 
  -4  -1  -2    4.93    0.37 
  -3  -1  -2    2.51    0.15 
  -2  -1  -2   28.61    0.96 
  -1  -1  -2   21.46    0.57 
   1  -1  -2  329.47   10.50 
   2  -1  -2    9.59    0.55 
   3  -1  -2   13.68    0.37 
   4  -1  -2   11.25    0.54 
   5  -1  -2    9.11    0.19 
   6  -1  -2    0.05    0.02 
  -6   0  -2    1.13    0.06 
  -5   0  -2   52.78    1.03 
  -4   0  -2   14.87    0.79 
  -3   0  -2   17.69    0.68 
  -2   0  -2  332.42   15.38 
  -1   0  -2  468.40   19.41 
   0   0  -2   83.03    3.21 
   2   0  -2    5.55    0.28 
   3   0  -2   47.69    1.34 
   4   0  -2    8.02    0.38 
   5   0  -2    0.04    0.03 
   6   0  -2    2.49    0.12 
  -6   1  -2   -0.01    0.02 
  -5   1  -2    8.50    0.20 
  -4   1  -2   22.61    0.77 
  -3   1  -2   76.90    1.93 
  -2   1  -2  195.69    8.87 
  -1   1  -2  623.68   26.35 
   0   1  -2  100.24    3.26 
   1   1  -2  137.73    6.45 
   2   1  -2   68.46    2.17 
   3   1  -2  195.80    6.38 
   4   1  -2    1.56    0.22 
   5   1  -2    0.52    0.04 
   6   1  -2    1.99    0.11 
  -6   2  -2    0.04    0.02 
  -5   2  -2   13.03    0.30 
  -4   2  -2    3.36    0.21 
  -3   2  -2  109.54    2.78 
  -2   2  -2  352.35   17.40 
  -1   2  -2  294.72   14.90 
   1   2  -2  681.38   30.37 
   2   2  -2    0.82    0.13 
   3   2  -2    4.01    0.24 
   4   2  -2    0.03    0.11 
   5   2  -2    0.90    0.09 
   6   2  -2    3.24    0.16 
  -6   3  -2    0.42    0.04 
  -5   3  -2   69.46    1.58 
  -4   3  -2   79.09    2.53 
  -3   3  -2   44.26    1.63 
  -2   3  -2  368.54   19.09 
  -1   3  -2    1.22    0.21 
   0   3  -2   98.10    3.48 
   1   3  -2  243.83    8.16 
   2   3  -2    7.01    0.37 
   3   3  -2    1.44    0.23 
   5   3  -2    1.02    0.11 
   6   3  -2    2.43    0.13 
  -6   4  -2    5.65    0.15 
  -5   4  -2   13.92    0.51 
  -4   4  -2   16.96    0.66 
  -3   4  -2   25.11    1.06 
  -2   4  -2  112.11    5.99 
  -1   4  -2    5.59    0.52 
   0   4  -2    0.38    0.08 
   1   4  -2  185.53    6.14 
   2   4  -2   35.48    1.30 
   3   4  -2   21.33    1.62 
   4   4  -2    1.20    0.35 
   5   4  -2    6.95    0.26 
   6   4  -2    4.49    0.17 
  -6   5  -2    0.11    0.03 
  -5   5  -2    7.96    0.51 
  -4   5  -2   49.36    1.64 
  -3   5  -2    0.08    0.10 
  -2   5  -2   52.80    3.08 
  -1   5  -2    0.08    0.07 
   0   5  -2    0.76    0.16 
   1   5  -2   73.66    2.52 
   2   5  -2   42.23    1.52 
   3   5  -2   19.56    1.29 
   4   5  -2   30.57    1.98 
   5   5  -2    0.85    0.13 
   6   5  -2    2.35    0.14 
  -6   6  -2    0.05    0.02 
  -5   6  -2    9.18    0.61 
  -4   6  -2   20.50    1.05 
  -2   6  -2  112.58    6.05 
  -1   6  -2   30.84    1.60 
   0   6  -2   14.10    0.66 
   1   6  -2    0.03    0.12 
   2   6  -2   30.58    1.22 
   3   6  -2   15.84    1.14 
   5   6  -2    5.39    0.29 
   6   6  -2   17.42    0.70 
  -6   7  -2    0.02    0.02 
  -4   7  -2    0.32    0.13 
  -1   7  -2   29.24    1.62 
   0   7  -2   39.87    2.36 
   1   7  -2   31.73    2.07 
   2   7  -2   13.42    0.89 
   3   7  -2    6.72    0.70 
   5   7  -2    4.26    0.23 
   0   8  -2    4.48    0.77 
   1   8  -2    9.15    0.65 
   2   8  -2    7.29    0.66 
   3   8  -2    9.56    0.85 
   4   8  -2    1.39    0.21 
   5   8  -2    1.03    0.10 
  -3   9  -2   27.15    1.38 
   2   9  -2    4.01    0.55 
   3   9  -2    0.40    0.25 
   4   9  -2    0.18    0.11 
   2  10  -2    1.60    0.35 
  -2 -12  -1    0.64    0.03 
  -1 -12  -1    1.16    0.05 
  -3 -11  -1    0.61    0.02 
  -2 -11  -1    1.11    0.03 
  -1 -11  -1    2.71    0.07 
   0 -11  -1    4.73    0.16 
   3 -11  -1    0.51    0.06 
   4 -11  -1    0.24    0.02 
  -3 -10  -1    4.67    0.08 
  -2 -10  -1    2.11    0.05 
  -1 -10  -1    9.64    0.17 
   0 -10  -1   19.80    0.40 
   3 -10  -1    3.55    0.09 
   4 -10  -1   12.04    0.19 
   5 -10  -1    0.38    0.02 
  -4  -9  -1    0.07    0.01 
  -3  -9  -1    0.04    0.01 
  -2  -9  -1   28.50    0.35 
  -1  -9  -1    1.46    0.05 
   0  -9  -1    0.11    0.07 
   2  -9  -1   13.18    0.52 
   3  -9  -1    0.04    0.02 
   4  -9  -1    2.64    0.06 
   5  -9  -1    8.09    0.12 
  -4  -8  -1    2.93    0.05 
  -3  -8  -1   24.02    0.28 
  -2  -8  -1    4.11    0.23 
  -1  -8  -1    2.79    0.18 
   0  -8  -1    0.27    0.07 
   1  -8  -1    0.03    0.05 
   2  -8  -1    3.54    0.20 
   3  -8  -1    3.93    0.09 
   4  -8  -1    6.46    0.09 
   5  -8  -1    0.93    0.03 
  -5  -7  -1    8.86    0.18 
  -4  -7  -1    0.13    0.01 
  -3  -7  -1   29.90    0.32 
  -2  -7  -1    5.67    0.26 
  -1  -7  -1    1.24    0.13 
   0  -7  -1   44.62    1.08 
   1  -7  -1    0.12    0.04 
   2  -7  -1    2.12    0.11 
   3  -7  -1  111.96    2.84 
   4  -7  -1   11.07    0.14 
   5  -7  -1    6.64    0.10 
   6  -7  -1    4.37    0.06 
  -5  -6  -1    1.07    0.04 
  -4  -6  -1    4.43    0.08 
  -3  -6  -1   58.28    1.61 
  -2  -6  -1    0.06    0.04 
  -1  -6  -1   45.82    0.96 
   0  -6  -1   56.87    1.10 
   1  -6  -1   32.88    0.79 
   2  -6  -1    0.59    0.05 
   3  -6  -1   56.32    1.26 
   4  -6  -1    0.19    0.05 
   5  -6  -1   19.78    0.22 
   6  -6  -1    1.12    0.03 
  -6  -5  -1    0.00    0.02 
  -5  -5  -1    1.13    0.04 
  -4  -5  -1    3.04    0.06 
  -3  -5  -1    3.65    0.16 
  -2  -5  -1   73.82    1.48 
  -1  -5  -1    7.91    0.21 
   0  -5  -1  261.96    7.03 
   1  -5  -1    0.10    0.04 
   2  -5  -1   16.92    0.32 
   3  -5  -1    5.84    0.16 
   4  -5  -1   31.74    0.87 
   5  -5  -1   30.98    0.32 
   6  -5  -1    5.22    0.10 
  -6  -4  -1    1.08    0.04 
  -5  -4  -1    0.81    0.04 
  -4  -4  -1    0.18    0.10 
  -3  -4  -1    7.10    0.27 
  -2  -4  -1   15.62    0.34 
  -1  -4  -1  131.82    4.23 
   0  -4  -1   38.93    1.32 
   1  -4  -1    1.80    0.18 
   2  -4  -1   24.55    0.53 
   3  -4  -1   52.34    1.05 
   4  -4  -1    9.59    0.32 
   5  -4  -1   14.00    0.18 
   6  -4  -1   11.58    0.18 
  -6  -3  -1    1.60    0.06 
  -5  -3  -1    2.51    0.07 
  -4  -3  -1    1.37    0.20 
  -3  -3  -1   11.52    0.36 
  -2  -3  -1   92.70    1.81 
  -1  -3  -1   41.40    1.37 
   0  -3  -1    0.24    0.04 
   1  -3  -1   72.64    1.90 
   2  -3  -1    0.25    0.08 
   3  -3  -1   11.99    0.28 
   4  -3  -1    8.57    0.29 
   5  -3  -1    1.51    0.04 
   6  -3  -1    2.41    0.06 
  -6  -2  -1    4.93    0.15 
  -5  -2  -1    3.99    0.10 
  -4  -2  -1    8.41    0.50 
  -3  -2  -1    4.50    0.20 
  -2  -2  -1    9.70    0.42 
  -1  -2  -1    0.21    0.05 
   0  -2  -1  403.74   12.62 
   1  -2  -1  257.50    8.35 
   2  -2  -1    5.89    0.39 
   3  -2  -1   38.88    0.73 
   4  -2  -1    6.46    0.30 
   5  -2  -1    1.36    0.05 
   6  -2  -1    1.91    0.06 
  -6  -1  -1    5.17    0.16 
  -5  -1  -1    0.41    0.04 
  -4  -1  -1   12.90    0.68 
  -3  -1  -1   48.61    2.32 
  -2  -1  -1    4.29    0.39 
  -1  -1  -1  154.20    4.89 
   1  -1  -1  255.59    8.59 
   2  -1  -1   47.37    2.30 
   3  -1  -1    3.68    0.19 
   4  -1  -1    0.20    0.10 
   5  -1  -1    1.04    0.05 
   6  -1  -1   13.46    0.26 
  -6   0  -1    2.27    0.09 
  -5   0  -1   22.70    0.46 
  -4   0  -1    9.72    0.38 
  -3   0  -1   32.53    0.85 
  -2   0  -1   20.40    0.74 
  -1   0  -1  287.71    8.72 
   0   0  -1   24.38    1.05 
   1   0  -1    0.47    0.06 
   2   0  -1   49.00    1.55 
   3   0  -1   43.81    1.48 
   4   0  -1    5.30    0.36 
   5   0  -1    0.02    0.02 
   6   0  -1    3.12    0.14 
  -6   1  -1    1.07    0.06 
  -5   1  -1    1.13    0.06 
  -4   1  -1    0.15    0.06 
  -3   1  -1   21.14    0.61 
  -2   1  -1    2.44    0.32 
  -1   1  -1   69.11    3.39 
   0   1  -1  122.38    4.02 
   2   1  -1   30.97    1.05 
   3   1  -1   26.04    0.85 
   4   1  -1   19.04    0.86 
   5   1  -1    4.38    0.15 
   6   1  -1    0.34    0.06 
  -6   2  -1    0.31    0.05 
  -5   2  -1    0.05    0.04 
  -4   2  -1    1.27    0.13 
  -3   2  -1   41.59    1.17 
  -2   2  -1    3.69    0.43 
  -1   2  -1  145.24    7.26 
   0   2  -1   20.84    1.01 
   2   2  -1   14.42    0.59 
   3   2  -1    1.63    0.18 
   4   2  -1    9.22    0.79 
   5   2  -1   10.08    0.28 
   6   2  -1    0.94    0.08 
  -6   3  -1    0.05    0.03 
  -5   3  -1    0.16    0.06 
  -4   3  -1   16.47    0.62 
  -3   3  -1    6.43    0.25 
  -2   3  -1    0.43    0.20 
  -1   3  -1   93.44    2.94 
   0   3  -1  123.65    6.07 
   1   3  -1  125.70    4.41 
   2   3  -1    8.45    0.74 
   3   3  -1   35.27    1.48 
   4   3  -1    0.69    0.19 
   5   3  -1    0.11    0.06 
   6   3  -1    0.76    0.08 
  -6   4  -1    1.63    0.08 
  -5   4  -1   66.86    2.13 
  -4   4  -1    6.07    0.40 
  -3   4  -1   23.11    1.21 
  -2   4  -1    9.59    0.87 
  -1   4  -1   17.32    0.65 
   0   4  -1    8.16    0.49 
   1   4  -1   50.39    1.70 
   2   4  -1   34.53    1.99 
   3   4  -1   46.48    1.88 
   4   4  -1   12.01    0.66 
   5   4  -1    2.76    0.17 
   6   4  -1    2.18    0.15 
  -6   5  -1    1.14    0.06 
  -5   5  -1   31.34    1.08 
  -4   5  -1   23.12    1.16 
  -3   5  -1    2.27    0.57 
  -2   5  -1    4.24    0.59 
  -1   5  -1  124.50    5.57 
   0   5  -1   30.79    1.15 
   1   5  -1   87.27    4.16 
   2   5  -1    0.03    0.08 
   3   5  -1   18.15    1.17 
   4   5  -1    1.62    0.39 
   5   5  -1    0.95    0.14 
   6   5  -1    1.91    0.10 
  -6   6  -1    0.76    0.06 
  -5   6  -1    0.56    0.08 
  -4   6  -1    5.67    0.40 
  -2   6  -1    6.42    0.79 
  -1   6  -1    3.05    0.25 
   0   6  -1   28.19    1.67 
   1   6  -1  131.03    6.03 
   2   6  -1    0.12    0.11 
   3   6  -1    7.20    0.69 
   5   6  -1    0.28    0.10 
   6   6  -1    0.50    0.09 
  -6   7  -1    3.17    0.10 
  -4   7  -1   10.00    0.59 
   0   7  -1   26.99    1.78 
   1   7  -1   35.56    2.26 
   2   7  -1    0.85    0.26 
   3   7  -1    6.28    0.66 
   4   7  -1    5.40    0.42 
   5   7  -1    1.98    0.16 
  -4   8  -1    2.58    0.27 
  -3   8  -1    0.21    0.09 
   2   8  -1    1.10    0.30 
   3   8  -1    5.44    0.69 
   4   8  -1    0.33    0.10 
   5   8  -1    0.53    0.06 
   2   9  -1    0.10    0.17 
   3   9  -1    0.03    0.19 
   4   9  -1    3.16    0.30 
   1  10  -1   17.42    1.05 
   2  10  -1    0.90    0.28 
   4  10  -1    4.90    0.33 
  -2 -12   0    0.37    0.02 
  -1 -12   0    0.33    0.03 
  -3 -11   0   13.92    0.20 
  -2 -11   0    0.81    0.03 
  -1 -11   0    4.42    0.10 
   4 -11   0    0.06    0.01 
  -4 -10   0    0.08    0.01 
  -3 -10   0    6.51    0.10 
  -2 -10   0    0.01    0.01 
  -1 -10   0    0.91    0.04 
   3 -10   0    0.64    0.04 
   4 -10   0   30.89    0.46 
   5 -10   0   20.59    0.32 
  -4  -9   0    0.03    0.01 
  -3  -9   0    1.77    0.04 
  -2  -9   0    6.62    0.11 
  -1  -9   0    0.13    0.06 
   0  -9   0    0.15    0.07 
   3  -9   0   71.80    1.04 
   4  -9   0    0.22    0.02 
   5  -9   0    7.91    0.11 
  -5  -8   0    0.05    0.01 
  -4  -8   0    0.83    0.03 
  -3  -8   0    0.14    0.02 
  -2  -8   0    3.36    0.20 
  -1  -8   0    1.29    0.13 
   0  -8   0   16.11    0.63 
   2  -8   0   33.35    0.94 
   3  -8   0    0.12    0.06 
   4  -8   0    0.65    0.03 
   5  -8   0    0.09    0.01 
  -5  -7   0    0.44    0.02 
  -4  -7   0   21.15    0.26 
  -3  -7   0    2.71    0.16 
  -2  -7   0    0.02    0.04 
  -1  -7   0    1.86    0.13 
   0  -7   0    2.29    0.12 
   1  -7   0   15.45    0.68 
   2  -7   0   18.23    0.51 
   3  -7   0   22.23    0.54 
   4  -7   0    0.14    0.02 
   5  -7   0    0.03    0.01 
   6  -7   0    0.50    0.02 
  -5  -6   0   10.89    0.21 
  -4  -6   0    0.67    0.03 
  -3  -6   0   98.10    2.23 
  -2  -6   0    3.94    0.15 
  -1  -6   0    2.24    0.10 
   0  -6   0    4.69    0.15 
   1  -6   0   62.53    1.27 
   2  -6   0   90.01    1.75 
   3  -6   0   19.83    0.48 
   4  -6   0    3.77    0.15 
   5  -6   0   13.25    0.15 
   6  -6   0    5.02    0.08 
  -6  -5   0    0.24    0.02 
  -5  -5   0    4.39    0.10 
  -4  -5   0    0.12    0.02 
  -3  -5   0  118.73    2.65 
  -2  -5   0   14.32    0.35 
  -1  -5   0  211.58    4.64 
   0  -5   0  467.21   14.89 
   1  -5   0    1.78    0.15 
   2  -5   0   27.85    0.57 
   3  -5   0   17.76    0.40 
   4  -5   0    1.30    0.09 
   5  -5   0   45.55    0.47 
   6  -5   0    2.07    0.05 
  -6  -4   0    9.90    0.24 
  -5  -4   0    0.33    0.03 
  -4  -4   0    2.09    0.25 
  -3  -4   0   17.97    0.48 
  -2  -4   0    3.39    0.12 
  -1  -4   0    0.04    0.03 
   0  -4   0   10.09    0.33 
   1  -4   0    0.74    0.08 
   2  -4   0   20.54    0.55 
   3  -4   0   27.81    0.59 
   4  -4   0    7.34    0.26 
   5  -4   0    1.96    0.05 
   6  -4   0   14.13    0.20 
  -6  -3   0    0.28    0.02 
  -5  -3   0    1.21    0.05 
  -4  -3   0    0.03    0.07 
  -3  -3   0    6.45    0.24 
  -2  -3   0    7.80    0.37 
  -1  -3   0    0.68    0.08 
   0  -3   0    4.81    0.15 
   1  -3   0   24.90    0.71 
   2  -3   0   20.14    1.02 
   3  -3   0   11.39    0.27 
   4  -3   0    0.12    0.04 
   5  -3   0    0.02    0.02 
   6  -3   0    5.15    0.09 
  -6  -2   0   13.39    0.37 
  -5  -2   0   14.23    0.30 
  -4  -2   0    0.04    0.08 
  -3  -2   0   33.94    1.35 
  -2  -2   0   13.16    0.52 
  -1  -2   0   29.01    0.95 
   0  -2   0  284.69    9.21 
   1  -2   0  183.81    4.97 
   2  -2   0   13.27    0.78 
   3  -2   0  100.77    1.95 
   4  -2   0    0.85    0.11 
   5  -2   0    0.13    0.02 
   6  -2   0    0.00    0.02 
  -6  -1   0    3.39    0.12 
  -5  -1   0    0.27    0.03 
  -4  -1   0    0.02    0.05 
  -3  -1   0    1.55    0.10 
  -2  -1   0  110.05    3.46 
  -1  -1   0  320.45    9.99 
   0  -1   0    1.48    0.05 
   2  -1   0  528.98   16.29 
   3  -1   0    0.38    0.04 
   4  -1   0    0.90    0.27 
   5  -1   0    1.22    0.05 
   6  -1   0    0.82    0.04 
  -6   0   0   17.45    0.40 
  -5   0   0    0.11    0.03 
  -4   0   0    0.00    0.04 
  -3   0   0   38.55    1.00 
  -2   0   0  401.81   12.77 
  -1   0   0  408.32   12.55 
   2   0   0  401.84   12.93 
   3   0   0   35.54    1.08 
   4   0   0   -0.01    0.13 
   5   0   0    0.14    0.03 
   6   0   0   17.48    0.39 
  -6   1   0    0.72    0.06 
  -5   1   0    1.21    0.07 
  -4   1   0    0.82    0.10 
  -3   1   0    0.36    0.06 
  -2   1   0  511.99   16.39 
   1   1   0  320.51   14.87 
   2   1   0  109.07    3.55 
   3   1   0    1.09    0.15 
   4   1   0    0.05    0.11 
   5   1   0    0.23    0.04 
   6   1   0    3.41    0.14 
  -6   2   0    0.03    0.03 
  -5   2   0    0.16    0.04 
  -4   2   0    0.93    0.11 
  -3   2   0   98.04    3.06 
  -2   2   0   12.45    0.53 
  -1   2   0  192.66    8.99 
   0   2   0  306.92   13.33 
   1   2   0   28.45    0.97 
   2   2   0   12.75    0.94 
   3   2   0   26.18    0.91 
   4   2   0    0.02    0.12 
   5   2   0   13.45    0.37 
   6   2   0   14.42    0.36 
  -6   3   0    5.11    0.15 
  -5   3   0    0.05    0.04 
  -4   3   0    0.00    0.07 
  -3   3   0   11.86    0.58 
  -2   3   0   18.45    1.25 
  -1   3   0   26.31    0.93 
   0   3   0    5.24    0.39 
   1   3   0    0.62    0.07 
   2   3   0    8.12    0.75 
   3   3   0    5.51    0.33 
   4   3   0    0.09    0.13 
   5   3   0    1.17    0.10 
   6   3   0    0.37    0.05 
  -6   4   0   13.97    0.33 
  -5   4   0    2.30    0.15 
  -4   4   0    7.47    0.46 
  -3   4   0   29.06    1.29 
  -2   4   0   18.92    1.34 
  -1   4   0    0.78    0.13 
   0   4   0    9.88    0.42 
   1   4   0    0.14    0.12 
   2   4   0    2.95    0.27 
   3   4   0   17.11    0.88 
   4   4   0    1.57    0.28 
   5   4   0    0.29    0.07 
   6   4   0   11.74    0.33 
  -6   5   0    2.16    0.12 
  -5   5   0   44.62    1.46 
  -4   5   0    1.34    0.20 
  -3   5   0   19.13    0.88 
  -2   5   0   26.97    1.80 
  -1   5   0    2.25    0.22 
   0   5   0  469.70   21.32 
   1   5   0  220.81    9.67 
   2   5   0   14.10    0.72 
   3   5   0  124.00    5.54 
   4   5   0    0.10    0.09 
   5   5   0    5.02    0.25 
   6   5   0    0.32    0.04 
  -6   6   0    4.98    0.15 
  -5   6   0   12.31    0.71 
  -4   6   0    4.16    0.36 
  -3   6   0   19.05    0.96 
  -2   6   0   87.67    4.64 
  -1   6   0   66.54    2.26 
   0   6   0    5.12    0.36 
   1   6   0    2.76    0.25 
   2   6   0    3.92    0.36 
   3   6   0  105.60    4.75 
   4   6   0    0.46    0.12 
   5   6   0   10.51    0.36 
  -6   7   0    0.51    0.04 
  -4   7   0    0.09    0.09 
  -3   7   0   21.28    1.07 
  -1   7   0   16.00    1.29 
   0   7   0    2.58    0.42 
   1   7   0    1.58    0.47 
   2   7   0    0.00    0.15 
   3   7   0    3.23    0.52 
   4   7   0   16.88    1.10 
   5   7   0    0.49    0.07 
  -4   8   0    0.47    0.12 
   2   8   0    3.99    0.55 
   3   8   0    0.23    0.22 
   4   8   0    0.57    0.17 
   5   8   0    0.04    0.05 
   2   9   0    7.73    0.69 
   3   9   0    1.54    0.47 
   4   9   0   -0.03    0.06 
   1  10   0    0.98    0.27 
   2  10   0    0.00    0.13 
   4  10   0    0.07    0.06 
  -1 -13   1   -0.01    0.02 
  -2 -12   1    2.31    0.05 
  -1 -12   1    6.54    0.15 
  -3 -11   1    1.20    0.03 
  -2 -11   1   11.11    0.18 
  -1 -11   1    8.26    0.16 
   4 -11   1    2.56    0.06 
  -4 -10   1    6.16    0.08 
  -3 -10   1    3.90    0.07 
  -2 -10   1    0.96    0.03 
  -1 -10   1   14.64    0.23 
   3 -10   1    0.48    0.03 
   4 -10   1    1.42    0.04 
   5 -10   1    0.90    0.02 
  -4  -9   1    3.98    0.06 
  -3  -9   1    0.15    0.02 
  -2  -9   1    0.02    0.02 
  -1  -9   1    3.05    0.19 
   0  -9   1    4.66    0.41 
   3  -9   1   14.73    0.22 
   4  -9   1   21.31    0.29 
   5  -9   1    0.91    0.03 
  -5  -8   1    0.54    0.02 
  -4  -8   1    0.54    0.02 
  -3  -8   1    5.33    0.08 
  -2  -8   1    1.09    0.11 
  -1  -8   1    0.69    0.10 
   0  -8   1    2.75    0.20 
   2  -8   1   40.69    1.28 
   3  -8   1    0.12    0.04 
   4  -8   1    2.49    0.05 
   5  -8   1    0.14    0.02 
  -5  -7   1    1.95    0.05 
  -4  -7   1    6.30    0.10 
  -3  -7   1    6.81    0.29 
  -2  -7   1    0.63    0.08 
  -1  -7   1   34.24    0.74 
   0  -7   1   26.94    0.67 
   2  -7   1   50.44    1.13 
   3  -7   1    1.06    0.08 
   4  -7   1   10.35    0.13 
   5  -7   1   12.74    0.16 
   6  -7   1    3.27    0.06 
  -6  -6   1    0.43    0.05 
  -5  -6   1    0.30    0.02 
  -4  -6   1   30.74    0.42 
  -3  -6   1    7.55    0.26 
  -2  -6   1    0.11    0.04 
  -1  -6   1  123.51    2.44 
   0  -6   1   26.60    0.54 
   1  -6   1    2.97    0.09 
   2  -6   1    7.20    0.18 
   3  -6   1   23.58    0.57 
   4  -6   1    5.64    0.19 
   5  -6   1    0.52    0.02 
   6  -6   1    0.70    0.02 
  -6  -5   1    1.59    0.05 
  -5  -5   1    0.76    0.04 
  -4  -5   1    1.31    0.20 
  -3  -5   1   18.82    0.58 
  -2  -5   1    0.04    0.03 
  -1  -5   1   83.90    2.17 
   0  -5   1   32.12    0.78 
   1  -5   1  123.70    3.26 
   2  -5   1    4.78    0.13 
   3  -5   1    2.68    0.10 
   4  -5   1   23.70    0.58 
   5  -5   1   33.37    0.37 
   6  -5   1    1.17    0.03 
  -6  -4   1    1.88    0.06 
  -5  -4   1    3.23    0.08 
  -3  -4   1   51.05    1.16 
  -2  -4   1   32.58    0.69 
  -1  -4   1   49.82    2.30 
   0  -4   1    8.73    0.25 
   1  -4   1   15.68    0.43 
   2  -4   1   10.77    0.27 
   3  -4   1   24.83    0.53 
   4  -4   1    6.08    0.19 
   5  -4   1   68.34    0.83 
   6  -4   1    1.64    0.05 
  -6  -3   1    0.65    0.04 
  -5  -3   1    0.13    0.02 
  -4  -3   1    0.96    0.17 
  -3  -3   1   40.32    1.28 
  -2  -3   1    8.15    0.52 
  -1  -3   1  126.68    4.02 
   0  -3   1  135.93    3.08 
   1  -3   1   92.75    3.08 
   2  -3   1    0.56    0.10 
   3  -3   1    6.12    0.20 
   4  -3   1   17.29    0.44 
   5  -3   1    0.18    0.02 
   6  -3   1    0.02    0.02 
  -6  -2   1    0.76    0.04 
  -5  -2   1   10.86    0.24 
  -4  -2   1   11.23    0.41 
  -3  -2   1    2.08    0.11 
  -2  -2   1   14.04    0.55 
  -1  -2   1  725.10   31.49 
   0  -2   1   22.34    0.51 
   1  -2   1  156.33    5.14 
   2  -2   1    4.22    0.25 
   3  -2   1   43.88    0.87 
   4  -2   1    1.39    0.15 
   5  -2   1    0.03    0.02 
   6  -2   1    0.37    0.03 
  -6  -1   1    0.29    0.04 
  -5  -1   1    4.55    0.11 
  -4  -1   1   22.40    0.72 
  -3  -1   1   29.01    0.67 
  -2  -1   1   28.59    1.02 
   0  -1   1  131.06    3.33 
   1  -1   1   82.39    3.64 
   2  -1   1    2.40    0.18 
   3  -1   1   20.58    0.48 
   4  -1   1    0.18    0.17 
   5  -1   1    1.18    0.06 
   6  -1   1    1.09    0.06 
  -6   0   1    3.05    0.10 
  -5   0   1    0.00    0.02 
  -4   0   1    5.92    0.26 
  -3   0   1   44.26    1.17 
  -2   0   1   45.34    1.54 
  -1   0   1    0.41    0.10 
   0   0   1   20.90    0.69 
   1   0   1  267.83    8.78 
   2   0   1   21.35    1.00 
   3   0   1   26.49    1.19 
   4   0   1    9.08    0.77 
   5   0   1   21.41    0.41 
   6   0   1    2.73    0.13 
  -6   1   1   13.26    0.32 
  -5   1   1    1.05    0.07 
  -4   1   1    0.21    0.06 
  -3   1   1    3.87    0.21 
  -2   1   1   49.97    1.65 
  -1   1   1  297.08   12.81 
   1   1   1  142.24    4.67 
   2   1   1    4.12    0.48 
   3   1   1   40.71    1.65 
   4   1   1   10.39    0.87 
   5   1   1    0.41    0.06 
   6   1   1    5.43    0.16 
  -6   2   1    1.94    0.07 
  -5   2   1    1.19    0.09 
  -4   2   1    6.93    0.41 
  -3   2   1   37.89    1.72 
  -2   2   1    4.85    0.51 
   0   2   1  402.29   18.10 
   1   2   1    0.15    0.11 
   2   2   1    8.89    0.80 
   3   2   1    3.59    0.25 
   4   2   1    6.72    0.70 
   5   2   1    3.91    0.16 
   6   2   1    5.35    0.17 
  -6   3   1    2.42    0.09 
  -5   3   1    1.36    0.09 
  -4   3   1    8.73    0.50 
  -3   3   1   11.88    0.60 
  -2   3   1    0.15    0.07 
  -1   3   1   73.68    2.37 
   0   3   1    0.24    0.11 
   1   3   1   41.55    2.16 
   2   3   1   88.71    3.06 
   3   3   1   10.01    0.48 
   4   3   1    0.99    0.22 
   5   3   1    2.08    0.13 
   6   3   1    1.87    0.09 
  -6   4   1   11.62    0.33 
  -5   4   1   13.76    0.52 
  -4   4   1    9.67    0.55 
  -3   4   1   51.40    2.31 
  -2   4   1   24.32    1.59 
  -1   4   1    2.29    0.26 
   0   4   1   40.19    2.00 
   1   4   1  137.17    6.21 
   2   4   1   15.07    0.75 
   3   4   1    6.74    0.43 
   4   4   1    0.21    0.16 
   5   4   1    0.81    0.10 
   6   4   1    1.15    0.07 
  -6   5   1    5.27    0.17 
  -5   5   1   30.64    0.83 
  -4   5   1   30.08    1.48 
  -3   5   1    5.43    0.31 
  -2   5   1   17.75    1.35 
  -1   5   1    0.11    0.10 
   0   5   1  283.72    8.36 
   1   5   1    7.82    0.77 
   2   5   1   72.61    2.62 
   3   5   1    3.41    0.36 
   4   5   1    2.32    0.16 
   5   5   1    0.93    0.09 
   6   5   1    0.01    0.05 
  -6   6   1    1.15    0.07 
  -5   6   1   19.24    0.95 
  -4   6   1    0.22    0.11 
  -3   6   1   54.38    2.49 
  -2   6   1    0.44    0.28 
  -1   6   1   33.11    1.78 
   0   6   1   67.57    2.95 
   1   6   1   44.06    2.65 
   2   6   1    0.25    0.17 
   3   6   1   66.43    3.09 
   4   6   1    3.21    0.22 
   5   6   1    1.18    0.11 
  -6   7   1    4.09    0.15 
  -4   7   1    9.81    0.61 
  -1   7   1    0.10    0.10 
   0   7   1   49.52    2.47 
   1   7   1    1.33    0.27 
   2   7   1    5.30    0.57 
   3   7   1   32.77    1.80 
   4   7   1    0.18    0.10 
   5   7   1    8.84    0.28 
  -4   8   1    6.04    0.38 
   1   8   1    3.07    0.47 
   2   8   1    4.57    0.60 
   3   8   1   23.21    1.46 
   4   8   1    2.37    0.20 
  -3   9   1    0.05    0.06 
   2   9   1   30.63    1.69 
   4   9   1    0.03    0.06 
   3  11   1    0.39    0.08 
  -1 -13   2    0.06    0.04 
  -3 -12   2    0.01    0.01 
  -2 -12   2    0.02    0.01 
  -1 -12   2    1.64    0.06 
  -3 -11   2    0.76    0.02 
  -2 -11   2    1.43    0.04 
  -1 -11   2    3.87    0.08 
   3 -11   2    0.25    0.03 
   4 -11   2    0.02    0.01 
  -4 -10   2    2.49    0.04 
  -3 -10   2    3.43    0.06 
  -2 -10   2    2.44    0.05 
  -1 -10   2    0.64    0.03 
   3 -10   2   12.26    0.22 
   4 -10   2    6.17    0.11 
   5 -10   2    0.15    0.01 
  -5  -9   2    0.40    0.06 
  -4  -9   2    0.23    0.02 
  -3  -9   2    0.48    0.02 
  -2  -9   2    4.21    0.07 
  -1  -9   2    0.12    0.06 
   0  -9   2    0.20    0.12 
   2  -9   2   66.86    2.90 
   3  -9   2   29.64    0.38 
   4  -9   2    0.62    0.03 
   5  -9   2    0.61    0.02 
  -5  -8   2    1.08    0.04 
  -4  -8   2    1.73    0.04 
  -3  -8   2   11.04    0.14 
  -2  -8   2    6.89    0.25 
  -1  -8   2    7.28    0.25 
   0  -8   2    5.43    0.22 
   2  -8   2   94.05    2.35 
   3  -8   2    4.94    0.18 
   4  -8   2   19.02    0.22 
   5  -8   2    0.14    0.01 
  -5  -7   2    3.97    0.09 
  -4  -7   2   23.42    0.31 
  -3  -7   2    7.76    0.31 
  -2  -7   2   11.75    0.35 
  -1  -7   2   30.52    0.67 
   0  -7   2   38.69    0.94 
   1  -7   2   31.71    0.72 
   2  -7   2   21.87    0.58 
   3  -7   2    3.05    0.13 
   4  -7   2    0.02    0.01 
   5  -7   2    3.37    0.06 
   6  -7   2    0.00    0.01 
  -6  -6   2   14.14    0.37 
  -5  -6   2    5.47    0.11 
  -4  -6   2   88.66    1.11 
  -3  -6   2   17.64    0.55 
  -2  -6   2   27.24    0.62 
  -1  -6   2    0.06    0.03 
   0  -6   2   14.42    0.31 
   1  -6   2   31.20    0.66 
   2  -6   2  128.28    2.43 
   3  -6   2    0.72    0.07 
   4  -6   2   20.99    0.52 
   5  -6   2   10.75    0.13 
   6  -6   2    0.03    0.01 
  -6  -5   2    2.03    0.06 
  -5  -5   2    0.74    0.03 
  -4  -5   2   42.02    1.75 
  -3  -5   2   22.67    0.66 
  -2  -5   2   38.45    0.83 
  -1  -5   2   74.82    1.50 
   0  -5   2    0.87    0.12 
   1  -5   2    0.06    0.05 
   2  -5   2   59.78    1.16 
   3  -5   2    0.09    0.03 
   4  -5   2   47.20    1.10 
   5  -5   2    8.61    0.12 
   6  -5   2    0.06    0.01 
  -6  -4   2    3.81    0.10 
  -5  -4   2    7.41    0.17 
  -4  -4   2    1.68    0.22 
  -3  -4   2   22.30    0.50 
  -2  -4   2   33.40    0.71 
  -1  -4   2  188.01    6.28 
   0  -4   2    0.43    0.07 
   1  -4   2    6.39    0.32 
   2  -4   2  132.32    2.30 
   3  -4   2   27.70    0.58 
   4  -4   2   17.85    0.45 
   5  -4   2   14.21    0.19 
   6  -4   2    5.82    0.11 
  -6  -3   2    2.17    0.07 
  -5  -3   2    1.15    0.06 
  -4  -3   2   16.25    0.58 
  -3  -3   2    1.78    0.11 
  -2  -3   2    6.83    0.47 
  -1  -3   2  244.69    8.06 
   0  -3   2  115.02    3.58 
   1  -3   2    1.41    0.13 
   2  -3   2  412.50   12.95 
   3  -3   2   46.78    1.03 
   4  -3   2   81.13    2.09 
   5  -3   2   72.82    0.96 
   6  -3   2    0.43    0.03 
  -6  -2   2    3.11    0.11 
  -5  -2   2    0.95    0.05 
  -4  -2   2    0.03    0.04 
  -3  -2   2    4.34    0.19 
  -2  -2   2    0.70    0.14 
  -1  -2   2  710.82   30.45 
   1  -2   2  332.44   10.37 
   2  -2   2  372.98   11.79 
   3  -2   2  106.92    1.94 
   4  -2   2    3.73    0.23 
   5  -2   2   13.53    0.23 
   6  -2   2    0.04    0.02 
  -6  -1   2    1.97    0.08 
  -5  -1   2    0.57    0.05 
  -4  -1   2    1.51    0.13 
  -3  -1   2  211.29    5.10 
  -2  -1   2   63.47    3.02 
  -1  -1   2  141.20    4.61 
   0  -1   2   92.83    4.36 
   1  -1   2  548.07   26.68 
   2  -1   2  191.53    6.18 
   3  -1   2   71.23    1.67 
   4  -1   2   20.90    1.35 
   5  -1   2    8.08    0.17 
   6  -1   2    0.01    0.03 
  -6   0   2    2.47    0.09 
  -5   0   2    0.09    0.03 
  -4   0   2    9.15    0.47 
  -3   0   2   51.70    1.59 
  -2   0   2    4.99    0.38 
   0   0   2   62.71    2.22 
   1   0   2  370.72   19.11 
   2   0   2  310.33   10.28 
   3   0   2   15.81    0.55 
   4   0   2   12.89    0.99 
   5   0   2   52.24    0.85 
   6   0   2    1.08    0.08 
  -6   1   2    0.07    0.03 
  -5   1   2    8.96    0.24 
  -4   1   2   11.98    0.62 
  -3   1   2   13.15    0.50 
  -2   1   2    8.36    0.66 
   0   1   2  775.41   33.67 
   1   1   2   18.06    1.16 
   2   1   2   23.38    1.60 
   3   1   2    1.95    0.30 
   4   1   2    4.10    0.63 
   5   1   2    0.02    0.06 
   6   1   2    0.01    0.04 
  -6   2   2    1.11    0.05 
  -5   2   2    1.45    0.08 
  -4   2   2    0.20    0.06 
  -3   2   2   90.90    3.98 
  -2   2   2    3.49    0.42 
   0   2   2  628.72   19.56 
   1   2   2   50.67    2.70 
   2   2   2  245.22    8.20 
   3   2   2    2.63    0.36 
   4   2   2    0.76    0.31 
   5   2   2   38.86    0.79 
   6   2   2    0.08    0.04 
  -6   3   2    1.43    0.07 
  -5   3   2    0.97    0.08 
  -4   3   2    0.03    0.04 
  -3   3   2    7.66    0.38 
  -2   3   2    0.85    0.28 
  -1   3   2   12.21    0.77 
   0   3   2   80.05    2.59 
   1   3   2    0.39    0.19 
   2   3   2   30.00    1.26 
   3   3   2   29.43    1.20 
   4   3   2    9.57    0.89 
   5   3   2    0.92    0.08 
   6   3   2    0.07    0.04 
  -6   4   2    3.40    0.11 
  -5   4   2    5.12    0.20 
  -4   4   2    0.61    0.14 
  -3   4   2    3.94    0.24 
  -2   4   2    3.94    0.56 
  -1   4   2   44.81    2.19 
   0   4   2    3.23    0.25 
   1   4   2   11.19    0.96 
   2   4   2   80.94    2.93 
   3   4   2    3.10    0.34 
   4   4   2    1.29    0.12 
   5   4   2    0.16    0.06 
   6   4   2    0.84    0.08 
  -6   5   2   15.98    0.42 
  -5   5   2    1.48    0.18 
  -4   5   2   27.19    1.34 
  -3   5   2    0.83    0.13 
  -2   5   2    3.61    0.59 
  -1   5   2   96.59    4.70 
   0   5   2   63.14    2.95 
   1   5   2   27.69    0.88 
   2   5   2   84.93    3.05 
   3   5   2   21.50    0.97 
   4   5   2    2.44    0.21 
   5   5   2    0.06    0.05 
  -6   6   2    3.13    0.11 
  -5   6   2   12.82    0.66 
  -4   6   2    3.24    0.21 
  -2   6   2   15.48    1.37 
  -1   6   2   44.21    2.43 
   0   6   2    0.02    0.09 
   1   6   2    9.34    0.45 
   2   6   2    5.38    0.56 
   3   6   2    1.75    0.28 
   4   6   2    0.33    0.08 
   5   6   2    2.35    0.11 
  -6   7   2    1.05    0.06 
  -4   7   2    2.85    0.26 
   1   7   2    0.02    0.11 
   2   7   2   11.45    0.93 
   3   7   2   43.60    2.25 
   4   7   2    0.14    0.07 
   5   7   2    0.05    0.04 
  -4   8   2   19.67    1.04 
  -3   8   2   73.93    3.59 
   1   8   2    0.44    0.21 
   2   8   2    0.97    0.21 
   3   8   2   38.66    2.14 
   4   8   2    0.24    0.09 
   1   9   2    2.28    0.40 
   2   9   2   16.64    1.08 
   4   9   2    0.20    0.05 
  -2 -13   3    0.08    0.02 
  -1 -13   3    0.78    0.06 
  -3 -12   3    0.63    0.02 
  -2 -12   3    0.11    0.02 
  -1 -12   3    2.83    0.07 
  -3 -11   3    4.02    0.07 
  -2 -11   3    1.84    0.04 
  -1 -11   3    4.81    0.10 
   3 -11   3    3.12    0.08 
   4 -11   3    0.05    0.01 
  -4 -10   3    0.12    0.01 
  -3 -10   3    0.65    0.03 
  -2 -10   3    0.39    0.02 
  -1 -10   3    0.14    0.02 
   0 -10   3    0.02    0.11 
   3 -10   3    1.43    0.04 
   4 -10   3    0.97    0.03 
   5 -10   3    0.48    0.02 
  -5  -9   3    2.30    0.07 
  -4  -9   3    0.50    0.02 
  -3  -9   3    2.72    0.05 
  -2  -9   3   21.68    0.27 
  -1  -9   3    2.10    0.17 
   0  -9   3   11.81    0.49 
   2  -9   3    2.95    0.15 
   3  -9   3   12.50    0.16 
   4  -9   3    0.71    0.03 
   5  -9   3    0.39    0.02 
  -5  -8   3    0.93    0.03 
  -4  -8   3    0.03    0.01 
  -3  -8   3   15.45    0.19 
  -2  -8   3    0.45    0.08 
  -1  -8   3    8.57    0.32 
   0  -8   3    0.06    0.06 
   1  -8   3   18.86    0.64 
   2  -8   3    6.19    0.24 
   3  -8   3    0.31    0.04 
   4  -8   3   15.43    0.18 
   5  -8   3    4.82    0.07 
  -5  -7   3    0.01    0.01 
  -4  -7   3    2.15    0.05 
  -3  -7   3    0.04    0.06 
  -2  -7   3    0.61    0.08 
  -1  -7   3    1.41    0.10 
   0  -7   3    2.69    0.11 
   1  -7   3    1.61    0.08 
   2  -7   3    5.25    0.16 
   3  -7   3    9.06    0.26 
   4  -7   3    5.46    0.08 
   5  -7   3    0.43    0.02 
   6  -7   3    0.47    0.03 
  -6  -6   3    0.14    0.01 
  -5  -6   3    9.54    0.17 
  -4  -6   3    0.11    0.02 
  -3  -6   3   11.44    0.39 
  -2  -6   3    2.17    0.09 
  -1  -6   3    2.88    0.10 
   0  -6   3    1.74    0.08 
   1  -6   3    6.98    0.19 
   2  -6   3    5.08    0.14 
   3  -6   3    3.71    0.13 
   4  -6   3    0.20    0.02 
   5  -6   3    0.14    0.02 
   6  -6   3    0.00    0.01 
  -6  -5   3    2.96    0.08 
  -5  -5   3    0.15    0.02 
  -4  -5   3   14.24    0.72 
  -3  -5   3    3.08    0.13 
  -2  -5   3    6.04    0.18 
  -1  -5   3   86.54    1.75 
   0  -5   3   23.33    0.85 
   1  -5   3   58.61    1.17 
   2  -5   3   15.09    0.32 
   3  -5   3    2.79    0.12 
   4  -5   3   56.09    1.43 
   5  -5   3    1.54    0.04 
   6  -5   3    0.74    0.03 
  -6  -4   3    2.21    0.06 
  -5  -4   3    5.87    0.13 
  -4  -4   3   23.03    0.74 
  -3  -4   3    6.43    0.21 
  -2  -4   3    1.14    0.07 
  -1  -4   3  191.78    6.37 
   0  -4   3   25.10    0.89 
   1  -4   3  111.61    3.48 
   2  -4   3   50.03    0.92 
   3  -4   3    6.77    0.19 
   4  -4   3   63.97    1.43 
   5  -4   3    0.05    0.02 
   6  -4   3    2.34    0.06 
  -6  -3   3    0.18    0.03 
  -5  -3   3    4.73    0.12 
  -4  -3   3    9.95    0.37 
  -3  -3   3    0.42    0.06 
  -2  -3   3    9.75    0.63 
  -1  -3   3    8.77    0.39 
   0  -3   3   54.57    1.73 
   1  -3   3    1.11    0.13 
   2  -3   3   20.29    0.40 
   3  -3   3   28.22    0.57 
   4  -3   3    6.77    0.26 
   5  -3   3   16.56    0.24 
   6  -3   3    0.76    0.03 
  -6  -2   3    2.34    0.08 
  -5  -2   3    7.58    0.18 
  -4  -2   3    0.51    0.08 
  -3  -2   3   35.60    0.96 
  -1  -2   3 1000.00   43.58 
   0  -2   3  128.66    4.42 
   1  -2   3   24.04    0.88 
   2  -2   3   14.27    0.63 
   3  -2   3    0.04    0.03 
   4  -2   3    3.33    0.23 
   5  -2   3   15.99    0.27 
   6  -2   3    0.80    0.06 
  -6  -1   3    1.74    0.07 
  -5  -1   3    0.47    0.04 
  -4  -1   3   12.17    0.62 
  -3  -1   3   10.32    0.33 
  -2  -1   3  136.42    6.76 
  -1  -1   3   61.84    2.75 
   0  -1   3    3.94    0.34 
   1  -1   3    0.03    0.02 
   2  -1   3   39.66    1.40 
   3  -1   3   22.50    0.73 
   4  -1   3    0.21    0.08 
   5  -1   3    1.00    0.06 
   6  -1   3    0.05    0.03 
  -6   0   3    0.18    0.03 
  -5   0   3    0.75    0.05 
  -4   0   3   32.77    1.49 
  -3   0   3   27.36    0.74 
  -2   0   3   20.73    1.16 
  -1   0   3   81.24    3.64 
   0   0   3  162.13    8.16 
   1   0   3   68.43    2.27 
   2   0   3    9.56    0.89 
   3   0   3   13.11    0.49 
   4   0   3   23.04    1.52 
   5   0   3    2.99    0.12 
   6   0   3    1.50    0.08 
  -6   1   3    0.15    0.03 
  -5   1   3    0.16    0.04 
  -4   1   3   17.75    0.88 
  -3   1   3   74.04    2.20 
  -2   1   3    9.93    0.74 
  -1   1   3  727.74   32.16 
   0   1   3   28.47    1.44 
   1   1   3   57.97    2.46 
   2   1   3  144.35    4.98 
   3   1   3    2.59    0.36 
   4   1   3    9.98    0.90 
   5   1   3    1.81    0.11 
   6   1   3    1.24    0.07 
  -6   2   3    0.39    0.04 
  -5   2   3    1.35    0.08 
  -4   2   3    1.00    0.10 
  -3   2   3   19.87    0.65 
  -2   2   3   32.57    1.80 
   0   2   3  144.06    6.05 
   1   2   3    3.78    0.27 
   2   2   3   11.35    0.43 
   3   2   3   12.33    0.98 
   4   2   3    1.17    0.36 
   5   2   3    7.82    0.25 
   6   2   3    0.68    0.05 
  -6   3   3    0.18    0.03 
  -5   3   3    0.04    0.06 
  -4   3   3   19.01    0.67 
  -3   3   3   10.94    0.39 
  -2   3   3   99.63    4.66 
  -1   3   3   94.17    4.59 
   0   3   3    0.38    0.10 
   1   3   3    4.66    0.25 
   2   3   3   30.40    1.62 
   3   3   3   11.68    0.95 
   4   3   3    3.01    0.18 
   5   3   3    5.24    0.19 
   6   3   3    0.03    0.03 
  -6   4   3    1.17    0.07 
  -5   4   3    3.80    0.17 
  -4   4   3   28.28    0.97 
  -3   4   3    0.81    0.08 
  -2   4   3    1.11    0.37 
  -1   4   3   26.70    1.65 
   0   4   3    9.91    0.73 
   1   4   3    2.30    0.14 
   2   4   3   36.69    1.37 
   3   4   3    0.10    0.11 
   4   4   3    0.92    0.11 
   5   4   3    0.01    0.05 
  -6   5   3    8.13    0.23 
  -5   5   3   18.39    0.69 
  -4   5   3   20.05    0.70 
  -3   5   3   27.42    1.21 
  -2   5   3    0.94    0.11 
  -1   5   3   24.12    1.53 
   0   5   3   54.06    1.76 
   1   5   3    0.56    0.13 
   2   5   3    0.10    0.15 
   3   5   3    0.91    0.22 
   4   5   3    1.94    0.14 
   5   5   3    1.82    0.11 
  -6   6   3   18.93    0.61 
  -4   6   3    1.44    0.18 
  -3   6   3    0.01    0.05 
  -2   6   3    0.01    0.04 
  -1   6   3    0.31    0.19 
   0   6   3   45.82    1.60 
   1   6   3    1.84    0.36 
   2   6   3  124.99    5.90 
   3   6   3    2.73    0.25 
   4   6   3    0.75    0.11 
   5   6   3    0.17    0.04 
  -6   7   3    5.88    0.29 
  -4   7   3   41.05    2.01 
  -3   7   3    0.35    0.09 
   1   7   3   30.26    1.66 
   2   7   3   85.14    4.20 
   3   7   3    0.12    0.13 
   4   7   3    7.66    0.31 
  -5   8   3    4.83    0.28 
  -3   8   3    9.79    0.58 
  -1   8   3   15.76    0.86 
   1   8   3    2.62    0.47 
   2   8   3   25.91    1.67 
   3   8   3   11.06    0.73 
   4   8   3    0.00    0.04 
  -5   9   3    0.03    0.03 
   0   9   3    0.09    0.14 
   1   9   3    5.95    0.61 
   3   9   3    0.05    0.08 
   0  10   3    0.25    0.21 
   3  10   3    0.48    0.08 
  -2 -13   4    0.03    0.01 
  -1 -13   4    0.40    0.03 
  -3 -12   4    0.37    0.01 
  -2 -12   4    1.24    0.03 
  -1 -12   4    1.64    0.05 
   3 -12   4    0.02    0.02 
  -4 -11   4    0.32    0.02 
  -3 -11   4    0.47    0.02 
  -2 -11   4    1.22    0.04 
  -1 -11   4    0.19    0.02 
   0 -11   4   22.77    1.06 
   3 -11   4    0.04    0.02 
   4 -11   4    1.17    0.03 
  -4 -10   4    0.14    0.01 
  -3 -10   4    4.11    0.07 
  -2 -10   4    0.12    0.02 
  -1 -10   4    0.30    0.02 
   0 -10   4   48.96    0.89 
   2 -10   4    0.12    0.02 
   3 -10   4    0.35    0.02 
   4 -10   4    2.70    0.05 
  -5  -9   4    3.67    0.09 
  -4  -9   4    0.00    0.01 
  -3  -9   4    4.17    0.07 
  -2  -9   4   19.81    0.24 
  -1  -9   4   74.91    1.98 
   0  -9   4   55.47    1.46 
   1  -9   4  134.37    4.12 
   2  -9   4    1.09    0.09 
   3  -9   4    1.19    0.03 
   4  -9   4    2.31    0.05 
   5  -9   4    0.05    0.01 
  -5  -8   4    3.03    0.06 
  -4  -8   4    7.49    0.11 
  -3  -8   4    7.34    0.10 
  -2  -8   4   54.28    1.48 
  -1  -8   4   35.25    0.84 
   0  -8   4    1.29    0.10 
   1  -8   4   18.71    0.51 
   2  -8   4    0.29    0.05 
   3  -8   4   38.55    0.43 
   4  -8   4    6.62    0.09 
   5  -8   4    2.42    0.04 
  -5  -7   4    3.52    0.07 
  -4  -7   4    0.37    0.02 
  -3  -7   4   21.22    0.65 
  -2  -7   4   27.27    0.65 
  -1  -7   4    3.56    0.13 
   0  -7   4   24.72    0.62 
   1  -7   4   19.39    0.44 
   2  -7   4    8.66    0.23 
   3  -7   4    0.35    0.05 
   4  -7   4   23.23    0.27 
   5  -7   4    0.62    0.02 
  -6  -6   4    0.20    0.02 
  -5  -6   4    7.30    0.13 
  -4  -6   4   20.60    0.29 
  -3  -6   4   10.52    0.31 
  -2  -6   4   43.63    1.02 
  -1  -6   4    0.68    0.05 
   0  -6   4    5.53    0.14 
   1  -6   4   55.13    1.12 
   2  -6   4    5.39    0.15 
   3  -6   4    7.66    0.22 
   4  -6   4    0.07    0.01 
   5  -6   4    0.29    0.02 
   6  -6   4    0.30    0.02 
  -6  -5   4    0.37    0.02 
  -5  -5   4    9.99    0.17 
  -4  -5   4   12.62    0.46 
  -3  -5   4    1.44    0.10 
  -2  -5   4   35.15    0.74 
  -1  -5   4   12.45    0.28 
   0  -5   4    0.23    0.05 
   1  -5   4  152.43    2.47 
   2  -5   4   12.77    0.28 
   3  -5   4   21.03    0.57 
   4  -5   4    0.64    0.02 
   5  -5   4   14.11    0.23 
   6  -5   4    0.18    0.02 
  -6  -4   4    0.19    0.02 
  -5  -4   4    0.99    0.05 
  -4  -4   4   45.79    1.41 
  -3  -4   4    1.39    0.10 
  -2  -4   4  148.74    2.88 
  -1  -4   4  112.30    3.53 
   0  -4   4    9.24    0.41 
   1  -4   4   96.71    2.16 
   2  -4   4   10.33    0.23 
   3  -4   4   33.62    0.87 
   4  -4   4   19.15    0.66 
   5  -4   4    7.65    0.13 
   6  -4   4    3.45    0.09 
  -6  -3   4    0.00    0.02 
  -5  -3   4    6.68    0.16 
  -4  -3   4    7.70    0.32 
  -3  -3   4    2.17    0.11 
  -2  -3   4  558.78   12.57 
  -1  -3   4   58.10    1.92 
   0  -3   4   12.87    0.52 
   1  -3   4  180.67    6.06 
   2  -3   4   24.63    0.49 
   3  -3   4   97.23    1.95 
   4  -3   4  230.55    7.00 
   5  -3   4   19.42    0.28 
   6  -3   4   44.50    0.95 
  -6  -2   4    0.20    0.03 
  -5  -2   4    7.26    0.16 
  -4  -2   4   10.15    0.54 
  -3  -2   4   14.17    0.52 
  -2  -2   4   29.15    1.59 
  -1  -2   4   11.67    0.71 
   0  -2   4   36.21    1.29 
   1  -2   4    0.32    0.16 
   2  -2   4   90.15    2.02 
   3  -2   4    0.95    0.12 
   4  -2   4  115.04    3.67 
   5  -2   4    5.43    0.13 
   6  -2   4    1.91    0.10 
  -6  -1   4    1.25    0.05 
  -5  -1   4    0.01    0.02 
  -4  -1   4   15.73    0.78 
  -3  -1   4    0.78    0.10 
  -1  -1   4  170.66    7.99 
   0  -1   4    5.25    0.45 
   1  -1   4    1.36    0.31 
   2  -1   4   33.77    1.03 
   3  -1   4   66.31    1.87 
   4  -1   4    2.78    0.23 
   5  -1   4    0.27    0.04 
   6  -1   4    0.13    0.02 
  -6   0   4    2.20    0.08 
  -5   0   4   -0.03    0.02 
  -4   0   4   31.20    1.46 
  -3   0   4   38.40    1.18 
  -2   0   4   31.07    1.67 
   0   0   4   67.77    3.36 
   1   0   4   87.96    2.87 
   2   0   4    0.75    0.10 
   3   0   4    0.63    0.12 
   4   0   4   29.77    1.88 
   5   0   4   10.87    0.30 
   6   0   4    0.10    0.02 
  -6   1   4    0.09    0.02 
  -5   1   4    0.02    0.03 
  -4   1   4    6.59    0.28 
  -3   1   4    5.88    0.34 
  -2   1   4   31.14    1.02 
   1   1   4    5.25    0.33 
   2   1   4    7.61    0.32 
   3   1   4    0.04    0.07 
   4   1   4    5.95    0.68 
   5   1   4    2.53    0.14 
   6   1   4    4.28    0.15 
  -6   2   4    3.21    0.09 
  -5   2   4    1.14    0.08 
  -4   2   4    6.10    0.27 
  -3   2   4    7.52    0.29 
  -2   2   4  212.70    8.77 
   0   2   4    0.13    0.08 
   1   2   4  272.96    6.70 
   2   2   4    0.03    0.05 
   3   2   4    0.71    0.28 
   4   2   4   19.66    0.52 
   5   2   4    7.41    0.22 
   6   2   4    0.08    0.05 
  -6   3   4    1.91    0.07 
  -5   3   4   14.35    0.36 
  -4   3   4    5.97    0.27 
  -3   3   4    3.16    0.15 
  -2   3   4    4.01    0.24 
   0   3   4    9.01    0.38 
   1   3   4  118.01    2.99 
   2   3   4    7.12    0.37 
   3   3   4    1.09    0.36 
   4   3   4    1.96    0.12 
   5   3   4    1.12    0.10 
  -6   4   4    2.80    0.09 
  -5   4   4    1.78    0.10 
  -4   4   4    1.98    0.16 
  -3   4   4    6.57    0.37 
  -2   4   4   28.81    1.25 
  -1   4   4    0.45    0.07 
   0   4   4    4.66    0.25 
   1   4   4    2.45    0.17 
   2   4   4   17.71    1.16 
   3   4   4    4.29    0.66 
   4   4   4    0.30    0.07 
   5   4   4    1.09    0.09 
  -6   5   4    0.22    0.03 
  -5   5   4    3.58    0.19 
  -4   5   4   10.30    0.58 
  -3   5   4    0.78    0.12 
  -2   5   4    1.42    0.15 
  -1   5   4    1.58    0.39 
   0   5   4   35.88    1.28 
   1   5   4   14.13    0.92 
   2   5   4    0.74    0.27 
   3   5   4   -0.02    0.11 
   4   5   4    1.28    0.11 
   5   5   4    2.78    0.11 
  -6   6   4    2.00    0.09 
  -4   6   4    0.55    0.12 
  -3   6   4   28.17    1.35 
  -2   6   4   31.24    1.50 
   0   6   4    0.82    0.15 
   1   6   4   38.10    1.99 
   2   6   4   28.17    1.73 
   3   6   4    0.14    0.13 
   4   6   4    0.38    0.07 
  -5   7   4    0.24    0.06 
  -4   7   4    1.08    0.15 
  -3   7   4    0.16    0.08 
  -1   7   4  103.92    4.62 
   1   7   4  118.68    5.37 
   2   7   4   23.96    1.55 
   3   7   4    1.82    0.20 
   4   7   4    0.02    0.05 
  -5   8   4    0.34    0.05 
  -1   8   4   16.33    0.90 
   1   8   4    7.23    0.70 
   2   8   4   35.48    1.39 
   3   8   4    0.55    0.15 
   4   8   4    0.32    0.05 
  -2   9   4   13.02    0.82 
   0   9   4    1.95    0.39 
   1   9   4    2.02    0.42 
   3   9   4    0.76    0.10 
   2  10   4    1.10    0.16 
  -2 -13   5    0.16    0.02 
  -1 -13   5    3.06    0.07 
  -3 -12   5    2.20    0.04 
  -2 -12   5    1.32    0.04 
  -1 -12   5    0.06    0.02 
   0 -12   5    2.76    0.10 
   3 -12   5    0.04    0.01 
  -4 -11   5    0.69    0.04 
  -3 -11   5    1.56    0.04 
  -2 -11   5   11.48    0.17 
  -1 -11   5    1.03    0.04 
   0 -11   5    0.81    0.04 
   1 -11   5    1.82    0.07 
   2 -11   5    5.82    0.12 
   3 -11   5    0.82    0.03 
   4 -11   5    0.03    0.01 
  -4 -10   5    0.84    0.02 
  -3 -10   5    0.02    0.01 
  -2 -10   5    3.01    0.06 
  -1 -10   5    2.85    0.06 
   0 -10   5   28.19    0.37 
   1 -10   5    1.21    0.04 
   2 -10   5    0.72    0.03 
   3 -10   5    3.55    0.07 
   4 -10   5    0.91    0.03 
  -5  -9   5    1.50    0.05 
  -4  -9   5    2.26    0.04 
  -3  -9   5    7.37    0.10 
  -2  -9   5    0.67    0.03 
  -1  -9   5   17.90    0.48 
   0  -9   5   58.38    1.54 
   1  -9   5    5.47    0.21 
   2  -9   5    4.95    0.08 
   3  -9   5    0.52    0.02 
   4  -9   5    4.48    0.07 
   5  -9   5    0.00    0.01 
  -5  -8   5    0.87    0.03 
  -4  -8   5    1.67    0.04 
  -3  -8   5    0.32    0.02 
  -2  -8   5   11.56    0.34 
  -1  -8   5    1.15    0.09 
   0  -8   5    1.65    0.12 
   1  -8   5   65.02    1.42 
   2  -8   5    4.79    0.18 
   3  -8   5   31.07    0.35 
   4  -8   5    7.66    0.11 
   5  -8   5    3.12    0.05 
  -5  -7   5    3.19    0.06 
  -4  -7   5    0.29    0.02 
  -3  -7   5    0.11    0.05 
  -2  -7   5    3.47    0.15 
  -1  -7   5    1.14    0.09 
   0  -7   5    5.33    0.16 
   1  -7   5   30.51    0.69 
   2  -7   5    1.43    0.08 
   3  -7   5    2.66    0.13 
   4  -7   5    0.61    0.02 
   5  -7   5    1.58    0.03 
  -6  -6   5    0.05    0.01 
  -5  -6   5    0.22    0.02 
  -4  -6   5    1.24    0.04 
  -3  -6   5    2.34    0.13 
  -2  -6   5   20.44    0.51 
  -1  -6   5    2.51    0.10 
   0  -6   5    0.06    0.03 
   1  -6   5    0.21    0.03 
   2  -6   5   24.57    0.57 
   3  -6   5    1.72    0.10 
   4  -6   5    0.02    0.01 
   5  -6   5    0.13    0.02 
  -6  -5   5    0.01    0.01 
  -5  -5   5   12.60    0.22 
  -4  -5   5    9.09    0.23 
  -3  -5   5   21.28    0.62 
  -2  -5   5    3.69    0.13 
  -1  -5   5    1.64    0.08 
   0  -5   5    0.24    0.03 
   1  -5   5    6.07    0.15 
   2  -5   5    2.19    0.09 
   3  -5   5   11.31    0.34 
   4  -5   5    8.27    0.11 
   5  -5   5    6.12    0.10 
   6  -5   5    0.26    0.06 
  -6  -4   5    0.02    0.01 
  -5  -4   5    4.48    0.10 
  -4  -4   5    4.15    0.21 
  -3  -4   5    0.18    0.05 
  -2  -4   5   72.74    1.35 
  -1  -4   5  219.65    3.96 
   0  -4   5  162.50    3.16 
   1  -4   5   72.67    1.33 
   2  -4   5    0.02    0.02 
   3  -4   5   19.34    0.54 
   4  -4   5    8.05    0.13 
   5  -4   5   -0.01    0.02 
   6  -4   5    4.08    0.16 
  -6  -3   5    2.38    0.08 
  -5  -3   5    0.18    0.02 
  -4  -3   5   19.41    0.93 
  -3  -3   5    3.51    0.20 
  -2  -3   5   83.40    1.65 
  -1  -3   5    5.34    0.32 
   0  -3   5   14.05    0.93 
   1  -3   5   41.94    0.99 
   2  -3   5    0.23    0.03 
   3  -3   5    3.05    0.26 
   4  -3   5   57.31    0.76 
   5  -3   5    0.10    0.02 
   6  -3   5    0.82    0.04 
  -6  -2   5    1.42    0.06 
  -5  -2   5    0.99    0.05 
  -4  -2   5   25.51    1.21 
  -3  -2   5    7.36    0.33 
  -2  -2   5  179.03    4.32 
  -1  -2   5    0.67    0.12 
   0  -2   5    7.80    0.62 
   1  -2   5    5.41    0.29 
   2  -2   5    0.02    0.05 
   3  -2   5    0.02    0.08 
   4  -2   5  136.65    2.23 
   5  -2   5    4.53    0.12 
   6  -2   5    8.76    0.24 
  -6  -1   5    0.55    0.04 
  -5  -1   5    0.27    0.03 
  -4  -1   5    0.34    0.10 
  -3  -1   5    0.32    0.05 
  -2  -1   5    3.04    0.13 
  -1  -1   5    0.35    0.12 
   0  -1   5    0.07    0.05 
   1  -1   5    8.10    0.38 
   2  -1   5    1.90    0.20 
   3  -1   5    6.73    0.35 
   4  -1   5    3.40    0.09 
   5  -1   5    0.16    0.04 
   6  -1   5    6.94    0.20 
  -6   0   5    0.15    0.03 
  -5   0   5    0.99    0.05 
  -4   0   5    6.75    0.42 
  -3   0   5    1.89    0.12 
  -2   0   5    3.21    0.19 
  -1   0   5   -0.01    0.08 
   0   0   5    0.65    0.21 
   1   0   5  162.07    5.24 
   2   0   5    2.34    0.19 
   3   0   5    5.99    0.34 
   4   0   5    4.91    0.23 
   5   0   5    4.81    0.18 
   6   0   5    2.81    0.14 
  -6   1   5   -0.01    0.02 
  -5   1   5    0.09    0.03 
  -4   1   5    8.39    0.33 
  -3   1   5    1.01    0.08 
  -2   1   5  508.97   21.04 
   0   1   5  133.30    4.24 
   1   1   5  127.94    3.92 
   2   1   5    0.65    0.11 
   3   1   5    0.14    0.09 
   4   1   5   -0.01    0.06 
   5   1   5    2.22    0.12 
  -6   2   5    5.66    0.15 
  -5   2   5    2.06    0.09 
  -4   2   5   11.61    0.45 
  -3   2   5   25.88    0.84 
  -2   2   5   21.23    0.95 
  -1   2   5  393.45   11.82 
   0   2   5   22.02    1.00 
   1   2   5    0.54    0.09 
   2   2   5   32.61    1.06 
   3   2   5    1.39    0.38 
   4   2   5    0.15    0.07 
   5   2   5    0.06    0.04 
  -6   3   5    0.51    0.04 
  -5   3   5    5.81    0.18 
  -4   3   5   17.79    0.64 
  -3   3   5    0.91    0.13 
  -2   3   5   27.35    1.21 
  -1   3   5   28.64    0.91 
   0   3   5   13.29    0.68 
   1   3   5   65.08    1.78 
   2   3   5    6.82    0.37 
   3   3   5    0.82    0.32 
   4   3   5   18.48    0.45 
   5   3   5    0.33    0.05 
  -6   4   5    0.13    0.03 
  -5   4   5    0.15    0.04 
  -4   4   5    0.68    0.13 
  -3   4   5    8.09    0.45 
  -2   4   5   75.09    3.36 
  -1   4   5    4.54    0.31 
   0   4   5    0.16    0.07 
   1   4   5    0.04    0.05 
   2   4   5    0.19    0.18 
   3   4   5    3.68    0.25 
   4   4   5    0.50    0.07 
   5   4   5   -0.01    0.03 
  -6   5   5    1.69    0.07 
  -5   5   5    4.37    0.26 
  -4   5   5   23.41    1.16 
  -3   5   5    0.65    0.12 
  -2   5   5    0.78    0.12 
  -1   5   5    4.86    0.34 
   0   5   5   19.26    0.97 
   1   5   5   38.68    1.36 
   2   5   5    1.03    0.34 
   3   5   5    0.90    0.13 
   4   5   5    2.17    0.16 
   5   5   5    0.03    0.08 
  -6   6   5    0.05    0.03 
  -5   6   5    1.03    0.11 
  -4   6   5    0.19    0.09 
  -3   6   5    0.17    0.08 
  -2   6   5    0.42    0.15 
  -1   6   5   34.17    1.63 
   0   6   5   20.40    1.07 
   1   6   5   70.94    3.38 
   2   6   5    0.40    0.23 
   3   6   5    0.00    0.06 
   4   6   5    2.10    0.11 
  -5   7   5    2.16    0.14 
  -3   7   5    0.10    0.07 
  -2   7   5    5.78    0.44 
  -1   7   5   15.87    0.90 
   1   7   5   44.06    2.35 
   2   7   5   19.41    1.36 
   3   7   5    0.01    0.08 
   4   7   5    0.65    0.06 
  -3   8   5    9.89    0.65 
  -2   8   5   11.84    0.74 
  -1   8   5    0.89    0.18 
   0   8   5    0.44    0.22 
   1   8   5    1.68    0.39 
   3   8   5    0.23    0.06 
   2   9   5    1.86    0.24 
   3   9   5    1.29    0.17 
   2  10   5   -0.07    0.07 
  -2 -13   6    3.41    0.09 
  -1 -13   6    0.60    0.02 
   0 -13   6    0.22    0.03 
  -3 -12   6    0.03    0.01 
  -2 -12   6    0.02    0.01 
  -1 -12   6    0.04    0.02 
   0 -12   6   17.36    0.30 
   1 -12   6    8.09    0.16 
   2 -12   6    3.22    0.07 
   3 -12   6   10.19    0.19 
  -3 -11   6    0.27    0.02 
  -2 -11   6    1.54    0.04 
  -1 -11   6    0.04    0.02 
   0 -11   6    7.45    0.11 
   1 -11   6   16.82    0.26 
   2 -11   6    8.80    0.15 
   3 -11   6    0.46    0.02 
   4 -11   6    1.61    0.04 
  -4 -10   6    0.71    0.02 
  -3 -10   6    1.22    0.03 
  -2 -10   6    0.03    0.01 
  -1 -10   6   32.87    0.41 
   0 -10   6   16.22    0.21 
   1 -10   6   11.09    0.16 
   2 -10   6   17.48    0.23 
   3 -10   6    7.07    0.11 
   4 -10   6    0.23    0.01 
  -5  -9   6    0.13    0.04 
  -4  -9   6    0.76    0.03 
  -3  -9   6    8.37    0.11 
  -2  -9   6   29.15    0.34 
  -1  -9   6   25.83    0.66 
   0  -9   6  255.64    6.36 
   1  -9   6   42.35    0.94 
   2  -9   6   19.63    0.25 
   3  -9   6   17.49    0.22 
   4  -9   6    1.28    0.03 
  -5  -8   6    0.40    0.02 
  -4  -8   6    0.47    0.02 
  -3  -8   6    0.00    0.01 
  -2  -8   6   19.48    0.52 
  -1  -8   6    6.03    0.21 
   0  -8   6    3.13    0.16 
   1  -8   6    4.17    0.15 
   2  -8   6    5.35    0.20 
   3  -8   6    9.73    0.12 
   4  -8   6    0.54    0.02 
   5  -8   6    1.22    0.03 
  -5  -7   6    0.34    0.02 
  -4  -7   6    0.02    0.01 
  -3  -7   6    7.02    0.12 
  -2  -7   6    3.30    0.15 
  -1  -7   6    6.85    0.22 
   0  -7   6   41.10    0.94 
   1  -7   6    3.49    0.13 
   2  -7   6    1.25    0.08 
   3  -7   6   17.85    0.20 
   4  -7   6    1.20    0.03 
   5  -7   6    2.32    0.04 
  -6  -6   6    0.40    0.04 
  -5  -6   6    0.67    0.03 
  -4  -6   6    0.03    0.02 
  -3  -6   6    8.86    0.34 
  -2  -6   6   23.29    0.59 
  -1  -6   6    0.11    0.03 
   0  -6   6   10.92    0.28 
   1  -6   6    7.15    0.20 
   2  -6   6    0.29    0.04 
   3  -6   6    7.83    0.26 
   4  -6   6    0.00    0.01 
   5  -6   6    0.08    0.02 
  -6  -5   6    1.70    0.05 
  -5  -5   6    0.59    0.03 
  -4  -5   6    1.31    0.05 
  -3  -5   6   35.68    1.12 
  -2  -5   6   10.56    0.29 
  -1  -5   6    4.74    0.14 
   0  -5   6   35.95    0.76 
   1  -5   6    3.12    0.11 
   2  -5   6    7.09    0.20 
   3  -5   6    4.81    0.18 
   4  -5   6    0.76    0.03 
   5  -5   6    0.04    0.01 
  -6  -4   6    0.09    0.02 
  -5  -4   6   38.20    0.64 
  -4  -4   6    2.55    0.23 
  -3  -4   6    3.72    0.25 
  -2  -4   6   12.35    0.34 
  -1  -4   6    0.53    0.04 
   0  -4   6   33.71    0.70 
   1  -4   6  151.23    2.88 
   2  -4   6    0.10    0.03 
   3  -4   6  118.01    3.59 
   4  -4   6    5.66    0.10 
   5  -4   6    7.12    0.13 
  -6  -3   6    0.13    0.02 
  -5  -3   6    8.10    0.16 
  -4  -3   6    1.40    0.17 
  -3  -3   6   56.32    2.39 
  -2  -3   6    0.15    0.04 
  -1  -3   6   12.84    0.31 
   0  -3   6   12.35    0.32 
   1  -3   6    5.21    0.14 
   2  -3   6   11.13    0.32 
   3  -3   6  230.60    9.87 
   4  -3   6    8.61    0.14 
   5  -3   6   22.86    0.46 
  -6  -2   6    4.00    0.11 
  -5  -2   6    1.00    0.05 
  -4  -2   6    0.03    0.07 
  -3  -2   6   11.91    0.40 
  -2  -2   6   11.36    0.35 
  -1  -2   6    4.33    0.18 
   0  -2   6  102.38    3.23 
   1  -2   6   21.11    0.54 
   2  -2   6    5.59    0.22 
   3  -2   6   21.81    1.11 
   4  -2   6    1.95    0.07 
   5  -2   6    0.74    0.04 
  -6  -1   6    1.79    0.07 
  -5  -1   6    7.42    0.16 
  -4  -1   6   14.28    0.75 
  -3  -1   6    2.27    0.14 
  -2  -1   6   57.93    1.77 
  -1  -1   6    7.10    0.35 
   0  -1   6    5.42    0.20 
   1  -1   6    3.16    0.14 
   2  -1   6    1.60    0.20 
   3  -1   6   95.32    4.29 
   4  -1   6    4.77    0.16 
   5  -1   6   -0.04    0.04 
  -6   0   6    0.84    0.04 
  -5   0   6   12.53    0.28 
  -4   0   6    1.44    0.12 
  -3   0   6   46.76    1.41 
  -2   0   6    0.08    0.05 
  -1   0   6   18.64    0.59 
   0   0   6    7.95    0.27 
   1   0   6   83.49    2.93 
   2   0   6    1.91    0.24 
   3   0   6    0.37    0.12 
   4   0   6    1.83    0.10 
   5   0   6    2.94    0.15 
  -6   1   6    0.96    0.05 
  -5   1   6   31.03    0.62 
  -4   1   6   39.71    1.30 
  -3   1   6    0.57    0.07 
  -2   1   6    5.05    0.21 
  -1   1   6   27.19    0.86 
   0   1   6   20.99    0.69 
   1   1   6    0.13    0.06 
   2   1   6    2.67    0.25 
   3   1   6   -0.03    0.08 
   4   1   6    0.68    0.09 
   5   1   6    0.12    0.05 
  -6   2   6    6.97    0.18 
  -5   2   6    0.18    0.03 
  -4   2   6    2.87    0.18 
  -3   2   6    7.66    0.44 
  -2   2   6  110.52    3.21 
  -1   2   6    1.26    0.10 
   0   2   6   12.54    0.65 
   1   2   6    7.77    0.38 
   2   2   6    0.77    0.15 
   3   2   6    7.66    0.80 
   4   2   6    9.66    0.30 
   5   2   6    0.43    0.05 
  -6   3   6    7.24    0.20 
  -5   3   6    2.69    0.11 
  -4   3   6    1.20    0.11 
  -3   3   6    6.77    0.40 
  -2   3   6   30.54    0.99 
  -1   3   6   31.58    1.04 
   0   3   6    1.10    0.17 
   1   3   6    0.56    0.12 
   2   3   6    2.61    0.25 
   3   3   6    0.03    0.07 
   4   3   6    2.41    0.14 
   5   3   6    0.49    0.04 
  -6   4   6    0.23    0.02 
  -5   4   6    3.16    0.15 
  -4   4   6   10.13    0.57 
  -3   4   6    1.47    0.18 
  -2   4   6    9.61    0.38 
  -1   4   6   14.57    0.77 
   0   4   6    2.61    0.28 
   1   4   6   36.09    1.32 
   2   4   6    8.23    0.79 
   3   4   6   17.75    0.55 
   4   4   6    6.99    0.22 
  -6   5   6    0.31    0.04 
  -5   5   6    3.35    0.15 
  -4   5   6    0.41    0.11 
  -3   5   6    0.92    0.15 
  -2   5   6    3.68    0.22 
  -1   5   6   20.37    1.04 
   0   5   6    0.95    0.18 
   1   5   6  175.47    5.54 
   2   5   6   19.78    1.37 
   3   5   6   11.31    0.39 
   4   5   6    0.06    0.04 
  -5   6   6    1.61    0.12 
  -4   6   6    0.29    0.15 
  -3   6   6   -0.01    0.05 
  -2   6   6    0.77    0.18 
  -1   6   6    0.57    0.16 
   0   6   6   98.43    4.47 
   1   6   6   39.08    2.10 
   2   6   6    2.57    0.50 
   3   6   6    0.11    0.07 
   4   6   6    0.87    0.07 
  -3   7   6    0.89    0.19 
  -2   7   6   21.96    1.18 
  -1   7   6   48.17    2.40 
   0   7   6   27.13    1.61 
   1   7   6   12.09    0.97 
   2   7   6    9.40    0.61 
   3   7   6    0.92    0.10 
  -2   8   6    0.33    0.12 
  -1   8   6    0.07    0.08 
   0   8   6    0.05    0.13 
   2   8   6    1.06    0.13 
   3   8   6    0.22    0.05 
   2   9   6    2.57    0.26 
  -1 -13   7    8.53    0.15 
   0 -13   7    0.47    0.02 
   1 -13   7    1.63    0.06 
  -3 -12   7    0.42    0.04 
  -2 -12   7    0.95    0.03 
  -1 -12   7    6.40    0.11 
   0 -12   7    0.51    0.02 
   1 -12   7    4.77    0.09 
   2 -12   7   10.18    0.18 
  -3 -11   7    0.13    0.01 
  -2 -11   7    0.60    0.02 
  -1 -11   7    0.48    0.02 
   0 -11   7    5.84    0.09 
   1 -11   7    8.38    0.13 
   2 -11   7    3.36    0.06 
   3 -11   7    0.13    0.01 
  -4 -10   7    0.59    0.02 
  -3 -10   7    6.54    0.09 
  -2 -10   7    1.81    0.04 
  -1 -10   7    1.06    0.03 
   0 -10   7    0.62    0.02 
   1 -10   7    1.71    0.04 
   2 -10   7    2.62    0.05 
   3 -10   7    0.02    0.01 
   4 -10   7    0.71    0.02 
  -4  -9   7    0.11    0.01 
  -3  -9   7    0.03    0.01 
  -2  -9   7    0.39    0.02 
  -1  -9   7   12.17    0.16 
   0  -9   7    0.54    0.02 
   1  -9   7    0.94    0.03 
   2  -9   7    0.03    0.01 
   3  -9   7    1.86    0.04 
   4  -9   7    1.45    0.03 
  -5  -8   7    0.81    0.03 
  -4  -8   7    0.06    0.01 
  -3  -8   7    0.66    0.02 
  -2  -8   7    6.54    0.08 
  -1  -8   7    9.76    0.34 
   0  -8   7   90.15    1.95 
   1  -8   7    5.50    0.18 
   2  -8   7   17.00    0.19 
   3  -8   7    2.68    0.05 
   4  -8   7    2.47    0.04 
  -5  -7   7    0.25    0.02 
  -4  -7   7    0.42    0.02 
  -3  -7   7    4.28    0.07 
  -2  -7   7    2.85    0.16 
  -1  -7   7   15.80    0.49 
   0  -7   7   61.67    1.36 
   1  -7   7   14.00    0.36 
   2  -7   7    8.86    0.29 
   3  -7   7    0.50    0.02 
   4  -7   7    6.27    0.09 
   5  -7   7    1.90    0.05 
  -5  -6   7    0.61    0.03 
  -4  -6   7    1.22    0.04 
  -3  -6   7   12.60    0.45 
  -2  -6   7   19.47    0.57 
  -1  -6   7    3.40    0.12 
   0  -6   7    2.08    0.11 
   1  -6   7    6.25    0.21 
   2  -6   7   33.44    0.76 
   3  -6   7    4.81    0.06 
   4  -6   7    1.49    0.04 
   5  -6   7    0.02    0.01 
  -6  -5   7    2.61    0.08 
  -5  -5   7    6.69    0.12 
  -4  -5   7    4.07    0.08 
  -3  -5   7    6.14    0.34 
  -2  -5   7   13.86    0.41 
  -1  -5   7   10.50    0.27 
   0  -5   7   22.12    0.52 
   1  -5   7   18.11    0.49 
   2  -5   7    0.50    0.05 
   3  -5   7    8.60    0.12 
   4  -5   7    0.47    0.02 
   5  -5   7    3.23    0.08 
  -6  -4   7    0.14    0.02 
  -5  -4   7    1.28    0.05 
  -4  -4   7    0.24    0.02 
  -3  -4   7    1.18    0.15 
  -2  -4   7   23.36    0.58 
  -1  -4   7   16.06    0.37 
   0  -4   7   10.87    0.27 
   1  -4   7    0.02    0.02 
   2  -4   7   11.59    0.35 
   3  -4   7   56.85    2.59 
   4  -4   7    6.23    0.11 
   5  -4   7    0.06    0.02 
  -6  -3   7    0.02    0.02 
  -5  -3   7   15.55    0.32 
  -4  -3   7    0.59    0.04 
  -3  -3   7    1.11    0.14 
  -2  -3   7   10.44    0.33 
  -1  -3   7    0.01    0.02 
   0  -3   7   26.67    0.73 
   1  -3   7   51.11    1.18 
   2  -3   7   23.02    0.78 
   3  -3   7   10.59    0.62 
   4  -3   7    1.27    0.04 
   5  -3   7    0.52    0.03 
  -6  -2   7    2.18    0.07 
  -5  -2   7   10.47    0.21 
  -4  -2   7    4.17    0.29 
  -3  -2   7   32.51    1.04 
  -2  -2   7    4.14    0.16 
  -1  -2   7    7.25    0.23 
   0  -2   7    0.30    0.05 
   1  -2   7   11.14    0.37 
   2  -2   7   32.74    1.59 
   3  -2   7  187.18    7.99 
   4  -2   7    2.11    0.09 
   5  -2   7    9.07    0.22 
  -6  -1   7    1.09    0.05 
  -5  -1   7    0.37    0.03 
  -4  -1   7    0.44    0.10 
  -3  -1   7    0.29    0.08 
  -2  -1   7    0.04    0.03 
  -1  -1   7   12.65    0.58 
   0  -1   7    4.98    0.21 
   1  -1   7   52.44    1.48 
   2  -1   7    3.54    0.31 
   3  -1   7    0.17    0.13 
   4  -1   7   17.77    0.45 
   5  -1   7    2.58    0.08 
  -6   0   7    0.10    0.02 
  -5   0   7    2.18    0.08 
  -4   0   7    1.30    0.12 
  -3   0   7    2.38    0.15 
  -2   0   7    1.99    0.18 
  -1   0   7    0.22    0.05 
   0   0   7   46.71    1.52 
   1   0   7    1.09    0.16 
   2   0   7   20.19    1.09 
   3   0   7    0.25    0.05 
   4   0   7    0.04    0.04 
   5   0   7    4.11    0.15 
  -6   1   7    2.74    0.09 
  -5   1   7    4.38    0.12 
  -4   1   7    8.10    0.24 
  -3   1   7    6.35    0.38 
  -2   1   7    4.47    0.21 
  -1   1   7    4.05    0.19 
   0   1   7   34.28    1.15 
   1   1   7   18.14    0.98 
   2   1   7    8.47    0.57 
   3   1   7    1.63    0.10 
   4   1   7    3.80    0.15 
   5   1   7    0.06    0.03 
  -6   2   7    0.10    0.02 
  -5   2   7    0.34    0.04 
  -4   2   7    0.01    0.04 
  -3   2   7   25.44    1.19 
  -2   2   7  102.47    3.16 
  -1   2   7   24.25    0.82 
   0   2   7   19.40    1.00 
   1   2   7    4.60    0.29 
   2   2   7    0.76    0.15 
   3   2   7    0.20    0.05 
   4   2   7    2.91    0.17 
   5   2   7    0.00    0.03 
  -6   3   7    0.18    0.03 
  -5   3   7   22.58    0.73 
  -4   3   7    0.27    0.06 
  -3   3   7    2.83    0.20 
  -2   3   7   68.54    2.15 
  -1   3   7   15.00    0.55 
   0   3   7  123.60    3.85 
   1   3   7    3.36    0.29 
   2   3   7    0.14    0.10 
   3   3   7   13.73    0.40 
   4   3   7    0.66    0.07 
  -6   4   7   -0.01    0.03 
  -5   4   7    0.74    0.06 
  -4   4   7    1.08    0.09 
  -3   4   7   15.82    0.59 
  -2   4   7    3.42    0.21 
  -1   4   7   25.22    1.24 
   0   4   7   25.15    0.95 
   1   4   7   10.58    0.86 
   2   4   7    1.03    0.11 
   3   4   7    1.79    0.15 
   4   4   7    3.72    0.14 
  -5   5   7    3.93    0.22 
  -4   5   7    1.40    0.22 
  -3   5   7    0.00    0.05 
  -2   5   7    9.08    0.57 
  -1   5   7    7.20    0.51 
   0   5   7   73.48    2.41 
   1   5   7    0.99    0.17 
   2   5   7    5.25    0.34 
   3   5   7    1.23    0.10 
   4   5   7    0.04    0.03 
  -5   6   7    0.06    0.03 
  -3   6   7   -0.04    0.05 
  -2   6   7   11.27    0.70 
  -1   6   7    6.67    0.48 
   0   6   7    0.58    0.13 
   1   6   7    4.92    0.28 
   2   6   7    4.68    0.37 
   3   6   7    8.05    0.26 
  -5   7   7    0.06    0.03 
  -4   7   7    2.24    0.19 
  -2   7   7    0.13    0.10 
  -1   7   7    8.08    0.57 
   0   7   7    0.10    0.08 
   2   7   7    5.47    0.30 
   3   7   7    0.15    0.05 
  -4   8   7    0.48    0.08 
   2   8   7    0.64    0.08 
  -1 -13   8    0.53    0.03 
   0 -13   8    0.07    0.01 
  -2 -12   8    0.37    0.02 
  -1 -12   8   11.97    0.17 
   0 -12   8    0.18    0.01 
   1 -12   8    1.96    0.04 
   2 -12   8   17.10    0.25 
  -3 -11   8    0.28    0.01 
  -2 -11   8    0.10    0.01 
  -1 -11   8    1.20    0.03 
   0 -11   8    1.74    0.04 
   1 -11   8   12.98    0.19 
   2 -11   8    6.39    0.10 
   3 -11   8   26.24    0.36 
  -4 -10   8    0.11    0.01 
  -3 -10   8    5.25    0.07 
  -2 -10   8    0.56    0.02 
  -1 -10   8    0.37    0.02 
   0 -10   8    7.63    0.11 
   1 -10   8    6.96    0.10 
   2 -10   8   28.32    0.36 
   3 -10   8    3.77    0.06 
  -4  -9   8    0.08    0.01 
  -3  -9   8    0.99    0.03 
  -2  -9   8    0.12    0.01 
  -1  -9   8   68.73    0.75 
   0  -9   8    6.43    0.09 
   1  -9   8   14.65    0.17 
   2  -9   8   12.23    0.15 
   3  -9   8    0.02    0.01 
   4  -9   8    0.04    0.01 
  -5  -8   8    0.98    0.04 
  -4  -8   8    5.04    0.09 
  -3  -8   8    4.24    0.06 
  -2  -8   8    1.75    0.04 
  -1  -8   8   30.49    0.33 
   0  -8   8   11.72    0.32 
   1  -8   8    0.16    0.02 
   2  -8   8    1.48    0.03 
   3  -8   8    0.33    0.02 
   4  -8   8    1.21    0.03 
  -5  -7   8    0.00    0.01 
  -4  -7   8    0.66    0.03 
  -3  -7   8   22.22    0.31 
  -2  -7   8    0.98    0.09 
  -1  -7   8   15.24    0.46 
   0  -7   8   26.81    0.64 
   1  -7   8    0.52    0.06 
   2  -7   8   17.68    0.19 
   3  -7   8    0.55    0.02 
   4  -7   8    0.44    0.02 
  -5  -6   8    0.27    0.02 
  -4  -6   8    1.55    0.04 
  -3  -6   8    5.92    0.09 
  -2  -6   8    3.73    0.17 
  -1  -6   8   26.80    0.62 
   0  -6   8    3.88    0.14 
   1  -6   8    1.18    0.09 
   2  -6   8    8.69    0.13 
   3  -6   8   22.33    0.26 
   4  -6   8    3.02    0.05 
   5  -6   8    2.46    0.14 
  -5  -5   8    0.00    0.02 
  -4  -5   8    3.13    0.07 
  -3  -5   8    6.46    0.37 
  -2  -5   8    0.77    0.07 
  -1  -5   8    0.05    0.03 
   0  -5   8    0.00    0.03 
   1  -5   8    0.02    0.03 
   2  -5   8   43.63    1.15 
   3  -5   8    4.21    0.07 
   4  -5   8    0.05    0.02 
   5  -5   8    3.93    0.14 
  -6  -4   8    6.69    0.18 
  -5  -4   8    0.68    0.04 
  -4  -4   8    0.41    0.03 
  -3  -4   8    5.63    0.33 
  -2  -4   8    2.86    0.14 
  -1  -4   8    5.46    0.20 
   0  -4   8   45.44    1.37 
   1  -4   8    4.27    0.17 
   2  -4   8   40.72    1.31 
   3  -4   8    6.25    0.11 
   4  -4   8    1.44    0.05 
   5  -4   8    0.63    0.03 
  -6  -3   8    3.12    0.09 
  -5  -3   8    3.75    0.10 
  -4  -3   8    0.22    0.03 
  -3  -3   8    0.04    0.04 
  -2  -3   8   17.69    0.59 
  -1  -3   8    9.56    0.33 
   0  -3   8    5.10    0.26 
   1  -3   8    1.79    0.13 
   2  -3   8  103.09    3.25 
   3  -3   8   12.63    0.20 
   4  -3   8    0.06    0.02 
   5  -3   8    0.07    0.02 
  -6  -2   8    0.16    0.02 
  -5  -2   8    2.96    0.09 
  -4  -2   8    4.66    0.12 
  -3  -2   8    6.33    0.26 
  -2  -2   8   11.24    0.40 
  -1  -2   8    0.53    0.09 
   0  -2   8  147.22    4.49 
   1  -2   8    1.81    0.13 
   2  -2   8    2.77    0.32 
   3  -2   8   14.37    0.25 
   4  -2   8    0.50    0.04 
   5  -2   8    4.13    0.11 
  -6  -1   8    1.24    0.05 
  -5  -1   8   13.22    0.31 
  -4  -1   8   14.73    0.29 
  -3  -1   8  117.53    3.71 
  -2  -1   8   11.33    0.57 
  -1  -1   8   25.20    1.12 
   0  -1   8   11.90    0.44 
   1  -1   8    5.31    0.40 
   2  -1   8   45.20    2.19 
   3  -1   8   45.01    0.93 
   4  -1   8    0.02    0.03 
   5  -1   8    9.73    0.27 
  -6   0   8    1.13    0.05 
  -5   0   8    8.33    0.21 
  -4   0   8   20.48    0.42 
  -3   0   8    0.64    0.12 
  -2   0   8   23.57    1.02 
  -1   0   8    4.84    0.22 
   0   0   8    1.34    0.12 
   1   0   8    0.50    0.15 
   2   0   8   -0.01    0.10 
   3   0   8    0.36    0.05 
   4   0   8    0.45    0.06 
   5   0   8    0.01    0.03 
  -6   1   8    6.75    0.19 
  -5   1   8    3.24    0.10 
  -4   1   8    1.91    0.09 
  -3   1   8   12.63    0.67 
  -2   1   8   15.50    0.56 
  -1   1   8    7.80    0.32 
   0   1   8    0.75    0.17 
   1   1   8   -0.05    0.10 
   2   1   8    0.25    0.13 
   3   1   8    7.58    0.25 
   4   1   8    1.62    0.08 
  -6   2   8    0.60    0.04 
  -5   2   8    0.13    0.03 
  -4   2   8    5.95    0.17 
  -3   2   8    5.30    0.36 
  -2   2   8    0.86    0.11 
  -1   2   8    2.92    0.19 
   0   2   8   13.59    0.74 
   1   2   8    2.52    0.32 
   2   2   8    8.44    0.24 
   3   2   8    0.06    0.05 
   4   2   8    2.26    0.13 
  -5   3   8    1.19    0.06 
  -4   3   8    0.05    0.04 
  -3   3   8    3.05    0.21 
  -2   3   8   32.41    1.10 
  -1   3   8    8.08    0.54 
   0   3   8   40.08    1.96 
   1   3   8    7.95    0.57 
   2   3   8    5.70    0.21 
   3   3   8    7.58    0.24 
   4   3   8    0.41    0.06 
  -5   4   8    4.27    0.14 
  -4   4   8    1.19    0.09 
  -3   4   8   11.21    0.45 
  -2   4   8   51.29    1.64 
  -1   4   8   23.08    1.20 
   0   4   8   11.39    0.70 
   1   4   8    6.17    0.25 
   2   4   8   21.59    0.68 
   3   4   8   15.58    0.50 
   4   4   8    9.12    0.33 
  -5   5   8    0.16    0.03 
  -4   5   8    0.06    0.07 
  -3   5   8    1.62    0.11 
  -2   5   8    1.07    0.21 
  -1   5   8    2.34    0.31 
   0   5   8   70.12    2.38 
   1   5   8    0.54    0.10 
   2   5   8    5.07    0.21 
   3   5   8    2.04    0.11 
  -5   6   8    0.18    0.03 
  -4   6   8    2.13    0.18 
  -2   6   8    0.03    0.09 
  -1   6   8    2.68    0.26 
   0   6   8    0.17    0.07 
   1   6   8    4.25    0.27 
   2   6   8    0.29    0.09 
   3   6   8    2.45    0.12 
  -4   7   8    1.24    0.08 
  -3   7   8    0.17    0.07 
   2   7   8    1.81    0.12 
  -3   8   8    0.39    0.08 
  -1   8   8    2.83    0.25 
   0   8   8    8.31    0.49 
   1   8   8    1.95    0.21 
  -2 -12   9    9.87    0.16 
  -1 -12   9    0.10    0.01 
   0 -12   9    0.03    0.01 
   1 -12   9    6.40    0.10 
  -3 -11   9    1.38    0.03 
  -2 -11   9    0.73    0.02 
  -1 -11   9    9.87    0.14 
   0 -11   9    1.04    0.03 
   1 -11   9    0.89    0.03 
   2 -11   9    2.28    0.04 
  -3 -10   9    1.26    0.03 
  -2 -10   9    0.61    0.02 
  -1 -10   9    0.24    0.02 
   0 -10   9    3.17    0.06 
   1 -10   9    0.25    0.02 
   2 -10   9    0.83    0.02 
   3 -10   9    0.01    0.01 
  -4  -9   9    2.22    0.05 
  -3  -9   9    3.08    0.05 
  -2  -9   9    4.12    0.06 
  -1  -9   9    0.93    0.03 
   0  -9   9    4.94    0.07 
   1  -9   9    0.70    0.02 
   2  -9   9    0.19    0.02 
   3  -9   9    0.64    0.02 
  -4  -8   9    0.80    0.03 
  -3  -8   9   17.54    0.24 
  -2  -8   9    1.74    0.03 
  -1  -8   9   47.58    0.52 
   0  -8   9    3.62    0.05 
   1  -8   9    6.25    0.08 
   2  -8   9   13.91    0.16 
   3  -8   9    3.00    0.05 
   4  -8   9    1.19    0.03 
  -5  -7   9    0.17    0.02 
  -4  -7   9    2.97    0.06 
  -3  -7   9    0.04    0.01 
  -2  -7   9    1.10    0.03 
  -1  -7   9   14.01    0.15 
   0  -7   9   22.93    0.26 
   1  -7   9    0.02    0.01 
   2  -7   9    0.22    0.01 
   3  -7   9    2.81    0.05 
   4  -7   9    4.76    0.09 
  -5  -6   9    0.49    0.02 
  -4  -6   9    0.26    0.02 
  -3  -6   9    0.94    0.03 
  -2  -6   9    5.79    0.10 
  -1  -6   9    0.24    0.05 
   0  -6   9    8.51    0.27 
   1  -6   9    8.21    0.21 
   2  -6   9   31.01    0.37 
   3  -6   9   13.57    0.18 
   4  -6   9    3.91    0.08 
  -5  -5   9    0.22    0.02 
  -4  -5   9    0.42    0.02 
  -3  -5   9    5.91    0.10 
  -2  -5   9    1.45    0.11 
  -1  -5   9    6.91    0.26 
   0  -5   9    0.37    0.06 
   1  -5   9    3.37    0.18 
   2  -5   9   84.66    0.98 
   3  -5   9    0.53    0.03 
   4  -5   9    1.54    0.04 
  -5  -4   9    3.58    0.10 
  -4  -4   9   -0.02    0.02 
  -3  -4   9    0.43    0.03 
  -2  -4   9    0.23    0.06 
  -1  -4   9    7.84    0.30 
   0  -4   9    0.48    0.09 
   1  -4   9    6.49    0.28 
   2  -4   9    8.95    0.12 
   3  -4   9    7.55    0.13 
   4  -4   9    0.35    0.02 
  -5  -3   9    0.03    0.02 
  -4  -3   9    1.22    0.05 
  -3  -3   9    0.57    0.06 
  -2  -3   9    6.03    0.25 
  -1  -3   9   12.99    0.62 
   0  -3   9   38.02    1.66 
   1  -3   9    0.51    0.07 
   2  -3   9    1.44    0.05 
   3  -3   9    6.71    0.12 
   4  -3   9    0.34    0.03 
  -6  -2   9    3.10    0.11 
  -5  -2   9    1.42    0.06 
  -4  -2   9   12.99    0.28 
  -3  -2   9    0.06    0.07 
  -2  -2   9    0.04    0.06 
  -1  -2   9    0.03    0.06 
   0  -2   9    9.36    0.38 
   1  -2   9   -0.02    0.04 
   2  -2   9   67.49    1.06 
   3  -2   9    0.95    0.05 
   4  -2   9    4.40    0.12 
  -6  -1   9    2.74    0.10 
  -5  -1   9    3.34    0.11 
  -4  -1   9    0.78    0.05 
  -3  -1   9    3.68    0.26 
  -2  -1   9   14.53    0.74 
  -1  -1   9    3.44    0.24 
   0  -1   9    4.40    0.22 
   1  -1   9    0.04    0.10 
   2  -1   9   11.50    0.28 
   3  -1   9   36.26    0.75 
   4  -1   9    1.83    0.08 
  -6   0   9    0.76    0.04 
  -5   0   9    1.15    0.05 
  -4   0   9    0.15    0.03 
  -3   0   9    1.42    0.07 
  -2   0   9    6.44    0.39 
  -1   0   9    4.63    0.23 
   0   0   9    1.20    0.11 
   1   0   9    7.71    0.54 
   2   0   9   16.46    0.38 
   3   0   9    3.03    0.13 
   4   0   9    1.65    0.09 
  -5   1   9    3.30    0.12 
  -4   1   9    1.36    0.07 
  -3   1   9    4.26    0.15 
  -2   1   9    3.86    0.29 
  -1   1   9   20.76    0.75 
   0   1   9    1.35    0.24 
   1   1   9    0.81    0.20 
   2   1   9    0.20    0.05 
   3   1   9    3.82    0.14 
   4   1   9    0.05    0.02 
  -5   2   9    0.92    0.05 
  -4   2   9    0.94    0.07 
  -3   2   9   14.77    0.43 
  -2   2   9   15.14    0.58 
  -1   2   9    2.02    0.16 
   0   2   9    0.28    0.14 
   1   2   9    1.07    0.08 
   2   2   9    6.60    0.21 
   3   2   9    2.68    0.14 
   4   2   9    0.12    0.04 
  -5   3   9    0.15    0.03 
  -4   3   9    1.35    0.08 
  -3   3   9   20.19    0.57 
  -2   3   9    1.20    0.09 
  -1   3   9   26.20    0.90 
   0   3   9   16.10    0.50 
   1   3   9    0.80    0.08 
   2   3   9    4.20    0.18 
   3   3   9    3.84    0.14 
  -5   4   9    0.14    0.02 
  -4   4   9    0.95    0.09 
  -3   4   9    0.49    0.06 
  -2   4   9   13.49    0.52 
  -1   4   9   37.33    1.23 
   0   4   9    0.09    0.05 
   1   4   9   -0.03    0.04 
   2   4   9    0.26    0.05 
   3   4   9    7.06    0.25 
  -5   5   9    2.00    0.13 
  -4   5   9    0.11    0.05 
  -3   5   9   14.27    0.52 
  -2   5   9   14.57    0.46 
  -1   5   9    1.91    0.13 
   0   5   9    4.51    0.26 
   1   5   9    4.16    0.20 
   2   5   9    4.23    0.16 
   3   5   9    0.01    0.04 
  -4   6   9   -0.02    0.03 
  -3   6   9    0.40    0.07 
  -2   6   9    3.93    0.28 
  -1   6   9    0.00    0.06 
   0   6   9    0.67    0.08 
   1   6   9    0.40    0.07 
   2   6   9    2.51    0.14 
  -3   7   9    1.58    0.15 
  -2   7   9    0.29    0.08 
  -1   7   9    3.97    0.28 
   0   7   9    1.55    0.15 
   1   7   9    0.34    0.08 
  -2   8   9    6.37    0.27 
  -1   8   9    6.73    0.28 
   0   8   9    4.88    0.34 
  -1 -12  10    3.71    0.06 
   0 -12  10    0.01    0.01 
  -2 -11  10    0.39    0.01 
  -1 -11  10    0.14    0.01 
   0 -11  10    0.84    0.02 
   1 -11  10    0.01    0.01 
   2 -11  10   11.83    0.18 
  -3 -10  10    0.03    0.01 
  -2 -10  10   -0.02    0.01 
  -1 -10  10    0.23    0.02 
   0 -10  10    1.69    0.04 
   1 -10  10    1.09    0.03 
   2 -10  10    0.30    0.01 
  -4  -9  10    4.33    0.11 
  -3  -9  10    0.89    0.03 
  -2  -9  10    0.00    0.01 
  -1  -9  10    2.54    0.05 
   0  -9  10    0.01    0.01 
   1  -9  10    0.55    0.02 
   2  -9  10    0.06    0.01 
   3  -9  10    0.03    0.01 
  -4  -8  10    0.44    0.02 
  -3  -8  10    1.14    0.03 
  -2  -8  10   15.21    0.20 
  -1  -8  10    5.62    0.08 
   0  -8  10    0.01    0.01 
   1  -8  10    0.04    0.01 
   2  -8  10    3.85    0.06 
   3  -8  10    0.26    0.02 
  -4  -7  10   10.84    0.19 
  -3  -7  10    0.45    0.02 
  -2  -7  10    3.56    0.06 
  -1  -7  10   46.53    0.54 
   0  -7  10    0.00    0.01 
   1  -7  10   38.36    0.43 
   2  -7  10    0.06    0.01 
   3  -7  10    0.71    0.03 
  -5  -6  10    0.02    0.01 
  -4  -6  10    0.35    0.02 
  -3  -6  10    0.11    0.02 
  -2  -6  10    9.87    0.15 
  -1  -6  10    0.81    0.03 
   0  -6  10    6.56    0.10 
   1  -6  10   14.88    0.19 
   2  -6  10   20.64    0.26 
   3  -6  10    0.81    0.03 
   4  -6  10    5.69    0.15 
  -5  -5  10    0.02    0.01 
  -4  -5  10    0.00    0.01 
  -3  -5  10    0.10    0.02 
  -2  -5  10    5.81    0.10 
  -1  -5  10    0.69    0.04 
   0  -5  10    0.37    0.03 
   1  -5  10    3.58    0.07 
   2  -5  10    4.05    0.07 
   3  -5  10    0.01    0.01 
   4  -5  10    0.17    0.02 
  -5  -4  10    0.05    0.01 
  -4  -4  10   -0.01    0.02 
  -3  -4  10    1.32    0.05 
  -2  -4  10   11.07    0.21 
  -1  -4  10    0.27    0.08 
   0  -4  10   22.99    1.06 
   1  -4  10   19.06    0.27 
   2  -4  10   17.93    0.26 
   3  -4  10    0.09    0.02 
   4  -4  10    1.96    0.06 
  -5  -3  10    0.00    0.02 
  -4  -3  10    0.24    0.03 
  -3  -3  10   15.11    0.29 
  -2  -3  10    7.34    0.24 
  -1  -3  10   52.41    2.34 
   0  -3  10   15.08    0.72 
   1  -3  10   39.50    0.56 
   2  -3  10    0.49    0.03 
   3  -3  10    0.12    0.02 
   4  -3  10    0.26    0.03 
  -5  -2  10   -0.02    0.02 
  -4  -2  10    1.96    0.08 
  -3  -2  10    0.57    0.04 
  -2  -2  10   16.71    0.62 
  -1  -2  10   78.14    3.67 
   0  -2  10   34.80    1.22 
   1  -2  10   10.29    0.19 
   2  -2  10   36.50    0.63 
   3  -2  10    0.41    0.04 
   4  -2  10    3.45    0.09 
  -5  -1  10    0.06    0.02 
  -4  -1  10   12.97    0.36 
  -3  -1  10    7.21    0.20 
  -2  -1  10    7.71    0.22 
  -1  -1  10    2.80    0.24 
   0  -1  10    4.71    0.24 
   1  -1  10    2.02    0.08 
   2  -1  10   62.67    1.40 
   3  -1  10    4.07    0.13 
   4  -1  10   13.26    0.33 
  -5   0  10    0.23    0.03 
  -4   0  10    0.21    0.03 
  -3   0  10   13.59    0.30 
  -2   0  10   18.42    0.40 
  -1   0  10    4.42    0.23 
   0   0  10    3.61    0.14 
   1   0  10    0.09    0.04 
   2   0  10    1.64    0.08 
   3   0  10    5.79    0.19 
  -5   1  10    0.01    0.02 
  -4   1  10    1.80    0.08 
  -3   1  10    0.49    0.05 
  -2   1  10    5.65    0.16 
  -1   1  10   13.48    0.29 
   0   1  10    8.04    0.22 
   1   1  10    3.12    0.14 
   2   1  10   18.85    0.46 
   3   1  10    0.87    0.06 
  -5   2  10    1.84    0.07 
  -4   2  10    0.12    0.03 
  -3   2  10    0.50    0.06 
  -2   2  10    3.21    0.11 
  -1   2  10    6.04    0.18 
   0   2  10    8.21    0.22 
   1   2  10    3.03    0.12 
   2   2  10    1.17    0.08 
   3   2  10    0.50    0.05 
  -5   3  10    0.39    0.04 
  -4   3  10    0.02    0.03 
  -3   3  10    6.10    0.22 
  -2   3  10    0.91    0.09 
  -1   3  10   26.90    0.65 
   0   3  10    3.66    0.16 
   1   3  10   -0.01    0.04 
   2   3  10    0.06    0.04 
   3   3  10    0.03    0.03 
  -4   4  10    2.13    0.09 
  -3   4  10   35.55    0.93 
  -2   4  10    4.67    0.18 
  -1   4  10    4.67    0.19 
   0   4  10    8.41    0.27 
   1   4  10    0.00    0.04 
   2   4  10    1.04    0.08 
  -4   5  10    0.08    0.02 
  -3   5  10    0.36    0.05 
  -2   5  10    8.79    0.34 
  -1   5  10    0.23    0.07 
   0   5  10    2.71    0.16 
   1   5  10    3.38    0.13 
   2   5  10    0.37    0.07 
  -3   6  10    1.82    0.09 
  -2   6  10    0.16    0.04 
  -1   6  10    0.39    0.05 
   0   6  10    0.30    0.05 
   1   6  10    0.06    0.03 
  -2   7  10    0.35    0.04 
  -1   7  10    0.00    0.03 
   0   7  10    1.20    0.09 
  -1 -11  11    0.01    0.01 
   0 -11  11    0.13    0.01 
   1 -11  11    6.36    0.11 
  -2 -10  11    2.18    0.04 
  -1 -10  11    0.19    0.01 
   0 -10  11    0.22    0.01 
   1 -10  11    0.02    0.01 
   2 -10  11    1.69    0.04 
  -3  -9  11   -0.02    0.01 
  -2  -9  11    0.01    0.01 
  -1  -9  11    0.27    0.02 
   0  -9  11    0.28    0.02 
   1  -9  11    6.26    0.08 
   2  -9  11    1.12    0.03 
  -4  -8  11    1.27    0.05 
  -3  -8  11    0.53    0.02 
  -2  -8  11   10.04    0.15 
  -1  -8  11    7.97    0.11 
   0  -8  11    6.59    0.09 
   1  -8  11   16.70    0.22 
   2  -8  11    0.67    0.02 
   3  -8  11    0.16    0.01 
  -4  -7  11    0.01    0.01 
  -3  -7  11    0.76    0.03 
  -2  -7  11    0.79    0.03 
  -1  -7  11   25.16    0.34 
   0  -7  11    2.61    0.05 
   1  -7  11   14.92    0.19 
   2  -7  11    4.21    0.08 
   3  -7  11    4.64    0.08 
  -4  -6  11    0.45    0.02 
  -3  -6  11    1.20    0.04 
  -2  -6  11    0.09    0.02 
  -1  -6  11   34.28    0.50 
   0  -6  11    0.55    0.03 
   1  -6  11   12.04    0.17 
   2  -6  11    2.57    0.05 
   3  -6  11    0.10    0.01 
  -5  -5  11    0.35    0.05 
  -4  -5  11    0.56    0.03 
  -3  -5  11    3.35    0.08 
  -2  -5  11    4.15    0.09 
  -1  -5  11    1.46    0.05 
   0  -5  11    0.34    0.02 
   1  -5  11   41.70    0.56 
   2  -5  11    3.14    0.06 
   3  -5  11    0.06    0.01 
  -5  -4  11    0.01    0.01 
  -4  -4  11    2.84    0.10 
  -3  -4  11    0.16    0.02 
  -2  -4  11    0.88    0.04 
  -1  -4  11    6.02    0.14 
   0  -4  11    0.00    0.02 
   1  -4  11    0.05    0.02 
   2  -4  11    2.36    0.06 
   3  -4  11    0.03    0.02 
  -5  -3  11    0.48    0.03 
  -4  -3  11    0.00    0.02 
  -3  -3  11    0.49    0.04 
  -2  -3  11    1.15    0.07 
  -1  -3  11    2.48    0.10 
   0  -3  11    0.51    0.04 
   1  -3  11    8.73    0.17 
   2  -3  11    0.66    0.04 
   3  -3  11    1.80    0.07 
  -5  -2  11    0.39    0.03 
  -4  -2  11    0.27    0.03 
  -3  -2  11    0.02    0.02 
  -2  -2  11    0.02    0.03 
  -1  -2  11    1.27    0.06 
   0  -2  11   17.00    0.31 
   1  -2  11   15.01    0.28 
   2  -2  11    1.70    0.08 
   3  -2  11    0.01    0.02 
  -5  -1  11    0.72    0.04 
  -4  -1  11    2.02    0.08 
  -3  -1  11    3.01    0.11 
  -2  -1  11   11.16    0.26 
  -1  -1  11    8.53    0.20 
   0  -1  11    0.60    0.05 
   1  -1  11    0.04    0.03 
   2  -1  11   16.73    0.46 
   3  -1  11    5.13    0.19 
  -5   0  11    0.01    0.02 
  -4   0  11    2.47    0.10 
  -3   0  11    0.52    0.05 
  -2   0  11    1.64    0.08 
  -1   0  11    3.57    0.11 
   0   0  11    0.88    0.06 
   1   0  11   25.57    0.54 
   2   0  11    4.70    0.16 
   3   0  11    0.60    0.04 
  -5   1  11    0.25    0.06 
  -4   1  11    0.38    0.04 
  -3   1  11    2.88    0.12 
  -2   1  11    7.69    0.18 
  -1   1  11   12.47    0.28 
   0   1  11    0.76    0.06 
   1   1  11    7.42    0.24 
   2   1  11    0.33    0.05 
   3   1  11    0.11    0.03 
  -4   2  11    4.36    0.15 
  -3   2  11    1.74    0.09 
  -2   2  11    4.22    0.13 
  -1   2  11    8.17    0.21 
   0   2  11    4.07    0.15 
   1   2  11    5.31    0.17 
   2   2  11    0.74    0.06 
  -4   3  11    3.29    0.10 
  -3   3  11    1.12    0.06 
  -2   3  11    0.24    0.05 
  -1   3  11    3.51    0.14 
   0   3  11    0.05    0.04 
   1   3  11    0.05    0.04 
   2   3  11    2.28    0.12 
  -4   4  11    0.47    0.05 
  -3   4  11    3.89    0.11 
  -2   4  11    0.09    0.04 
  -1   4  11    0.96    0.07 
   0   4  11    0.65    0.05 
   1   4  11    0.38    0.05 
  -3   5  11    3.49    0.11 
  -2   5  11    0.02    0.03 
  -1   5  11    3.50    0.13 
   0   5  11    0.17    0.05 
   1   5  11    0.84    0.07 
  -2   6  11    0.92    0.05 
  -1   6  11    8.90    0.32 
  -1 -10  12    0.16    0.01 
   0 -10  12    1.08    0.02 
  -2  -9  12    0.21    0.01 
  -1  -9  12    0.13    0.01 
   0  -9  12    0.47    0.02 
   1  -9  12    4.16    0.07 
  -3  -8  12    0.03    0.01 
  -2  -8  12    3.09    0.07 
  -1  -8  12    0.26    0.02 
   0  -8  12    2.22    0.05 
   1  -8  12    4.97    0.08 
   2  -8  12    2.29    0.05 
  -3  -7  12    0.34    0.02 
  -2  -7  12   20.37    0.34 
  -1  -7  12    1.64    0.04 
   0  -7  12   11.20    0.17 
   1  -7  12    3.40    0.06 
   2  -7  12    1.07    0.03 
  -4  -6  12    0.01    0.01 
  -3  -6  12    1.65    0.05 
  -2  -6  12    0.87    0.03 
  -1  -6  12    4.26    0.09 
   0  -6  12    7.17    0.14 
   1  -6  12    0.72    0.03 
   2  -6  12   10.23    0.16 
  -4  -5  12    2.97    0.08 
  -3  -5  12    0.66    0.03 
  -2  -5  12    9.68    0.21 
  -1  -5  12    5.62    0.11 
   0  -5  12    7.36    0.14 
   1  -5  12    2.41    0.06 
   2  -5  12    4.70    0.10 
   3  -5  12    3.03    0.11 
  -4  -4  12    0.08    0.02 
  -3  -4  12    0.05    0.02 
  -2  -4  12    4.11    0.13 
  -1  -4  12   15.36    0.30 
   0  -4  12   12.54    0.23 
   1  -4  12   47.28    0.73 
   2  -4  12   11.64    0.23 
   3  -4  12    1.26    0.04 
  -4  -3  12    0.00    0.02 
  -3  -3  12    0.05    0.02 
  -2  -3  12    0.97    0.05 
  -1  -3  12    4.22    0.11 
   0  -3  12   19.43    0.37 
   1  -3  12   20.65    0.48 
   2  -3  12    1.61    0.06 
   3  -3  12    6.60    0.18 
  -4  -2  12    3.46    0.11 
  -3  -2  12    0.73    0.05 
  -2  -2  12    6.38    0.21 
  -1  -2  12   24.04    0.51 
   0  -2  12   10.65    0.24 
   1  -2  12    7.08    0.17 
   2  -2  12    7.02    0.18 
   3  -2  12    0.83    0.09 
  -4  -1  12    0.15    0.03 
  -3  -1  12    0.37    0.04 
  -2  -1  12    4.01    0.14 
  -1  -1  12    0.51    0.05 
   0  -1  12   -0.02    0.03 
   1  -1  12   13.51    0.33 
   2  -1  12    4.95    0.15 
  -4   0  12    1.43    0.06 
  -3   0  12    4.95    0.18 
  -2   0  12    3.35    0.12 
  -1   0  12    4.34    0.13 
   0   0  12    0.25    0.04 
   1   0  12    2.83    0.10 
   2   0  12   12.22    0.33 
  -4   1  12    2.21    0.09 
  -3   1  12    0.36    0.04 
  -2   1  12    0.82    0.05 
  -1   1  12   20.22    0.44 
   0   1  12    2.65    0.11 
   1   1  12   14.57    0.40 
   2   1  12   13.49    0.43 
  -4   2  12    0.05    0.03 
  -3   2  12    0.06    0.03 
  -2   2  12    5.04    0.15 
  -1   2  12    0.23    0.04 
   0   2  12    1.45    0.07 
   1   2  12    0.00    0.02 
   2   2  12    1.64    0.13 
  -3   3  12    0.21    0.03 
  -2   3  12    0.16    0.03 
  -1   3  12    0.15    0.03 
   0   3  12    0.12    0.03 
   1   3  12    4.32    0.17 
  -3   4  12    1.70    0.17 
  -2   4  12    0.57    0.04 
  -1   4  12    0.14    0.03 
   0   4  12    0.48    0.04 
  -1  -9  13    0.01    0.01 
   0  -9  13    9.34    0.25 
  -2  -8  13    1.55    0.05 
  -1  -8  13    2.45    0.06 
   0  -8  13    0.40    0.02 
   1  -8  13    0.15    0.02 
  -3  -7  13   -0.02    0.01 
  -2  -7  13    6.18    0.13 
  -1  -7  13    1.29    0.03 
   0  -7  13    1.10    0.03 
   1  -7  13    7.13    0.15 
  -3  -6  13    0.04    0.01 
  -2  -6  13   15.11    0.34 
  -1  -6  13    1.25    0.04 
   0  -6  13    0.41    0.02 
   1  -6  13    1.05    0.03 
   2  -6  13    0.09    0.04 
  -3  -5  13    3.00    0.08 
  -2  -5  13    6.75    0.17 
  -1  -5  13    0.85    0.04 
   0  -5  13    7.28    0.15 
   1  -5  13    0.10    0.02 
   2  -5  13    0.29    0.03 
  -3  -4  13   -0.01    0.02 
  -2  -4  13    4.25    0.12 
  -1  -4  13    1.84    0.07 
   0  -4  13    1.88    0.07 
   1  -4  13    5.32    0.13 
   2  -4  13    1.21    0.04 
  -3  -3  13    0.48    0.03 
  -2  -3  13    0.34    0.04 
  -1  -3  13    0.06    0.03 
   0  -3  13    0.13    0.03 
   1  -3  13    1.43    0.05 
   2  -3  13    4.77    0.12 
  -3  -2  13    0.72    0.04 
  -2  -2  13    0.76    0.06 
  -1  -2  13    0.14    0.03 
   0  -2  13    3.98    0.12 
   1  -2  13    5.45    0.15 
   2  -2  13    0.02    0.02 
  -3  -1  13    0.09    0.03 
  -2  -1  13   20.41    0.48 
  -1  -1  13    1.02    0.06 
   0  -1  13    0.46    0.04 
   1  -1  13   12.25    0.29 
  -3   0  13    5.32    0.17 
  -2   0  13    3.76    0.11 
  -1   0  13    0.19    0.03 
   0   0  13    0.83    0.05 
   1   0  13    3.17    0.11 
  -3   1  13    1.35    0.06 
  -2   1  13    0.02    0.02 
  -1   1  13    0.57    0.04 
   0   1  13    3.67    0.11 
   1   1  13    0.35    0.03 
  -2   2  13    3.02    0.09 
  -1   2  13    0.92    0.05 
   0   2  13    0.43    0.04 
  -1   3  13    0.13    0.03 
  -1  -7  14    0.14    0.03 
  -2  -6  14    0.58    0.07 
  -1  -6  14    0.36    0.02 
   0  -6  14    0.02    0.02 
  -2  -5  14   13.72    0.32 
  -1  -5  14    0.16    0.02 
   0  -5  14    3.60    0.09 
  -2  -4  14    0.21    0.02 
  -1  -4  14    1.08    0.05 
   0  -4  14   19.52    0.39 
  -2  -3  14    1.40    0.05 
  -1  -3  14    0.85    0.04 
   0  -3  14    0.17    0.02 
  -2  -2  14    0.15    0.02 
  -1  -2  14    0.79    0.04 
   0  -2  14    0.18    0.02 
  -2  -1  14    4.78    0.15 
  -1  -1  14    0.54    0.04 
   0  -1  14    0.58    0.04 
  -2   0  14    0.24    0.04 
  -1   0  14    0.12    0.03 
   0   0   0    0.00    0.00 
;
_shelx_hkl_checksum              13283
loop_
_space_group_symop_operation_xyz
'x, y, z'
'-x, -y, -z'
loop_
_atom_site_label
_atom_site_type_symbol
_atom_site_fract_x
_atom_site_fract_y
_atom_site_fract_z
_atom_site_U_iso_or_equiv
_atom_site_adp_type
_atom_site_occupancy
_atom_site_site_symmetry_order
_atom_site_calc_flag
_atom_site_refinement_flags_posn
_atom_site_refinement_flags_adp
N N -0.0756(2) 0.81440(10) 0.20422(10) 0.0461(3) Uani 1 1 d . .
C1 C 0.4430(2) 0.53162(12) 0.47417(11) 0.0392(3) Uani 1 1 d . .
C2 C 0.3090(2) 0.60543(11) 0.40910(10) 0.0350(3) Uani 1 1 d . .
C3 C 0.0705(2) 0.56777(11) 0.35351(11) 0.0382(3) Uani 1 1 d . .
H3 H -0.0057 0.4946 0.3618 0.046 Uiso 1 1 calc R U
C4 C -0.0556(2) 0.63604(11) 0.28651(11) 0.0384(3) Uani 1 1 d . .
H4 H -0.2162 0.6089 0.2499 0.046 Uiso 1 1 calc R U
C5 C 0.0529(2) 0.74482(11) 0.27261(10) 0.0351(3) Uani 1 1 d . .
C6 C 0.2887(2) 0.78497(12) 0.33068(11) 0.0407(3) Uani 1 1 d . .
H6 H 0.3630 0.8594 0.3242 0.049 Uiso 1 1 calc R U
C7 C 0.4142(2) 0.71632(13) 0.39775(11) 0.0407(3) Uani 1 1 d . .
H7 H 0.5731 0.7448 0.4363 0.049 Uiso 1 1 calc R U
C8 C -0.2316(2) 0.75807(11) 0.09600(10) 0.0357(3) Uani 1 1 d . .
C9 C -0.1854(3) 0.64844(12) 0.02152(11) 0.0442(3) Uani 1 1 d . .
H9 H -0.0473 0.6099 0.0423 0.053 Uiso 1 1 calc R U
C10 C -0.3433(3) 0.59553(14) -0.08380(12) 0.0534(4) Uani 1 1 d . .
H10 H -0.3137 0.5200 -0.1329 0.064 Uiso 1 1 calc R U
C11 C -0.5422(3) 0.65242(16) -0.11687(13) 0.0583(4) Uani 1 1 d . .
H11 H -0.6474 0.6168 -0.1887 0.070 Uiso 1 1 calc R U
C12 C -0.5860(3) 0.76199(17) -0.04393(14) 0.0597(4) Uani 1 1 d . .
H12 H -0.7216 0.8014 -0.0665 0.072 Uiso 1 1 calc R U
C13 C -0.4332(2) 0.81496(15) 0.06215(12) 0.0492(4) Uani 1 1 d . .
H13 H -0.4659 0.8897 0.1115 0.059 Uiso 1 1 calc R U
C14 C -0.0255(2) 0.94514(11) 0.23834(10) 0.0336(3) Uani 1 1 d . .
C15 C -0.0759(3) 1.01189(13) 0.34632(11) 0.0460(3) Uani 1 1 d . .
H15 H -0.1484 0.9720 0.3959 0.055 Uiso 1 1 calc R U
C16 C -0.0182(3) 1.13864(15) 0.38084(14) 0.0617(5) Uani 1 1 d . .
H16 H -0.0504 1.1847 0.4545 0.074 Uiso 1 1 calc R U
C17 C 0.0859(4) 1.19709(14) 0.30779(17) 0.0666(5) Uani 1 1 d . .
H17 H 0.1270 1.2827 0.3321 0.080 Uiso 1 1 calc R U
C18 C 0.1296(3) 1.13055(16) 0.19963(16) 0.0607(4) Uani 1 1 d . .
H18 H 0.1976 1.1709 0.1491 0.073 Uiso 1 1 calc R U
C19 C 0.0746(2) 1.00514(13) 0.16469(12) 0.0448(3) Uani 1 1 d . .
H19 H 0.1053 0.9600 0.0904 0.054 Uiso 1 1 calc R U
loop_
_atom_site_aniso_label
_atom_site_aniso_U_11
_atom_site_aniso_U_22
_atom_site_aniso_U_33
_atom_site_aniso_U_23
_atom_site_aniso_U_13
_atom_site_aniso_U_12
N 0.0619(7) 0.0282(6) 0.0396(6) 0.0068(4) -0.0186(5) 0.0103(5)
C1 0.0428(7) 0.0375(7) 0.0379(6) 0.0119(5) 0.0007(5) 0.0137(5)
C2 0.0395(6) 0.0351(7) 0.0318(6) 0.0107(4) 0.0024(4) 0.0156(5)
C3 0.0428(7) 0.0302(6) 0.0413(6) 0.0113(5) 0.0003(5) 0.0082(5)
C4 0.0363(6) 0.0337(7) 0.0415(6) 0.0088(5) -0.0055(5) 0.0070(5)
C5 0.0419(6) 0.0299(6) 0.0317(6) 0.0080(4) -0.0035(4) 0.0123(4)
C6 0.0406(7) 0.0386(7) 0.0444(7) 0.0183(5) -0.0016(5) 0.0040(5)
C7 0.0323(6) 0.0463(8) 0.0446(7) 0.0179(5) -0.0028(5) 0.0078(5)
C8 0.0384(6) 0.0357(7) 0.0309(6) 0.0089(5) -0.0030(4) 0.0071(5)
C9 0.0535(8) 0.0361(7) 0.0398(7) 0.0072(5) -0.0010(5) 0.0123(5)
C10 0.0761(10) 0.0390(8) 0.0377(7) 0.0030(5) -0.0010(6) -0.0002(7)
C11 0.0597(9) 0.0602(10) 0.0436(7) 0.0111(7) -0.0168(6) -0.0135(7)
C12 0.0388(7) 0.0791(11) 0.0553(9) 0.0152(8) -0.0105(6) 0.0128(7)
C13 0.0444(7) 0.0579(9) 0.0412(7) 0.0065(6) -0.0010(5) 0.0197(6)
C14 0.0396(6) 0.0291(6) 0.0304(5) 0.0085(4) -0.0043(4) 0.0116(4)
C15 0.0582(8) 0.0457(8) 0.0335(6) 0.0082(5) 0.0069(5) 0.0104(6)
C16 0.0824(11) 0.0458(9) 0.0453(8) -0.0068(6) -0.0008(7) 0.0207(8)
C17 0.0837(12) 0.0299(8) 0.0752(11) 0.0129(7) -0.0208(9) 0.0035(7)
C18 0.0645(10) 0.0541(10) 0.0689(10) 0.0347(8) -0.0016(7) -0.0015(7)
C19 0.0500(7) 0.0494(8) 0.0397(7) 0.0176(5) 0.0078(5) 0.0163(6)
loop_
_atom_type_symbol
_atom_type_description
_atom_type_scat_dispersion_real
_atom_type_scat_dispersion_imag
_atom_type_scat_source
C C 0.0181 0.0091 'International Tables Vol C Tables 4.2.6.8 and 6.1.1.4'
H H 0.0000 0.0000 'International Tables Vol C Tables 4.2.6.8 and 6.1.1.4'
N N 0.0311 0.0180 'International Tables Vol C Tables 4.2.6.8 and 6.1.1.4'
loop_
_geom_angle_atom_site_label_1
_geom_angle_atom_site_label_2
_geom_angle_atom_site_label_3
_geom_angle
_geom_angle_site_symmetry_1
C5 N C8 121.91(10) .
C5 N C14 118.64(10) .
C8 N C14 119.06(10) .
C1 C1 C2 178.26(17) 2_666
C3 C2 C7 117.87(10) .
C3 C2 C1 121.07(11) .
C7 C2 C1 121.05(11) .
C4 C3 C2 121.20(11) .
C3 C4 C5 120.63(11) .
C4 C5 C6 118.53(10) .
C4 C5 N 120.65(11) .
C6 C5 N 120.80(11) .
C7 C6 C5 120.61(12) .
C6 C7 C2 121.10(11) .
C9 C8 C13 119.06(11) .
C9 C8 N 121.59(11) .
C13 C8 N 119.34(11) .
C8 C9 C10 119.98(13) .
C11 C10 C9 120.65(14) .
C10 C11 C12 119.36(13) .
C11 C12 C13 120.81(14) .
C12 C13 C8 120.12(13) .
C19 C14 C15 119.86(12) .
C19 C14 N 120.49(12) .
C15 C14 N 119.65(12) .
C14 C15 C16 119.27(14) .
C17 C16 C15 120.34(14) .
C18 C17 C16 119.96(15) .
C17 C18 C19 120.29(15) .
C18 C19 C14 120.25(13) .
loop_
_geom_bond_atom_site_label_1
_geom_bond_atom_site_label_2
_geom_bond_distance
_geom_bond_site_symmetry_2
N C5 1.4083(14) .
N C8 1.4147(15) .
N C14 1.4269(16) .
C1 C1 1.198(2) 2_666
C1 C2 1.4336(15) .
C2 C3 1.3953(17) .
C2 C7 1.3958(18) .
C3 C4 1.3812(16) .
C4 C5 1.3935(18) .
C5 C6 1.3938(17) .
C6 C7 1.3834(16) .
C8 C9 1.3866(17) .
C8 C13 1.3877(17) .
C9 C10 1.3891(19) .
C10 C11 1.373(2) .
C11 C12 1.374(2) .
C12 C13 1.382(2) .
C14 C19 1.3807(18) .
C14 C15 1.3813(17) .
C15 C16 1.389(2) .
C16 C17 1.375(3) .
C17 C18 1.369(3) .
C18 C19 1.373(2) .
loop_
_geom_torsion_atom_site_label_1
_geom_torsion_atom_site_label_2
_geom_torsion_atom_site_label_3
_geom_torsion_atom_site_label_4
_geom_torsion
C7 C2 C3 C4 1.80(18)
C1 C2 C3 C4 -177.20(11)
C2 C3 C4 C5 0.06(19)
C3 C4 C5 C6 -1.90(18)
C3 C4 C5 N 179.94(11)
C8 N C5 C4 -39.95(18)
C14 N C5 C4 147.27(13)
C8 N C5 C6 141.93(13)
C14 N C5 C6 -30.85(18)
C4 C5 C6 C7 1.86(19)
N C5 C6 C7 -179.98(11)
C5 C6 C7 C2 0.0(2)
C3 C2 C7 C6 -1.84(19)
C1 C2 C7 C6 177.16(11)
C5 N C8 C9 -32.6(2)
C14 N C8 C9 140.17(14)
C5 N C8 C13 148.75(14)
C14 N C8 C13 -38.50(19)
C13 C8 C9 C10 -1.6(2)
N C8 C9 C10 179.70(13)
C8 C9 C10 C11 1.8(2)
C9 C10 C11 C12 -0.8(3)
C10 C11 C12 C13 -0.3(3)
C11 C12 C13 C8 0.4(3)
C9 C8 C13 C12 0.5(2)
N C8 C13 C12 179.24(14)
C5 N C14 C19 115.04(13)
C8 N C14 C19 -57.94(17)
C5 N C14 C15 -64.43(17)
C8 N C14 C15 122.58(14)
C19 C14 C15 C16 -1.9(2)
N C14 C15 C16 177.61(13)
C14 C15 C16 C17 0.6(2)
C15 C16 C17 C18 1.0(3)
C16 C17 C18 C19 -1.4(3)
C17 C18 C19 C14 0.1(2)
C15 C14 C19 C18 1.6(2)
N C14 C19 C18 -177.92(12)
