#------------------------------------------------------------------------------
#$Date: 2019-11-24 07:43:58 +0200 (Sun, 24 Nov 2019) $
#$Revision: 237162 $
#$URL: file:///home/coder/svn-repositories/cod/cif/4/08/79/4087968.cif $
#------------------------------------------------------------------------------
#
# This file is available in the Crystallography Open Database (COD),
# http://www.crystallography.net/
#
# All data on this site have been placed in the public domain by the
# contributors.
#
data_4087968
loop_
_publ_author_name
'Baba Haj, Samer'
'Dietz, Christina'
'Lutter, Michael'
'Jurkschat, Klaus'
_publ_section_title
;
 cyclo-Stannasiloxanes Containing both Oxygen Atoms and Methylene Moieties
 within the Ring and Formation of Related Organotin Oxo Clusters
;
_journal_issue                   23
_journal_name_full               Organometallics
_journal_page_first              5555
_journal_paper_doi               10.1021/acs.organomet.5b00768
_journal_volume                  34
_journal_year                    2015
_chemical_formula_moiety         'C30 H36 O2 Si2 Sn2'
_chemical_formula_sum            'C30 H36 O2 Si2 Sn2'
_chemical_formula_weight         722.15
_chemical_melting_point          168.0(10)
_chemical_name_common            cyclo-(Ph2SnOMe2SiCH2)2
_space_group_crystal_system      triclinic
_space_group_IT_number           2
_space_group_name_Hall           '-P 1'
_space_group_name_H-M_alt        'P -1'
_atom_sites_solution_hydrogens   geom
_audit_creation_method           SHELXL-2014/7
_cell_angle_alpha                63.553(5)
_cell_angle_beta                 85.715(4)
_cell_angle_gamma                72.521(4)
_cell_formula_units_Z            1
_cell_length_a                   9.1830(5)
_cell_length_b                   9.3227(4)
_cell_length_c                   10.3918(5)
_cell_measurement_reflns_used    6453
_cell_measurement_temperature    173(2)
_cell_measurement_theta_max      29.0955
_cell_measurement_theta_min      2.1951
_cell_volume                     757.94(8)
_computing_cell_refinement
'CrysAlisPro, Oxford Diffraction Ltd., Version 1.171.33.55''
_computing_data_collection
'CrysAlisPro, Oxford Diffraction Ltd., Version 1.171.33.55''
_computing_data_reduction
'CrysAlisPro, Oxford Diffraction Ltd., Version 1.171.33.55''
_computing_molecular_graphics    'SHELXL-2014/7 (Sheldrick, 2014)'
_computing_publication_material  'enCIFer Version 1.5'
_computing_structure_refinement  'SHELXL-2014/7 (Sheldrick, 2014)'
_computing_structure_solution    'SHELXL-2014/7 (Sheldrick, 2014)'
_diffrn_ambient_temperature      173(2)
_diffrn_measured_fraction_theta_full 0.999
_diffrn_measured_fraction_theta_max 0.999
_diffrn_measurement_device       'XcaliburS CCD Diffractometer'
_diffrn_measurement_method       '\w und \y scan'
_diffrn_radiation_type           MoK\a
_diffrn_radiation_wavelength     0.71073
_diffrn_reflns_av_R_equivalents  0.0209
_diffrn_reflns_av_unetI/netI     0.0236
_diffrn_reflns_Laue_measured_fraction_full 0.999
_diffrn_reflns_Laue_measured_fraction_max 0.999
_diffrn_reflns_limit_h_max       11
_diffrn_reflns_limit_h_min       -11
_diffrn_reflns_limit_k_max       11
_diffrn_reflns_limit_k_min       -11
_diffrn_reflns_limit_l_max       12
_diffrn_reflns_limit_l_min       -12
_diffrn_reflns_number            6938
_diffrn_reflns_point_group_measured_fraction_full 0.999
_diffrn_reflns_point_group_measured_fraction_max 0.999
_diffrn_reflns_theta_full        25.242
_diffrn_reflns_theta_max         25.499
_diffrn_reflns_theta_min         2.194
_exptl_absorpt_coefficient_mu    1.751
_exptl_absorpt_correction_T_max  1.00000
_exptl_absorpt_correction_T_min  0.84723
_exptl_absorpt_correction_type   multi-scan
_exptl_absorpt_process_details
;
CrysAlis RED, Oxford Diffraction Ltd.,
Version 1.171.32.37 (release 24-10-2008 CrysAlis171 .NET)
(compiled Oct 24 2008,09:44:38)
Empirical absorption correction using spherical harmonics,
 implemented in SCALE3 ABSPACK scaling algorithm.
;
_exptl_crystal_colour            colourless
_exptl_crystal_density_diffrn    1.582
_exptl_crystal_description       prism
_exptl_crystal_F_000             360
_exptl_crystal_size_max          0.24
_exptl_crystal_size_mid          0.22
_exptl_crystal_size_min          0.16
_refine_diff_density_max         0.467
_refine_diff_density_min         -0.380
_refine_diff_density_rms         0.068
_refine_ls_extinction_method     none
_refine_ls_goodness_of_fit_ref   1.036
_refine_ls_hydrogen_treatment    constr
_refine_ls_matrix_type           full
_refine_ls_number_parameters     165
_refine_ls_number_reflns         2828
_refine_ls_number_restraints     0
_refine_ls_restrained_S_all      1.036
_refine_ls_R_factor_all          0.0193
_refine_ls_R_factor_gt           0.0173
_refine_ls_shift/su_max          0.001
_refine_ls_shift/su_mean         0.000
_refine_ls_structure_factor_coef Fsqd
_refine_ls_weighting_details
'w=1/[\s^2^(Fo^2^)+(0.0276P)^2^] where P=(Fo^2^+2Fc^2^)/3'
_refine_ls_weighting_scheme      calc
_refine_ls_wR_factor_gt          0.0440
_refine_ls_wR_factor_ref         0.0444
_reflns_Friedel_coverage         0.000
_reflns_number_gt                2620
_reflns_number_total             2828
_reflns_threshold_expression     'I > 2\s(I)'
_cod_data_source_file            om5b00768_si_002.cif
_cod_data_source_block           comp5
_cod_depositor_comments
;
The following automatic conversions were performed:

data item '_chemical_melting_point' value '167-169' was changed to
'168.0(10)' -- the average value was taken and precision was
estimated.

Automatic conversion script
Id: cif_fix_values 6909 2019-04-08 15:41:33Z antanas 
;
_cod_original_cell_volume        757.94(7)
_cod_database_code               4087968
_shelx_shelxl_version_number     2014/7
_shelx_space_group_comment
;
The symmetry employed for this shelxl refinement is uniquely defined
by the following loop, which should always be used as a source of
symmetry information in preference to the above space-group names.
They are only intended as comments.
;
_shelx_res_file
;

    1237.res created by SHELXL-2014/7

TITL 1237 in P-1
CELL 0.71073   9.1830   9.3227  10.3918  63.553  85.715  72.521
ZERR    1.00   0.0005   0.0004   0.0005   0.005   0.004   0.004
LATT  1
SFAC C H O SI SN
UNIT 30 36 2 2 2

L.S. 10
ACTA
CONF
BOND $H
OMIT 0 51
OMIT 0  2  3
OMIT 3  2  0
FMAP 2
PLAN -10
EQIV $1 -x+1, -y+1, -z+1
RTAB XOYO Si1 C1 Sn1_$1 O1_$1

WGHT    0.027600
FVAR       6.85299
SN1   5    0.423905    0.774985    0.432890    11.00000    0.01573    0.01270 =
         0.01646   -0.00422    0.00039   -0.00311
SI1   4    0.442798    0.552609    0.247595    11.00000    0.01895    0.01881 =
         0.01463   -0.00647    0.00038   -0.00311
O1    3    0.377325    0.626869    0.362488    11.00000    0.02048    0.01845 =
         0.01945   -0.00954    0.00319   -0.00726
C1    1    0.593374    0.347706    0.340993    11.00000    0.02832    0.02454 =
         0.01751   -0.00741    0.00175    0.00296
AFIX  23
H1A   2    0.692942    0.366181    0.323100    11.00000   -1.20000
H1B   2    0.587195    0.274340    0.299873    11.00000   -1.20000
AFIX   0
C2    1    0.527891    0.698142    0.096610    11.00000    0.04322    0.03012 =
         0.02078   -0.00815    0.00982   -0.00877
AFIX 137
H2A   2    0.456419    0.808941    0.056537    11.00000   -1.50000
H2B   2    0.550816    0.659890    0.023470    11.00000   -1.50000
H2C   2    0.620288    0.700589    0.132020    11.00000   -1.50000
AFIX   0
C3    1    0.280892    0.521899    0.176694    11.00000    0.03149    0.06073 =
         0.04695   -0.03847    0.00009   -0.01225
AFIX 137
H3A   2    0.198531    0.625004    0.138964    11.00000   -1.50000
H3B   2    0.246337    0.435880    0.253022    11.00000   -1.50000
H3C   2    0.314039    0.488923    0.101413    11.00000   -1.50000
AFIX   0
C11   1    0.640078    0.806231    0.355831    11.00000    0.02037    0.02061 =
         0.01877   -0.00679   -0.00042   -0.00806
C12   1    0.773288    0.672266    0.393251    11.00000    0.02180    0.02410 =
         0.02530   -0.00568    0.00193   -0.00776
AFIX  43
H12A  2    0.770563    0.564641    0.456581    11.00000   -1.20000
AFIX   0
C13   1    0.910250    0.697214    0.337243    11.00000    0.01897    0.03456 =
         0.03119   -0.00976    0.00143   -0.00553
AFIX  43
H13A  2    0.998590    0.606454    0.362221    11.00000   -1.20000
AFIX   0
C14   1    0.915509    0.857917    0.243740    11.00000    0.02796    0.04832 =
         0.02780   -0.01490    0.00989   -0.02421
AFIX  43
H14A  2    1.007536    0.875061    0.206837    11.00000   -1.20000
AFIX   0
C15   1    0.784515    0.991330    0.205967    11.00000    0.03655    0.02847 =
         0.02780   -0.00658    0.00347   -0.02082
AFIX  43
H15A  2    0.787800    1.098956    0.143315    11.00000   -1.20000
AFIX   0
C16   1    0.647637    0.965881    0.260977    11.00000    0.02850    0.02108 =
         0.02366   -0.00786   -0.00172   -0.00943
AFIX  43
H16A  2    0.559314    1.056863    0.234156    11.00000   -1.20000
AFIX   0
C21   1    0.246599    1.006127    0.324480    11.00000    0.01746    0.01450 =
         0.02162   -0.00500   -0.00033   -0.00615
C22   1    0.152585    1.084337    0.400186    11.00000    0.02208    0.02178 =
         0.02364   -0.00825    0.00040   -0.00499
AFIX  43
H22A  2    0.170488    1.038817    0.499462    11.00000   -1.20000
AFIX   0
C23   1    0.032732    1.228890    0.330223    11.00000    0.01983    0.02374 =
         0.04068   -0.01677    0.00135   -0.00159
AFIX  43
H23A  2   -0.029120    1.279584    0.382667    11.00000   -1.20000
AFIX   0
C24   1    0.004549    1.298044    0.183526    11.00000    0.01883    0.01735 =
         0.03958   -0.00297   -0.00666   -0.00418
AFIX  43
H24A  2   -0.076805    1.394627    0.136945    11.00000   -1.20000
AFIX   0
C25   1    0.096996    1.223985    0.105903    11.00000    0.02817    0.02459 =
         0.02105   -0.00050   -0.00456   -0.01006
AFIX  43
H25A  2    0.078958    1.271416    0.006489    11.00000   -1.20000
AFIX   0
C26   1    0.216488    1.079441    0.175151    11.00000    0.02441    0.02065 =
         0.02244   -0.00744    0.00170   -0.00734
AFIX  43
H26A  2    0.277991    1.029960    0.121717    11.00000   -1.20000

AFIX   0
HKLF 4

REM  1237 in P-1
REM R1 =  0.0173 for    2620 Fo > 4sig(Fo)  and  0.0193 for all    2828 data
REM    165 parameters refined using      0 restraints

END

WGHT      0.0269      0.0000

REM Highest difference peak  0.467,  deepest hole -0.380,  1-sigma level  0.068
Q1    1   0.4144  0.7776  0.3434  11.00000  0.05    0.47
Q2    1   0.5400  0.7517  0.4121  11.00000  0.05    0.38
Q3    1   0.3467  0.8943  0.3532  11.00000  0.05    0.33
Q4    1   0.4940  0.5633  0.6973  11.00000  0.05    0.30
Q5    1   0.0169  1.2557  0.3505  11.00000  0.05    0.28
Q6    1   0.2433  1.0617  0.2438  11.00000  0.05    0.27
Q7    1   0.8280  0.6783  0.3154  11.00000  0.05    0.27
Q8    1   0.4607  0.6794  0.5040  11.00000  0.05    0.27
Q9    1   0.0644  1.2221  0.0780  11.00000  0.05    0.27
Q10   1   0.6471  0.8755  0.2723  11.00000  0.05    0.26
;
_shelx_res_checksum              44927
_shelx_hkl_file
;
   0   0   1 438491. 5486.19   3
   0   0  -1 424249. 7033.90   1
   0   0   2 29704.5 713.518   1
   0   0  -2 28964.3 535.729   3
   0   0   2 26625.5 641.953   6
   0   0  -2 26486.3 651.973   6
   0   0   2 29072.3 543.096   3
   0   0  -2 28342.7 749.684   1
   0   0   3 743.051 517.483   1
   0   0  -3 942.487 501.902   1
   0   0  -3 744.984 302.404   3
   0   0  -3 1201.72 492.604   6
   0   0   3 903.567 432.222   6
   0   0  -3 967.324 186.180   5
   0   0  -4 48490.4 1379.27   1
   0   0   4 47389.6 1172.29   6
   0   0  -4 46109.0 959.060   3
   0   0  -4 46887.2 646.838   5
   0   0  -5 87831.6 1454.23   3
   0   0   5 89142.5 1776.06   6
   0   0  -5 85665.1 920.018   5
   0   0  -5 85548.4 1944.05   1
   0   0  -6 106691. 2358.40   1
   0   0  -6 110054. 1793.01   3
   0   0   6 114099. 2211.42   6
   0   0  -6 112830. 1104.50   5
   0   0   7 46325.0 1591.80   6
   0   0  -7 47259.9 725.585   5
   0   0  -7 47936.1 1852.64   1
   0   0  -7 48746.6 1354.24   3
   0   0  -8 37218.4 1839.49   1
   0   0  -8 41278.4 1360.77   3
   0   0   8 41653.7 1686.73   6
   0   0  -9 65800.5 1823.00   3
   0   0   9 62481.4 2131.11   6
   0   0  10 32675.7 1794.06   6
   0   0 -10 29409.4 1667.75   2
   0   0 -10 32045.5 1433.09   3
   0   0 -10 31182.8 2008.16   1
   0   0 -11 2870.14 1028.03   2
   0   0 -11 1910.78 1079.54   1
   0   0  11 1925.98 887.683   6
   0   0 -12 21629.8 1835.31   2
   0  -1  11 35913.9 2038.29   6
   0   1 -11 37657.8 2184.76   2
   0   1 -10 15899.9 1227.48   3
   0  -1  10 16454.9 1424.24   6
   0  -1   9 12845.2 1248.62   6
   0   1  -9 11908.4 1026.46   3
   0  -1   8 25674.1 1468.79   6
   0   1  -8 21613.2 1518.74   1
   0   1  -8 24525.7 1228.60   3
   0   1  -7 10043.6 1153.33   1
   0   1  -7 10235.9 862.729   3
   0  -1   7 10953.7 968.071   6
   0   1  -6 22585.3 1037.00   3
   0  -1   6 21849.2 1183.46   6
   0   1  -6 21928.0 1259.10   1
   0  -1   5 137386. 2366.70   6
   0   1  -5 139303. 2108.14   3
   0   1  -5 133200. 2373.60   1
   0   1  -4 165324. 2352.45   1
   0   1  -4 172186. 2127.68   3
   0  -1   4 173479. 2356.94   6
   0   1  -3 306189. 2528.18   3
   0   1  -3 305648. 2737.12   1
   0  -1   2 374255. 2573.75   6
   0   1  -2 369642. 2476.69   1
   0  -1   2 377993. 2585.19   1
   0  -1   1 190874. 1374.62   1
   0   1  -1 189385. 1119.09   0
   0   1   0 3849.83 178.788   0
   0  -1   0 4314.75 183.435   4
   0   1   0 4186.44 190.883   4
   0  -1   0 3896.73 172.730   0
   0   1   1 75789.7 724.825   0
   0  -1  -1 75255.9 656.481   1
   0   1   2 300749. 7202.30   1
   0  -1  -2 291092. 7145.87   6
   0  -1  -2 288490. 1841.47   1
   0   1   2 292071. 5470.84   5
   0   1   2 285374. 6894.51   6
   0  -1  -2 290929. 5592.29   2
   0   1   3 239511. 2079.42   1
   0  -1  -3 224771. 1317.17   3
   0   1   3 224727. 5140.89   5
   0  -1  -3 211390. 2066.57   1
   0   1   3 218733. 1930.51   6
   0  -1  -3 229122. 2011.62   6
   0  -1  -3 231723. 5167.51   5
   0   1   3 220351. 5125.58   3
   0  -1  -4 196679. 1550.13   3
   0   1   4 200218. 2182.05   6
   0   1   4 201105. 1533.72   3
   0   1   4 206270. 2246.48   1
   0  -1  -4 200114. 1296.13   5
   0   1   4 198967. 1314.54   5
   0  -1  -4 209654. 2261.24   6
   0   1   5 244828. 1984.74   3
   0  -1  -5 228710. 2977.91   1
   0  -1  -5 241396. 2004.23   3
   0   1   5 232442. 2678.99   6
   0  -1  -5 239452. 1498.16   5
   0  -1  -6 30119.2 1439.54   1
   0  -1  -6 29904.7 579.782   5
   0   1   6 31173.0 1158.56   6
   0  -1  -6 31231.6 864.621   3
   0  -1  -7 2553.21 876.491   1
   0  -1  -7 2505.52 465.350   3
   0   1   7 2398.59 686.871   6
   0   1   8 8320.98 908.369   6
   0  -1  -8 7270.62 1074.45   1
   0  -1  -8 8419.98 669.658   3
   0  -1  -9 4291.74 831.595   2
   0   1   9 3826.75 835.209   6
   0  -1  -9 3717.53 600.143   3
   0  -1  -9 2442.59 982.525   1
   0  -1 -10 57067.0 2037.48   2
   0   1  10 56881.8 2109.34   6
   0  -1 -10 59917.0 1672.03   3
   0  -1 -10 56288.5 2410.73   1
   0  -1 -11 56425.7 2628.90   1
   0   1  11 59994.8 2317.94   6
   0  -1 -11 59703.2 2250.03   2
   0  -1 -12 23760.1 1749.34   2
   0   1  12 24330.9 1715.46   6
   0  -1 -12 23097.1 2125.49   1
   0  -2  10 30.9227 916.777   6
   0   2 -10 63.5705 819.931   3
   0  -2   9 24665.7 1648.88   6
   0   2  -9 23903.1 1455.87   3
   0   2  -8 73827.9 2182.69   3
   0   2  -8 66774.2 1724.88   0
   0  -2   8 71438.2 2326.16   6
   0   2  -7 112653. 2473.42   3
   0  -2   7 114554. 2716.18   6
   0   2  -6 79678.8 1972.93   3
   0  -2   6 77303.4 2125.23   6
   0  -2   5 57407.5 1718.56   6
   0   2  -5 61027.1 1629.06   3
   0   2  -5 56679.0 1257.19   0
   0   2  -4 137897. 2201.19   3
   0  -2   4 140299. 2323.52   6
   0  -2   3 676.733 493.298   6
   0   2  -3 685.758 381.767   3
   0   2  -3 435.583 286.340   0
   0   2  -2 199177. 2178.46   3
   0   2  -2 198353. 1631.63   0
   0   2  -1 323882. 1922.83   4
   0   2  -1 325894. 1889.18   0
   0   2   0 272991. 6588.78   0
   0  -2   0 287267. 6775.57   0
   0  -2   0 280025. 6725.58   4
   0   2   0 280527. 1724.92   4
   0   2   1 192513. 1467.03   0
   0  -2  -1 205400. 1506.37   0
   0  -2  -2 480582. 5996.21   2
   0  -2  -2 475323. 9260.38   1
   0  -2  -2 505236. 10413.8   0
   0   2   2 507216. 9412.32   1
   0   2   2 466855. 5872.76   2
   0  -2  -3 3178.94 451.516   1
   0   2   3 2752.97 362.497   6
   0  -2  -3 3433.10 260.424   2
   0   2   3 2966.85 212.811   3
   0   2   3 3405.64 343.802   5
   0  -2  -3 3126.44 426.903   6
   0   2   4 47815.0 820.016   5
   0  -2  -4 50400.2 1129.90   6
   0   2   4 46089.1 1046.62   6
   0  -2  -4 47608.3 853.722   2
   0  -2  -4 47242.1 1188.89   1
   0   2   4 52045.4 1115.26   1
   0   2   4 49894.8 638.428   3
   0  -2  -5 1178.21 619.812   1
   0  -2  -5 1536.35 246.396   3
   0   2   5 1213.97 250.141   5
   0   2   5 1150.94 225.020   3
   0  -2  -5 1272.90 353.227   2
   0   2   6 15680.7 852.962   6
   0  -2  -6 15071.0 540.294   3
   0  -2  -6 14769.3 735.794   2
   0   2   6 14560.5 518.434   3
   0   2   6 15074.9 516.720   5
   0  -2  -6 15912.6 1103.72   1
   0  -2  -7 40070.4 940.389   3
   0  -2  -7 40568.6 1687.42   1
   0   2   7 40838.2 1406.45   6
   0  -2  -7 38969.7 1215.78   2
   0   2   8 118133. 2478.71   6
   0  -2  -8 115836. 2920.76   1
   0  -2  -8 115633. 1701.34   3
   0  -2  -8 111671. 2184.91   2
   0  -2  -9 109794. 2356.61   2
   0  -2  -9 110459. 1821.83   3
   0   2   9 114759. 2644.58   6
   0   2  10 24677.3 1460.22   6
   0  -2 -10 24851.8 1348.28   2
   0  -2 -10 24145.2 1872.36   1
   0  -2 -11 10757.3 1598.08   1
   0   2  11 10699.4 1229.93   6
   0  -2 -11 11757.0 1180.26   2
   0   2  12 2499.93 915.974   6
   0  -2 -12 1470.60 1339.18   1
   0  -2 -12 2157.01 923.181   2
   0  -2 -13 2830.93 1058.53   2
   0   3 -10 46263.4 2257.03   3
   0   3  -9 62094.1 2376.20   3
   0  -3   9 60501.4 2496.46   6
   0   3  -8 17606.4 1385.55   3
   0  -3   8 17554.7 1474.57   6
   0   3  -7 1454.89 795.994   3
   0  -3   7 1427.04 732.207   6
   0  -3   6 1064.29 728.459   6
   0   3  -6 1537.84 748.587   3
   0   3  -6 939.377 469.305   0
   0   3  -5 11166.6 993.381   3
   0   3  -5 11178.8 678.721   0
   0  -3   5 11804.5 1009.94   6
   0   3  -4 199793. 2991.36   3
   0   3  -4 195836. 2160.03   0
   0  -3   4 200466. 3005.96   6
   0   3  -3 404598. 3878.94   3
   0   3  -3 385445. 2800.50   0
   0  -3   2 216041. 2352.60   1
   0   3  -2 224183. 2006.32   4
   0   3  -2 220222. 2654.73   3
   0  -3   1 31655.7 767.782   0
   0   3  -1 30019.0 750.925   4
   0   3  -1 28032.1 723.673   0
   0  -3   0 1355.61 363.988   4
   0   3   0 1577.34 349.593   0
   0  -3   0 1734.28 364.419   0
   0  -3  -1 11064.9 542.508   0
   0   3   1 10362.5 504.617   0
   0  -3  -1 10743.2 539.969   4
   0   3   2 40842.8 904.389   0
   0  -3  -2 44980.1 968.193   0
   0   3   2 40741.3 602.136   2
   0  -3  -2 42711.1 813.190   1
   0  -3  -3 181244. 1128.06   2
   0  -3  -3 179013. 1796.03   1
   0   3   3 178267. 1113.40   2
   0  -3  -4 106927. 1047.24   2
   0  -3  -4 106596. 1626.23   1
   0  -3  -5 118546. 1949.75   1
   0   3   5 119687. 1052.93   3
   0   3   5 116190. 1521.58   5
   0  -3  -5 121058. 1375.51   2
   0  -3  -6 229136. 2210.16   2
   0   3   6 228295. 2148.24   5
   0   3   6 222502. 2763.42   6
   0  -3  -6 222262. 3004.71   1
   0   3   6 231024. 1558.27   3
   0   3   7 126218. 1615.67   5
   0   3   7 127019. 1309.08   3
   0  -3  -7 124903. 1891.17   2
   0   3   7 122306. 2254.48   6
   0   3   8 232.690 297.232   5
   0   3   8 538.556 620.460   6
   0  -3  -8 579.891 509.673   2
   0  -3  -8 114.694 1031.52   1
   0   3   9 25640.1 1351.68   6
   0  -3  -9 25513.1 1737.41   1
   0  -3  -9 26323.5 1181.33   2
   0  -3 -10 7126.96 860.146   2
   0  -3 -10 6924.93 1393.67   1
   0   3  10 5673.03 931.523   6
   0  -3 -11 22093.1 1324.15   2
   0  -3 -11 20942.6 1816.05   1
   0   3  11 21940.9 1458.39   6
   0  -3 -12 39171.1 1802.08   2
   0  -3 -12 39603.6 2427.70   1
   0   3  12 37808.2 1950.44   6
   0  -3 -13 28013.3 1722.02   2
   0   3  13 26609.9 1855.60   6
   0  -4   9 20745.3 1769.41   6
   0   4  -9 20634.5 1707.01   3
   0   4  -8 20405.7 1530.09   3
   0  -4   8 21744.9 1616.32   6
   0   4  -7 47511.8 2021.12   3
   0  -4   7 48244.4 2135.69   6
   0   4  -6 56854.5 2092.06   3
   0  -4   6 53709.6 2080.59   6
   0   4  -5 71407.5 1540.29   0
   0   4  -5 77181.7 2272.19   3
   0  -4   5 72142.5 2171.04   6
   0   4  -4 64897.4 1400.67   0
   0  -4   4 63815.9 1919.67   6
   0   4  -4 66716.2 2006.84   3
   0   4  -3 506.026 400.537   0
   0   4  -3 1235.93 702.678   3
   0   4  -2 629.532 399.267   4
   0   4  -2 877.218 643.273   3
   0   4  -2 777.431 399.001   0
   0   4  -1 521.963 376.634   4
   0   4  -1 633.408 350.814   0
   0  -4   1 844.212 356.870   0
   0   4   0 206962. 2080.69   0
   0  -4   0 210590. 2116.94   4
   0   4   1 284799. 2466.93   0
   0  -4  -1 292554. 2515.57   4
   0  -4  -2 158187. 1650.51   1
   0   4   2 162502. 1942.72   0
   0   4   3 100120. 986.504   2
   0   4   3 95843.5 1589.74   0
   0  -4  -3 95588.0 1393.17   1
   0   4   4 201008. 1343.08   2
   0  -4  -4 196585. 2198.76   1
   0   4   5 28288.3 920.594   5
   0  -4  -5 29440.2 620.187   2
   0  -4  -5 27107.4 1032.70   1
   0   4   6 43150.0 1114.78   5
   0  -4  -6 44570.9 894.808   2
   0   4   6 44785.8 726.935   3
   0   4   7 71702.1 900.242   3
   0  -4  -7 71516.8 1944.82   1
   0   4   7 74776.6 1453.59   5
   0  -4  -7 74092.2 1325.33   2
   0   4   8 136061. 1924.99   5
   0   4   8 138000. 2616.65   6
   0  -4  -8 141522. 2053.45   2
   0  -4  -9 64743.9 1588.08   2
   0   4   9 60519.4 1906.41   6
   0   4   9 62414.1 1330.55   5
   0  -4  -9 58443.9 2257.67   1
   0  -4 -10 31773.5 2003.83   1
   0   4  10 35083.2 1593.58   6
   0  -4 -10 35160.9 1334.95   2
   0   4  11 43868.2 1923.88   6
   0  -4 -11 42594.7 2411.62   1
   0  -4 -11 47679.5 1678.55   2
   0  -4 -12 925.515 721.486   2
   0  -4 -12 489.785 1146.78   1
   0   4  12 299.515 856.221   6
   0   4  13 5278.31 1070.53   6
   0   5  -8 23290.5 1773.85   3
   0  -5   8 21593.3 1819.56   6
   0   5  -7 15976.7 1526.98   3
   0  -5   7 15753.3 1513.98   6
   0   5  -6 465.659 939.663   3
   0  -5   6 69.7317 885.487   6
   0  -5   5 36189.1 1779.73   6
   0   5  -5 37610.8 1780.15   3
   0   5  -4 41410.1 1226.70   0
   0   5  -4 47564.1 1897.60   3
   0  -5   4 46251.0 1841.95   6
   0   5  -3 10710.0 699.193   0
   0   5  -3 11164.2 1072.78   3
   0   5  -2 93088.4 2226.32   3
   0   5  -2 91043.7 1660.37   0
   0   5  -1 176357. 2201.23   0
   0   5   0 87764.5 1570.60   0
   0  -5  -1 34576.3 1053.85   4
   0   5   1 32801.5 1013.96   0
   0  -5  -2 300.759 482.279   4
   0  -5  -2 634.414 322.043   1
   0   5   2 273.004 374.985   0
   0  -5  -3 20074.6 748.575   1
   0   5   3 22493.9 613.918   2
   0   5   3 21435.7 918.187   0
   0   5   4 119516. 1154.47   2
   0  -5  -4 108333. 1708.60   1
   0   5   5 210960. 1489.12   2
   0  -5  -5 198429. 2506.39   1
   0   5   6 145190. 2217.33   5
   0  -5  -6 149271. 1410.86   2
   0  -5  -6 143297. 2410.24   1
   0  -5  -7 35660.1 1456.84   1
   0   5   7 36559.9 727.263   3
   0  -5  -7 37553.4 874.233   2
   0   5   7 39147.0 1215.62   5
   0  -5  -8 13078.2 1122.77   1
   0   5   8 14501.2 816.674   5
   0  -5  -8 15691.8 707.786   2
   0  -5  -9 26785.9 981.069   2
   0   5   9 24903.4 995.329   5
   0  -5 -10 1033.37 551.270   2
   0  -5 -10 959.963 1116.48   1
   0  -5 -11 47115.6 2426.63   1
   0   5  12 23476.3 1577.87   6
   0  -5 -12 22756.4 2023.51   1
   0  -5 -13 21030.6 2100.94   1
   0   5  13 21059.6 1654.54   6
   0  -6   6 43492.2 2185.40   6
   0   6  -6 46491.1 2332.73   3
   0   6  -5 38166.1 1944.35   3
   0  -6   5 36991.2 1961.13   6
   0   6  -4 60261.6 2313.76   3
   0   6  -3 28786.2 1101.25   0
   0   6  -3 30084.3 1632.96   3
   0   6  -2 9627.51 1017.20   3
   0   6  -2 8250.72 684.507   0
   0   6  -1 14649.9 824.327   0
   0   6  -1 12624.3 1114.74   3
   0   6   0 31862.4 1119.74   0
   0  -6  -1 48765.7 1350.49   4
   0   6   1 48288.5 1345.07   0
   0  -6  -2 201685. 2662.04   4
   0   6   2 198393. 2635.75   0
   0  -6  -2 195175. 2215.93   1
   0  -6  -3 215122. 2389.55   1
   0  -6  -3 219505. 2864.57   4
   0   6   3 217472. 2836.84   0
   0   6   4 127828. 1417.37   2
   0  -6  -4 116563. 1873.29   1
   0  -6  -5 3486.01 586.906   1
   0   6   5 4269.35 298.653   2
   0  -6  -6 14041.7 920.587   1
   0   6   6 14869.0 452.387   2
   0   6   7 16551.7 975.767   5
   0  -6  -7 16520.3 1079.84   1
   0  -6  -8 57941.0 1061.49   2
   0  -6  -8 53290.7 1834.56   1
   0   6   8 56255.5 1596.21   5
   0   6   9 56988.5 1591.01   5
   0  -6  -9 56455.7 2072.24   1
   0  -6  -9 60329.9 1260.50   2
   0  -6 -10 31683.5 1878.71   1
   0   6  10 36969.6 1321.76   5
   0  -6 -11 10940.2 1437.82   1
   0  -6 -12 12707.5 1654.92   1
   0  -6 -13 18658.4 2233.10   1
   0   7  -5 4361.57 1271.07   3
   0  -7   5 3452.36 1167.95   6
   0   7  -4 187.048 985.980   3
   0  -7   4 99.5903 890.455   6
   0   7  -3 31847.1 1786.45   3
   0   7  -2 100407. 2059.70   0
   0   7  -2 105700. 2853.78   3
   0   7  -1 51524.3 1968.08   3
   0   7  -1 51437.5 1499.91   0
   0   7   0 69137.7 1715.61   0
   0   7   0 66407.3 2079.46   3
   0  -7  -1 126155. 2291.49   4
   0   7   1 122715. 2263.85   0
   0  -7  -2 26523.9 1189.15   4
   0   7   2 26550.9 1157.65   0
   0  -7  -2 26977.6 962.753   1
   0  -7  -3 19425.0 1121.37   4
   0   7   3 18488.6 1039.38   0
   0  -7  -3 19214.7 857.959   1
   0  -7  -4 109450. 1909.47   1
   0   7   4 112531. 1542.58   2
   0  -7  -5 55632.5 1491.30   1
   0  -7  -6 51350.9 1550.71   1
   0   7   7 123048. 2506.22   5
   0  -7  -7 121935. 2494.36   1
   0  -7  -8 52980.0 1863.50   1
   0   7   8 52988.9 1705.28   5
   0  -7  -9 2275.94 904.972   1
   0   7   9 2375.98 648.763   5
   0   7  10 888.925 559.030   5
   0  -7 -10 149.890 1002.01   1
   0  -7 -11-193.628 989.450   1
   0  -7 -12 9726.32 1556.11   1
   0  -7 -13 50058.7 2886.82   1
   0  -8   4 60188.5 2591.92   6
   0   8  -3 36013.6 2105.58   3
   0   8  -2 8279.23 1259.00   3
   0   8  -1 146.173 556.069   0
   0   8  -1-6.57967 952.278   3
   0   8   0 578.029 804.241   3
   0   8   0 1038.98 569.681   0
   0   8   1 30952.1 1609.44   3
   0   8   1 29595.0 1305.06   0
   0   8   2 83338.3 2072.78   0
   0  -8  -2 86954.0 2104.42   4
   0  -8  -2 79540.5 1682.74   1
   0  -8  -3 53763.9 1419.54   1
   0   8   3 57915.2 1799.18   0
   0  -8  -3 52864.0 1723.37   4
   0  -8  -4 69981.8 1990.49   4
   0  -8  -4 64464.3 1567.90   1
   0  -8  -5 52073.3 1500.45   1
   0  -8  -5 55862.5 1900.09   4
   0  -8  -6 19525.9 1069.23   1
   0  -8  -7 1015.77 660.444   1
   0   8   7 625.767 719.405   5
   0   8   8 44973.8 1726.16   5
   0  -8  -8 43994.2 1743.82   1
   0  -8  -9 33737.1 1679.95   1
   0   8   9 36286.2 1563.29   5
   0  -8 -10 25902.8 1691.70   1
   0   8  10 25982.4 1390.34   5
   0  -8 -11 31941.7 2013.99   1
   0  -8 -12 25117.0 2111.01   1
   0   9  -2 9815.64 1433.60   3
   0   9  -1 63125.3 2599.07   3
   0   9   0 100063. 2414.49   0
   0   9   0 102294. 3100.44   3
   0   9   1 33132.0 1486.37   0
   0   9   1 33993.3 1864.02   3
   0   9   2 10974.0 993.402   0
   0   9   2 10534.2 1143.64   3
   0   9   3 3657.59 874.033   3
   0   9   3 2611.55 703.520   0
   0  -9  -3 4009.31 860.624   4
   0  -9  -4 13177.9 1143.77   4
   0  -9  -4 12520.2 861.174   1
   0  -9  -5 32599.5 1302.49   1
   0  -9  -5 33711.8 1592.96   4
   0  -9  -6 54815.4 1701.73   1
   0  -9  -6 55619.2 2088.09   4
   0   9   7 41058.7 1822.47   5
   0  -9  -7 37779.6 1531.53   1
   0  -9  -8 13478.3 1168.11   1
   0   9   8 15403.7 1235.05   5
   0  -9  -9 35279.5 1768.91   1
   0   9   9 38462.7 1749.15   5
   0  -9 -10 18113.2 1496.26   1
   0   9  10 18446.0 1348.71   5
   0  -9 -11 3751.26 1255.89   1
   0   9  11 3524.66 876.481   5
   0  -9 -12 15679.1 1799.44   1
   0  10   0 740.638 1111.94   3
   0  10   1 8556.70 1377.38   3
   0  10   2 14695.6 1472.44   3
   0  10   2 12782.8 1134.76   0
   0 -10  -3 31357.4 1612.11   4
   0  10   3 35138.8 1890.33   3
   0  10   4 126878. 3125.39   3
   0 -10  -4 117995. 2898.26   4
   0  10   5 64500.5 2197.40   3
   0 -10  -5 63500.9 2273.41   4
   0 -10  -6 2198.95 937.515   4
   0  10   6 2674.36 764.701   3
   0  10   7 666.336 860.995   5
   0 -10  -7-157.497 790.494   4
   0 -10  -8 1233.67 999.101   4
   0  10   8 424.934 833.813   5
   0  10   9 17085.5 1437.87   5
   0 -10  -9 14271.3 1349.17   1
   0  10  10 51466.4 2181.10   5
   0 -10 -10 43780.3 2108.68   1
   0  10  11 20764.8 1516.62   5
   0 -10 -11 19237.9 1743.61   1
   0 -10 -12 5949.11 1445.87   1
   0  11   2 44642.0 2376.17   3
   0  11   3 17117.3 1555.89   3
   0  11   4 840.822 872.296   3
   0 -11  -4 359.662 926.911   4
   0 -11  -5 6510.24 1172.81   4
   0  11   5 9738.36 1169.08   3
   0  11   6 23275.1 1766.61   5
   0 -11  -6 19988.7 1576.89   4
   0 -11  -7 30272.3 1854.05   4
   0  11   7 31191.4 1977.35   5
   0 -11  -8 37261.4 2118.88   4
   0  11   8 36741.3 2031.01   5
   0  11   9 25805.9 1752.32   5
   0  11  10 2925.23 1041.36   5
   1 -11  -6 2513.80 1151.21   4
   1 -11  -5-245.239 904.335   4
  -1  11   4 8919.75 1303.41   3
  -1  11   3 33658.0 2048.94   3
  -1  10  10 21506.5 1572.06   5
  -1  10   9 426.965 914.123   5
   1 -10  -9 305.159 1154.49   4
  -1  10   8 11778.2 1264.95   5
   1 -10  -8 11037.0 1333.08   4
   1 -10  -7 14027.1 1459.25   4
   1 -10  -6 35136.4 1859.81   4
   1 -10  -5 55384.1 2224.80   4
  -1  10   4 50425.8 2097.69   0
   1 -10  -4 48704.8 2051.10   4
  -1  10   3 12227.7 1208.48   0
  -1  10   2 6.36502 751.667   0
  -1  10   2 650.256 860.721   3
  -1  10   1 496.093 1006.60   3
  -1  10   1 29.4749 767.040   0
   1  -9 -12 4205.60 1415.73   1
   1  -9 -11 6360.87 1339.92   1
   1  -9 -10 40851.8 2016.47   1
  -1   9  10 41672.8 1872.53   5
   1  -9  -9 32366.4 1694.87   1
  -1   9   9 33150.7 1669.18   5
   1  -9  -8 29937.8 1809.59   4
   1  -9  -8 26444.3 1405.44   1
   1  -9  -7 36684.5 1862.29   4
   1  -9  -6 17585.1 1398.26   4
   1  -9  -5 7741.53 1114.80   4
  -1   9   4 2534.35 811.298   0
   1  -9  -4 1870.19 884.184   4
  -1   9   3 19228.5 1297.93   0
   1  -9  -3 16838.8 1258.40   4
  -1   9   2 18024.5 1270.13   0
  -1   9   1 71684.9 2217.58   0
  -1   9   0 78533.6 2824.62   3
  -1   9   0 73362.4 2243.72   0
  -1   9  -1 25864.5 1820.64   3
   1  -8 -12 43253.0 2494.49   1
   1  -8 -11 34452.4 2111.30   1
  -1   8  10 11757.3 1059.28   5
   1  -8 -10 8885.37 1252.27   1
   1  -8  -9 1174.83 887.880   1
  -1   8   9 596.188 657.866   5
   1  -8  -8 1691.86 785.133   1
   1  -8  -7 4500.57 788.751   1
   1  -8  -6 60114.1 1665.52   1
   1  -8  -6 60004.1 2086.96   4
  -1   8   5 26121.0 1370.17   0
   1  -8  -5 26884.8 1437.91   4
   1  -8  -5 27826.5 1091.32   1
  -1   8   4 12087.7 1040.51   0
   1  -8  -4 10669.2 1015.67   4
   1  -8  -4 11452.9 727.554   1
   1  -8  -3 81626.6 2196.23   4
  -1   8   3 78964.4 2151.35   0
  -1   8   2 108908. 2471.25   0
  -1   8   1 17418.4 1127.63   0
  -1   8   0 8111.39 916.071   0
  -1   8  -1 21741.5 1272.92   0
  -1   8  -1 23968.5 1694.59   3
  -1   8  -2 35583.7 2017.69   3
  -1   8  -3 61411.8 2628.39   3
   1  -7 -12-522.870 1345.88   1
   1  -7 -11 1060.70 1121.70   1
  -1   7  10 6021.51 776.720   5
   1  -7 -10 3198.06 1083.88   1
  -1   7   9 33246.6 1402.62   5
   1  -7  -9 32585.1 1691.73   1
  -1   7   8 79666.5 2067.18   5
   1  -7  -8 76832.0 2151.21   1
   1  -7  -7 74630.2 1955.00   1
   1  -7  -6 30484.8 1229.98   1
  -1   7   5 15637.9 1103.08   0
   1  -7  -5 15404.6 854.961   1
   1  -7  -5 14056.1 1050.69   4
   1  -7  -4 779.139 645.777   4
  -1   7   4 783.770 636.941   0
   1  -7  -4 1208.20 464.886   1
   1  -7  -3 240.065 613.190   4
   1  -7  -3 803.785 393.090   1
  -1   7   3 65.4284 556.995   0
   1  -7  -2 19154.6 1112.41   4
   1  -7  -2 21062.0 794.473   1
  -1   7   2 17781.2 1065.26   0
  -1   7   1 149675. 2660.05   0
  -1   7   0 91165.0 2107.50   0
  -1   7  -1 61497.1 1789.68   0
  -1   7  -2 68530.8 2435.68   3
  -1   7  -2 64555.4 1850.82   0
  -1   7  -3 3231.46 1034.11   3
  -1   7  -4 17286.3 1601.63   3
   1  -7   4 13992.2 1383.48   6
  -1   7  -5 36430.4 2239.93   3
   1  -7   5 28347.6 1987.35   6
   1  -6 -13 19386.9 2143.13   1
   1  -6 -12 24068.8 1989.77   1
   1  -6 -11 28032.7 2001.68   1
   1  -6 -10 50950.5 2239.06   1
   1  -6  -9 29735.4 1031.70   2
  -1   6   9 28140.5 1178.71   5
   1  -6  -8 4297.72 491.518   2
  -1   6   8 4051.53 638.298   5
   1  -6  -8 5037.36 950.566   1
   1  -6  -7 663.468 698.254   1
   1  -6  -6 2291.34 633.553   1
  -1   6   6 422.700 304.350   2
   1  -6  -5 28122.5 1034.46   1
  -1   6   5 28235.0 817.418   2
   1  -6  -4 208265. 3013.67   4
  -1   6   4 222729. 3072.13   0
  -1   6   4 229840. 2289.49   2
   1  -6  -4 215541. 2385.75   1
   1  -6  -3 262381. 3293.26   4
  -1   6   3 262894. 3246.39   0
   1  -6  -3 270210. 2449.07   1
   1  -6  -2 100968. 1466.62   1
  -1   6   2 96119.3 1997.41   0
   1  -6  -2 100975. 2060.22   4
   1  -6  -1 43446.2 1393.88   4
  -1   6   1 42136.5 1375.50   0
  -1   6   0 5579.73 698.822   0
  -1   6  -1 25609.1 1132.15   0
  -1   6  -2 111872. 2211.69   0
  -1   6  -3 79277.6 2527.57   3
  -1   6  -3 73945.7 1880.83   0
  -1   6  -4 27562.8 1753.14   3
   1  -6   4 30033.4 1702.10   6
  -1   6  -4 30220.9 1319.96   0
   1  -6   5 26703.8 1719.66   6
  -1   6  -5 30463.3 1871.12   3
  -1   6  -6 24225.1 1819.44   3
   1  -6   6 26120.0 1830.30   6
   1  -5 -12 14944.0 1734.51   1
   1  -5 -11 17396.7 1745.26   1
   1  -5 -10 8232.86 1312.67   1
   1  -5 -10 9337.45 807.883   2
   1  -5  -9 23578.4 1592.84   1
   1  -5  -9 26525.1 1058.38   2
  -1   5   9 25765.8 1010.40   5
   1  -5  -8 42476.5 1745.40   1
   1  -5  -8 46413.6 1224.90   2
  -1   5   8 44204.5 1278.45   5
  -1   5   7 67032.8 1548.65   5
  -1   5   7 64270.5 1224.57   3
   1  -5  -7 69185.4 1322.10   2
   1  -5  -7 64292.8 1867.48   1
  -1   5   6 108786. 1485.59   2
   1  -5  -6 104970. 2054.63   1
   1  -5  -6 110875. 1526.32   2
  -1   5   5 282509. 2248.13   2
   1  -5  -5 267445. 2883.80   1
   1  -5  -4 46803.6 1117.31   1
  -1   5   4 49191.3 1011.31   2
  -1   5   3 21724.9 967.198   0
   1  -5  -3 19784.3 679.238   1
  -1   5   3 21499.7 735.723   2
   1  -5  -3 19393.9 984.100   4
   1  -5  -2 28178.4 1088.07   4
   1  -5  -2 27878.7 733.179   1
  -1   5   2 27481.0 1046.85   0
   1  -5  -1 35239.1 1169.27   4
  -1   5   1 34480.3 1133.80   0
  -1   5   0 154110. 2269.83   0
  -1   5  -1 303059. 3206.55   0
   1  -5   1 302488. 2813.86   1
  -1   5  -2 47831.7 1372.47   0
  -1   5  -3 5533.21 656.759   0
  -1   5  -3 4747.73 861.856   3
  -1   5  -4 20088.5 1030.70   0
  -1   5  -4 22269.6 1462.01   3
   1  -5   4 18808.8 1309.19   6
  -1   5  -5 3397.26 984.166   3
   1  -5   5 2613.62 941.577   6
  -1   5  -5 2629.17 658.455   0
  -1   5  -6 33007.9 1904.77   3
   1  -5   6 29861.1 1786.21   6
  -1   5  -7 58397.8 2552.26   3
   1  -5   7 54414.7 2492.90   6
  -1   5  -8 31966.0 2158.82   3
  -1   4  12 16232.0 1346.36   6
   1  -4 -12 15484.0 1223.21   2
   1  -4 -12 15909.9 1870.36   1
  -1   4  11 83317.3 2494.55   6
   1  -4 -11 77165.1 2993.31   1
   1  -4 -11 80879.9 2170.75   2
  -1   4  10 111600. 2658.87   6
   1  -4 -10 110110. 2309.42   2
   1  -4  -9 37241.5 1305.46   2
  -1   4   9 38070.5 1010.08   5
   1  -4  -8 12620.5 1257.33   1
   1  -4  -8 12773.2 789.771   2
  -1   4   8 14392.1 691.775   5
  -1   4   7 15458.5 726.573   5
  -1   4   7 14904.7 610.988   3
   1  -4  -7 16480.6 756.316   2
   1  -4  -7 15775.0 1188.55   1
  -1   4   6 2082.23 346.151   3
   1  -4  -6 693.099 339.763   2
  -1   4   6 519.590 327.973   2
   1  -4  -6 929.323 655.970   1
   1  -4  -5 82234.1 1245.06   2
  -1   4   5 84275.1 1236.83   2
   1  -4  -5 80758.3 1616.45   1
   1  -4  -4 115042. 1693.38   1
  -1   4   4 112766. 1878.90   0
  -1   4   4 122181. 1400.69   2
  -1   4   4 122961. 1612.23   1
  -1   4   3 182038. 1742.74   2
  -1   4   3 180327. 1683.18   1
  -1   4   2 304557. 2852.00   0
   1  -4  -2 310117. 2070.38   1
   1  -4  -2 308034. 2911.64   4
   1  -4  -1 185202. 2230.31   4
  -1   4   1 181351. 2186.67   0
  -1   4   0 1094.08 439.581   0
  -1   4  -1 12271.3 703.446   0
   1  -4   1 13923.9 650.533   1
  -1   4  -2 32570.0 1068.28   0
  -1   4  -3 31782.4 1109.83   0
  -1   4  -4 32158.8 1528.30   3
  -1   4  -4 30815.0 1141.25   0
   1  -4   4 28365.9 1443.39   6
  -1   4  -5 80540.0 1835.55   0
   1  -4   5 77934.8 2311.78   6
   1  -4   6 81863.6 2559.76   6
  -1   4  -6 80825.0 1931.20   0
  -1   4  -7 18111.7 1485.67   3
   1  -4   7 18262.2 1447.34   6
  -1   4  -8 6016.64 1161.27   3
   1  -4   8 7064.52 1324.13   6
  -1   4  -9 1412.67 1046.99   3
  -1   3  13 36945.9 2056.16   6
   1  -3 -13 34987.2 1878.78   2
   1  -3 -12 30290.7 1655.15   2
  -1   3  12 34285.0 1826.05   6
   1  -3 -12 33150.3 2290.90   1
   1  -3 -11 9374.88 1017.91   2
  -1   3  11 9933.12 1118.32   6
   1  -3 -11 10821.5 1591.35   1
   1  -3 -10 2712.00 1253.39   1
  -1   3  10 4222.88 841.667   6
   1  -3 -10 3499.52 731.595   2
   1  -3  -9 1198.90 574.472   2
   1  -3  -9 1475.10 1135.59   1
  -1   3   9 1254.34 613.344   6
   1  -3  -8 93710.0 2583.83   1
   1  -3  -8 101325. 1976.32   2
  -1   3   8 100087. 2185.53   6
  -1   3   8 94061.1 1487.00   3
  -1   3   8 99648.6 1338.83   5
  -1   3   7 234741. 3023.84   6
  -1   3   7 237666. 2155.87   3
  -1   3   7 234223. 2094.48   5
   1  -3  -7 235986. 2680.45   2
   1  -3  -7 229411. 3519.63   1
  -1   3   6 213616. 2030.27   5
  -1   3   6 218487. 1971.90   3
  -1   3   6 210894. 2645.38   6
   1  -3  -6 216596. 2309.76   2
   1  -3  -5 147524. 1707.12   2
  -1   3   5 149425. 1704.05   2
  -1   3   5 152529. 1584.68   3
   1  -3  -4 5997.00 547.550   1
  -1   3   4 6402.90 397.857   2
   1  -3  -4 6130.33 396.173   2
  -1   3   3 29138.6 667.787   2
  -1   3   3 25424.5 854.158   0
  -1   3   3 27422.6 691.412   1
   1  -3  -3 27831.7 657.749   2
   1  -3  -3 26597.8 757.833   1
   1  -3  -2 1385.90 455.512   0
  -1   3   2 1396.02 439.191   0
  -1   3   2 1729.89 309.386   2
   1  -3  -2 1103.68 443.826   4
   1  -3  -2 1203.59 261.753   1
  -1   3   1 171596. 1885.20   0
   1  -3  -1 173979. 1927.23   4
  -1   3   0 139147. 1749.65   4
   1  -3   0 140576. 1728.80   0
   1  -3   1 151903. 1841.40   0
  -1   3  -1 133211. 1752.98   0
  -1   3  -1 153383. 1884.71   4
   1  -3   1 140341. 1507.33   1
   1  -3   2 167716. 2005.65   1
  -1   3  -2 160049. 1990.47   0
  -1   3  -3 268454. 2728.68   0
  -1   3  -4 33771.4 1359.94   3
  -1   3  -4 33317.2 1101.95   0
   1  -3   4 33848.2 1391.93   6
   1  -3   5 22730.5 1337.73   6
  -1   3  -5 25468.8 1317.81   3
  -1   3  -5 22382.5 1012.01   0
  -1   3  -6 4448.13 887.267   3
  -1   3  -6 4186.89 636.201   0
   1  -3   6 3703.41 872.424   6
  -1   3  -7 17698.3 1031.35   0
   1  -3   7 17727.2 1411.41   6
  -1   3  -7 18057.2 1298.19   3
   1  -3   8 44512.8 2124.41   6
  -1   3  -8 48012.0 2050.25   3
  -1   3  -9 42854.4 2054.86   3
   1  -3   9 41678.4 2201.86   6
  -1   3 -10 30349.8 1954.04   3
   1  -2 -13 1969.76 1059.12   2
  -1   2  13 3030.05 1089.42   6
   1  -2 -12 12867.2 1289.26   2
  -1   2  12 13760.5 1308.13   6
   1  -2 -12 14004.2 1803.70   1
  -1   2  11 20253.8 1428.90   6
   1  -2 -11 18579.6 1716.01   1
   1  -2 -11 19718.2 1395.85   2
   1  -2 -10 52619.7 2309.69   1
  -1   2  10 57767.0 1994.09   6
   1  -2 -10 57385.0 1949.39   2
   1  -2 -10 59383.5 1570.86   3
   1  -2  -9 108607. 1932.39   3
   1  -2  -9 100892. 2924.45   1
   1  -2  -9 101054. 2293.35   2
  -1   2   9 104656. 2454.61   6
   1  -2  -8 82179.9 2513.67   1
  -1   2   8 87660.3 2070.61   6
   1  -2  -8 84748.4 1947.44   2
   1  -2  -8 83475.2 1590.92   3
   1  -2  -7 8812.59 1182.47   1
  -1   2   7 8049.95 554.440   3
   1  -2  -7 8580.29 584.000   3
  -1   2   7 8363.12 343.227   5
  -1   2   7 8579.73 737.390   6
   1  -2  -7 8445.01 710.734   2
  -1   2   6 3038.09 280.909   5
   1  -2  -6 3744.84 520.871   2
  -1   2   6 3600.26 396.724   3
   1  -2  -6 4323.84 432.353   3
  -1   2   6 3321.15 545.096   6
   1  -2  -6 2520.53 775.920   1
  -1   2   5 3348.88 468.777   6
   1  -2  -5 3897.04 447.329   2
  -1   2   5 3829.76 304.766   5
   1  -2  -5 3981.42 740.458   1
  -1   2   5 3457.85 359.294   3
  -1   2   4 13589.3 671.687   1
   1  -2  -4 12817.4 654.121   0
  -1   2   4 12129.2 476.550   3
   1  -2  -4 13258.8 782.791   1
   1  -2  -4 13542.6 639.579   6
  -1   2   4 12574.4 542.662   2
  -1   2   4 12505.5 603.611   6
   1  -2  -4 11924.0 534.538   2
   1  -2  -3 282962. 1951.19   2
  -1   2   3 279469. 2265.92   0
  -1   2   3 287662. 1908.15   2
   1  -2  -3 274265. 2249.70   1
   1  -2  -3 294719. 2272.81   6
  -1   2   3 294004. 2162.82   1
   1  -2  -3 306468. 2376.68   0
  -1   2   2 447022. 8353.81   1
   1  -2  -2 428178. 8609.50   1
  -1   2   2 421146. 10291.7   0
  -1   2   2 445674. 8851.65   2
   1  -2  -2 435399. 8724.10   2
   1  -2  -1 114532. 1334.17   0
  -1   2   1 105921. 1288.01   0
   1  -2  -1 108477. 772.338   1
   1  -2  -1 111192. 1338.20   4
   1  -2   0 205213. 1796.39   0
  -1   2   0 205089. 1820.15   4
   1  -2   1 215521. 1628.40   1
  -1   2  -1 212988. 1923.42   0
  -1   2  -2 455.638 342.736   0
   1  -2   2 464.552 378.365   1
   1  -2   3 94551.2 1612.08   1
  -1   2  -3 90762.9 1477.00   0
   1  -2   3 92164.3 1816.09   6
   1  -2   4 161400. 2586.78   6
  -1   2  -4 160808. 2131.42   0
  -1   2  -5 122640. 2027.02   0
  -1   2  -5 124214. 2326.03   1
   1  -2   5 124958. 2528.92   6
  -1   2  -6 100579. 2253.47   3
   1  -2   6 94942.1 2406.99   6
  -1   2  -7 61470.5 1681.72   0
   1  -2   7 64523.5 2168.54   6
   1  -2   8 21038.9 1490.25   6
  -1   2  -8 22362.4 1177.29   0
  -1   2  -8 25172.6 1427.43   3
  -1   2  -9 1418.42 779.366   3
   1  -2   9 498.779 941.248   6
  -1   2 -10 6844.33 1113.60   3
   1  -2  10 5323.82 1101.33   6
  -1   1  12 30056.7 1870.27   6
   1  -1 -12 31207.9 2197.15   1
   1  -1 -12 31061.7 1878.89   2
   1  -1 -11 24463.6 1977.19   1
   1  -1 -11 23864.3 1610.28   2
  -1   1  11 24420.9 1588.53   6
   1  -1 -10 5076.00 1110.81   1
   1  -1 -10 5851.50 760.467   3
   1  -1 -10 4828.15 918.858   2
  -1   1  10 6722.66 951.846   6
   1  -1  -9 1572.96 756.975   2
  -1   1   9 1490.64 730.239   6
   1  -1  -9 2090.18 584.002   3
   1  -1  -9 1077.26 1057.93   1
   1  -1  -8 63467.9 1531.45   3
  -1   1   8 66526.1 1902.53   6
   1  -1  -8 59286.2 2163.06   1
   1  -1  -8 63305.8 1846.47   2
   1  -1  -7 38346.2 1132.30   3
   1  -1  -7 36963.5 1316.83   2
  -1   1   7 38060.5 1361.53   6
   1  -1  -7 37993.6 1658.30   1
   1  -1  -6 49815.2 1367.46   2
  -1   1   6 49722.8 1134.35   3
  -1   1   6 51495.7 1407.34   6
   1  -1  -6 49062.1 1143.82   3
   1  -1  -5 209736. 2888.93   1
  -1   1   5 219693. 2070.96   3
   1  -1  -5 217951. 2107.88   3
  -1   1   5 219032. 2459.17   6
   1  -1  -5 212135. 2387.69   2
  -1   1   4 236614. 1197.64   5
  -1   1   4 249948. 1958.35   3
   1  -1  -4 232675. 2694.64   1
   1  -1  -4 242709. 1992.97   3
  -1   1   4 231143. 2207.05   6
  -1   1   4 262451. 2594.90   1
   1  -1  -4 237133. 2210.96   2
   1  -1  -4 257187. 2368.58   6
   1  -1  -4 250071. 2137.30   0
   1  -1  -3 68647.5 1028.20   0
   1  -1  -3 65883.0 1059.68   6
   1  -1  -3 64707.3 1301.98   1
  -1   1   3 67930.9 1205.85   1
  -1   1   3 66978.4 951.998   3
  -1   1   3 66211.8 1004.76   6
   1  -1  -3 67380.2 955.786   3
   1  -1  -3 66464.8 1026.50   2
  -1   1   3 69697.8 1049.47   2
  -1   1   2 66192.0 848.361   3
   1  -1  -2 67922.8 864.642   2
  -1   1   2 67538.2 867.422   2
  -1   1   2 66317.8 898.036   0
   1  -1  -2 68465.8 851.730   6
  -1   1   2 68089.3 940.321   1
   1  -1  -2 68440.4 912.072   0
   1  -1  -2 63707.3 974.763   1
   1  -1  -1 52487.0 748.145   0
  -1   1   1 51807.0 690.273   2
   1  -1  -1 52381.2 746.885   4
   1  -1  -1 53005.3 565.322   1
  -1   1   1 52435.7 746.827   0
   1  -1  -1 51392.9 677.060   2
  -1   1   1 54530.5 534.776   1
   1  -1   0 12944.5 419.208   0
  -1   1   0 13173.6 453.337   4
  -1   1   0 13142.2 439.079   0
  -1   1  -1 560711. 8657.81   1
  -1   1  -1 567886. 10611.8   0
   1  -1   1 541075. 8520.34   1
  -1   1  -2 212491. 1897.70   1
  -1   1  -2 220763. 1911.53   0
   1  -1   2 213477. 2122.87   6
   1  -1   2 222260. 1840.14   1
  -1   1  -3 183577. 2133.92   1
   1  -1   3 179013. 2242.22   6
  -1   1  -4 131154. 2106.92   1
   1  -1   4 134196. 2179.55   6
  -1   1  -5 64753.0 1496.21   3
   1  -1   5 66937.8 1763.84   6
   1  -1   6 2021.36 720.895   6
  -1   1  -6 1795.06 584.404   3
  -1   1  -6 1871.49 851.801   1
  -1   1  -7 65857.7 2131.81   1
  -1   1  -7 67432.1 1789.90   3
   1  -1   7 68333.7 2098.04   6
  -1   1  -8 62401.8 2226.88   1
  -1   1  -8 62199.3 1846.57   3
   1  -1   8 59093.6 2084.78   6
  -1   1  -9 27210.8 1724.67   1
  -1   1  -9 29039.0 1441.98   3
   1  -1   9 29657.3 1685.88   6
  -1   1 -10 25174.4 1454.35   3
   1  -1  10 24191.6 1712.04   6
   1  -1  11 27793.5 1983.20   6
   1   0 -12 403.244 1066.29   2
  -1   0  11 23555.9 1661.29   6
   1   0 -11 20915.9 1645.06   2
  -1   0  10 72354.4 2390.85   6
   1   0 -10 71105.1 2718.90   1
   1   0 -10 68788.2 2394.73   2
   1   0 -10 70421.4 2045.66   3
   1   0  -9 70890.2 2519.28   1
   1   0  -9 75038.0 2278.93   2
   1   0  -9 73784.2 1929.86   3
  -1   0   9 73167.1 2230.66   6
   1   0  -8 45020.9 1951.55   1
  -1   0   8 47465.2 1733.22   6
   1   0  -8 43642.9 1646.58   2
   1   0  -8 46465.0 1471.80   3
   1   0  -7 46809.8 1853.04   1
   1   0  -7 46411.4 1369.13   3
   1   0  -7 47834.5 1585.39   2
  -1   0   7 48343.8 1599.09   6
   1   0  -6 68407.3 1892.43   1
   1   0  -6 71931.3 1529.45   3
  -1   0   6 71101.9 1711.18   6
   1   0  -6 69361.1 1693.97   2
   1   0  -5 2436.18 452.461   3
  -1   0   5 1497.44 447.660   6
   1   0  -5 1485.78 496.418   2
   1   0  -5 1780.35 676.276   1
   1   0  -4 76917.8 1611.19   1
   1   0  -4 86990.8 1506.43   6
   1   0  -4 80541.6 1321.21   3
  -1   0   4 78876.9 1397.89   6
   1   0  -4 80391.0 1453.27   2
  -1   0   4 85694.0 1337.45   3
  -1   0   3 106065. 1367.37   6
  -1   0   3 110835. 1337.03   3
   1   0  -3 106532. 1438.61   2
   1   0  -3 102844. 1625.47   1
   1   0  -3 110859. 1366.21   3
   1   0  -3 110266. 1435.38   6
  -1   0   3 113872. 1692.61   1
  -1   0   2 143969. 1379.79   2
  -1   0   2 140744. 1294.66   3
   1   0  -2 141171. 1483.76   1
  -1   0   2 142224. 1220.66   6
   1   0  -2 143043. 1262.48   6
   1   0  -2 141768. 1025.51   0
   1   0  -2 143413. 1313.73   3
   1   0  -2 137785. 1361.90   2
  -1   0   2 146598. 1543.01   1
  -1   0   1 449010. 5787.36   0
   1   0  -1 434113. 5847.54   4
   1   0  -1 456622. 7765.71   3
   1   0  -1 454310. 5936.08   0
   1   0  -1 444137. 7554.88   2
  -1   0   1 456030. 7724.76   1
  -1   0   1 443462. 7661.08   3
  -1   0   0 363038. 5992.94   2
  -1   0   0 396438. 6036.18   0
  -1   0  -1 122757. 1088.36   6
  -1   0  -1 119323. 866.942   1
   1   0   1 120169. 866.975   1
  -1   0  -2 40340.9 879.809   6
  -1   0  -2 40557.6 802.871   1
   1   0   2 42194.2 777.088   1
   1   0   2 39170.3 845.777   6
  -1   0  -3 63439.8 1290.70   6
   1   0   3 61721.4 1126.45   1
   1   0   3 56870.1 1179.56   6
  -1   0  -3 58780.9 1225.67   1
  -1   0  -4 48539.9 1330.43   1
   1   0   4 47057.6 1253.23   6
  -1   0  -4 47946.8 990.480   3
   1   0   5 80458.7 1773.21   6
  -1   0  -5 81263.7 1223.20   5
  -1   0  -5 77568.4 1859.20   1
  -1   0  -5 82874.0 1432.34   3
   1   0   6 240633. 3261.24   6
  -1   0  -6 243190. 2658.66   3
  -1   0  -6 250632. 2227.80   5
  -1   0  -6 241478. 3531.97   1
  -1   0  -7 90127.8 2464.46   1
  -1   0  -7 85133.3 1370.59   5
  -1   0  -7 94959.4 1842.22   3
   1   0   7 99151.8 2344.42   6
   1   0   8 10439.8 1055.24   6
  -1   0  -8 10878.6 835.594   3
  -1   0  -8 9945.83 1305.82   1
  -1   0  -9 11188.1 1374.44   1
  -1   0  -9 14424.2 971.492   3
   1   0   9 12891.9 1162.58   6
  -1   0 -10 9561.80 913.212   3
   1   0  10 9089.54 1239.19   6
  -1   0 -10 7801.09 1296.87   1
   1   0  11 3134.01 989.073   6
  -1   0 -11 3059.97 1181.44   1
   1   1 -11 25605.2 1888.47   2
  -1  -1  11 24958.9 1711.98   6
  -1  -1  10 5509.85 993.618   6
   1   1 -10 5472.32 1143.42   2
   1   1 -10 5779.63 915.916   3
   1   1  -9 11331.0 1199.56   2
   1   1  -9 11839.7 1078.34   3
  -1  -1   9 11086.9 1123.61   6
   1   1  -8 2142.31 690.425   3
  -1  -1   8 1032.16 682.930   6
   1   1  -8 1291.53 765.952   2
  -1  -1   7 17898.0 1131.29   6
   1   1  -7 18265.4 1038.56   3
   1   1  -6 143929. 2743.49   1
   1   1  -6 142718. 2333.21   3
  -1  -1   6 142970. 2522.17   6
  -1  -1   5 92633.4 1873.24   6
   1   1  -5 94989.2 1763.61   3
   1   1  -5 90619.7 1980.92   1
  -1  -1   4 91684.5 1659.73   6
   1   1  -4 88346.8 1771.02   1
   1   1  -4 90159.7 1575.61   3
  -1  -1   3 496804. 3239.21   3
  -1  -1   3 489708. 3239.81   6
   1   1  -3 484033. 3204.68   3
  -1  -1   2 200874. 1962.01   1
   1   1  -2 182838. 1770.74   3
  -1  -1   2 194987. 1806.96   3
   1   1  -2 195190. 4189.99   5
  -1  -1   2 188907. 1687.93   6
   1   1  -1 21548.6 387.840   5
  -1  -1   1 22521.3 559.880   3
   1   1  -1 21610.1 571.041   3
   1   1  -1 21496.9 528.125   2
  -1  -1   0 82319.6 727.196   2
   1   1   0 80186.8 709.114   2
  -1  -1   0 79405.0 771.061   5
   1   1   0 80452.7 779.988   5
  -1  -1   0 79500.8 801.104   3
   1   1   0 81760.0 808.464   3
  -1  -1  -1 243449. 3924.24   2
  -1  -1  -1 259709. 5368.17   6
   1   1   1 246683. 5212.24   6
  -1  -1  -1 256581. 5957.39   5
  -1  -1  -1 265674. 5732.67   1
  -1  -1  -1 260214. 4166.96   3
   1   1   1 251165. 5888.61   5
  -1  -1  -2 200675. 1472.24   5
  -1  -1  -2 199875. 1562.05   1
  -1  -1  -2 203558. 1639.55   6
   1   1   2 207466. 1551.26   1
   1   1   2 200856. 1609.76   6
   1   1   3 735754. 12092.6   5
  -1  -1  -3 745835. 14745.1   1
  -1  -1  -3 767452. 15429.3   6
  -1  -1  -3 718843. 12044.2   5
   1   1   3 745100. 15056.9   6
   1   1   3 790146. 14652.7   1
  -1  -1  -4 239248. 2526.54   1
  -1  -1  -4 243590. 1645.85   3
   1   1   4 247678. 2550.35   6
  -1  -1  -4 250131. 1913.41   5
  -1  -1  -5 25305.1 689.464   5
  -1  -1  -5 25646.5 1135.82   1
  -1  -1  -5 26268.3 686.368   3
   1   1   5 26317.1 1037.40   6
  -1  -1  -6 6842.58 954.084   1
  -1  -1  -6 7257.11 458.173   5
   1   1   6 8804.19 798.377   6
  -1  -1  -6 7151.33 480.481   3
   1   1   7 267.751 659.424   6
  -1  -1  -7 512.497 398.813   3
  -1  -1  -7 553.683 989.515   1
  -1  -1  -7 26.0814 312.682   5
  -1  -1  -8 9605.58 686.813   3
  -1  -1  -8 9081.69 1302.31   1
   1   1   8 9572.01 922.989   6
  -1  -1  -9 88812.0 2787.84   1
  -1  -1  -9 96451.3 1882.15   3
   1   1   9 93548.6 2547.59   6
  -1  -1 -10 89168.4 2960.15   1
   1   1  10 93032.2 2731.07   6
  -1  -1 -11 27163.6 1986.27   1
   1   1  11 32707.7 1875.06   6
   1   1  12 13150.6 1412.02   6
  -1  -1 -12 10508.2 1302.81   2
  -1  -1 -12 13256.7 1792.77   1
  -1  -2  11 518.695 1070.48   6
   1   2 -10 1733.15 910.941   2
  -1  -2  10 1216.53 849.839   6
   1   2 -10 1090.63 835.181   3
   1   2  -9 31108.7 1800.04   2
  -1  -2   9 28711.8 1693.73   6
   1   2  -9 27338.1 1553.03   3
   1   2  -8 104983. 2555.89   3
  -1  -2   8 102181. 2658.63   6
   1   2  -7 148064. 2804.32   3
  -1  -2   7 148491. 2960.01   6
  -1  -2   6 39444.9 1533.20   6
   1   2  -6 44681.7 1515.17   3
  -1  -2   5 872.635 626.985   6
   1   2  -5 1689.46 573.162   3
  -1  -2   4 275.455 519.260   6
   1   2  -4 141.811 516.204   3
   1   2  -3 9172.83 653.583   3
   1   2  -3 9898.77 376.538   0
  -1  -2   3 10264.9 641.767   6
   1   2  -2 235470. 1273.62   0
   1   2  -2 231400. 2348.90   3
  -1  -2   1 206870. 1948.48   3
   1   2  -1 201052. 1937.47   3
   1   2  -1 203278. 4041.30   0
  -1  -2   0 7123.13 415.167   3
   1   2   0 6678.24 430.131   3
  -1  -2   0 7174.45 260.140   0
   1   2   1 303326. 1971.76   5
   1   2   1 303609. 6612.72   3
   1   2   1 316102. 4704.90   2
  -1  -2  -1 306140. 6599.24   3
  -1  -2  -2 916234. 14198.6   6
  -1  -2  -2 883263. 13880.8   5
  -1  -2  -2 918870. 14051.2   1
   1   2   2 881952. 13853.5   5
   1   2   3 92681.8 1293.21   1
  -1  -2  -3 88604.2 1190.10   5
   1   2   3 88885.6 1184.15   5
  -1  -2  -3 89096.1 1326.17   1
   1   2   3 86671.2 1279.51   6
  -1  -2  -3 88902.1 1342.14   6
  -1  -2  -4 98639.9 1291.51   5
   1   2   4 94804.2 1276.23   5
  -1  -2  -4 105612. 1677.69   6
   1   2   4 102826. 1581.32   1
  -1  -2  -4 102253. 1667.38   1
   1   2   4 93556.1 1540.01   6
  -1  -2  -5 228341. 2710.99   1
  -1  -2  -5 237013. 2060.72   5
   1   2   5 236230. 2066.09   5
  -1  -2  -5 232118. 1332.50   3
   1   2   5 235072. 2684.13   6
   1   2   6 126213. 1582.67   5
  -1  -2  -6 127254. 2374.89   1
  -1  -2  -6 128882. 1582.99   5
  -1  -2  -6 125664. 1244.39   3
   1   2   6 125672. 2216.38   6
   1   2   7 87918.0 2041.54   6
  -1  -2  -7 88352.5 1238.55   3
  -1  -2  -7 83254.4 1335.42   5
  -1  -2  -8 150901. 1800.83   5
  -1  -2  -8 156538. 3290.15   1
  -1  -2  -8 166677. 1893.59   3
   1   2   8 165061. 2974.86   6
  -1  -2  -9 49327.7 1183.31   3
   1   2   9 46032.9 1821.83   6
  -1  -2  -9 47305.5 2205.24   1
  -1  -2 -10-290.676 1165.33   1
   1   2  10 272.666 803.597   6
   1   2  11 4.62989 770.441   6
  -1  -2 -11 600.635 764.786   2
  -1  -2 -11-65.4438 1183.39   1
  -1  -2 -12 651.981 882.601   2
  -1  -2 -12 876.006 1303.06   1
   1   2  12 1414.28 967.482   6
  -1  -2 -13 19796.8 1686.98   2
  -1  -3  10 36537.8 2082.67   6
   1   3 -10 39062.3 2108.01   3
   1   3  -9 43926.9 2017.83   3
  -1  -3   9 37835.3 1965.00   6
   1   3  -8 496.347 772.861   3
  -1  -3   8 179.094 818.602   6
  -1  -3   7 11273.7 1153.93   6
   1   3  -7 11334.6 1125.11   3
   1   3  -6 36518.5 997.114   0
   1   3  -6 37725.0 1572.76   3
  -1  -3   6 36738.0 1616.41   6
   1   3  -5 61224.6 1139.26   0
   1   3  -5 63764.6 1816.62   3
  -1  -3   5 61966.5 1813.82   6
   1   3  -4 185900. 2824.40   3
  -1  -3   4 190189. 2826.84   6
   1   3  -4 182965. 1741.00   0
   1   3  -3 210133. 2779.58   3
   1   3  -3 204594. 1649.28   0
   1   3  -2 30812.7 613.087   0
   1   3  -2 31107.2 1049.15   3
   1   3  -2 32207.0 638.327   4
  -1  -3   1 76294.0 909.788   0
   1   3  -1 74644.4 1441.67   3
   1   3  -1 73607.0 882.378   0
   1   3   0 352.554 251.569   0
  -1  -3   0 515.762 266.463   4
   1   3   0 383.190 395.736   3
  -1  -3   0 408.893 260.427   0
   1   3   1 93682.0 1272.16   3
  -1  -3  -1 103503. 1188.93   0
  -1  -3  -2 81749.5 1200.31   1
   1   3   2 79157.6 999.295   3
   1   3   2 80133.2 1279.77   5
  -1  -3  -3 385911. 2856.73   6
   1   3   3 349112. 2615.38   5
   1   3   3 346212. 6235.42   3
  -1  -3  -3 355138. 2631.21   1
   1   3   3 373237. 2630.33   1
  -1  -3  -4 293725. 2699.24   1
   1   3   4 298687. 2484.45   5
   1   3   4 292421. 2674.69   6
  -1  -3  -4 299484. 5862.66   2
   1   3   5 150242. 1821.15   5
   1   3   5 148258. 2112.94   6
  -1  -3  -5 155947. 2240.94   1
  -1  -3  -5 158670. 1473.88   2
   1   3   6 45590.2 1069.66   5
   1   3   6 44529.7 1328.65   6
  -1  -3  -6 42511.4 1422.25   1
   1   3   7 6264.45 513.935   5
   1   3   7 5381.84 677.906   6
  -1  -3  -7 6177.12 951.579   1
  -1  -3  -8 7899.95 1043.11   1
  -1  -3  -8 8183.29 366.975   3
  -1  -3  -8 8281.24 693.975   2
   1   3   8 8724.25 583.371   5
   1   3   8 8861.05 893.148   6
  -1  -3  -9 65414.7 1038.32   3
   1   3   9 63832.1 2003.19   6
  -1  -3  -9 62903.3 2385.01   1
  -1  -3  -9 65231.0 1712.23   2
  -1  -3 -10 27831.3 1913.50   1
   1   3  10 25367.1 1461.25   6
  -1  -3 -10 29874.4 1356.09   2
  -1  -3 -11 27091.8 2059.36   1
   1   3  11 29469.8 1667.93   6
  -1  -3 -11 28956.7 1460.64   2
   1   3  12 44888.2 2115.37   6
  -1  -3 -12 44753.5 2614.65   1
  -1  -3 -12 46779.1 1946.82   2
   1   4  -9 23921.2 1747.67   3
  -1  -4   9 22384.6 1768.26   6
  -1  -4   8 40014.1 2009.92   6
   1   4  -8 41343.6 2050.43   3
  -1  -4   7 62473.3 2295.49   6
   1   4  -7 65190.1 2291.03   3
  -1  -4   6 88553.8 2496.63   6
   1   4  -6 97445.2 2589.85   3
  -1  -4   5 83530.3 2278.76   6
   1   4  -5 80887.8 2282.22   3
   1   4  -5 81878.4 1387.05   0
   1   4  -4 214.360 320.295   0
   1   4  -4 326.715 348.046   4
   1   4  -4 352.528 723.992   3
  -1  -4   4 370.093 604.039   6
   1   4  -3 45505.2 927.946   0
   1   4  -3 47341.9 961.498   4
   1   4  -2 3150.61 649.020   3
   1   4  -2 3554.46 355.040   0
   1   4  -1 71938.6 1637.77   3
   1   4  -1 74311.0 1096.20   0
  -1  -4   0 326206. 2302.15   4
   1   4   0 328642. 2317.57   0
   1   4   1 278840. 2600.91   3
   1   4   1 288340. 2312.89   0
   1   4   2 169057. 1813.04   3
  -1  -4  -2 193792. 1991.78   0
  -1  -4  -3 83325.0 1407.78   1
   1   4   3 81237.0 1495.06   5
   1   4   4 19228.1 798.405   5
  -1  -4  -4 17800.4 799.618   1
  -1  -4  -5 55512.6 643.293   2
  -1  -4  -5 57047.0 1391.07   1
   1   4   5 52367.2 540.734   3
   1   4   5 57013.8 1276.64   5
   1   4   6 274813. 2790.09   5
  -1  -4  -6 275544. 1945.29   2
  -1  -4  -6 276998. 3293.76   1
  -1  -4  -7 233102. 2183.82   2
   1   4   7 229649. 2594.24   5
  -1  -4  -7 224117. 3245.17   1
   1   4   7 220670. 3075.23   6
  -1  -4  -8 53450.6 1269.83   2
   1   4   8 53516.7 1721.24   6
   1   4   8 54687.4 1333.00   5
  -1  -4  -8 52295.4 1848.22   1
  -1  -4  -9 3298.07 1003.06   1
   1   4   9 5194.97 863.583   6
  -1  -4  -9 4435.13 629.346   2
   1   4   9 4369.67 531.029   5
  -1  -4 -10 25416.1 1155.06   2
   1   4  10 25385.5 1468.61   6
  -1  -4 -10 25270.4 1802.86   1
   1   4  11 5769.50 1010.18   6
  -1  -4 -11 4819.16 1264.17   1
  -1  -4 -11 5077.91 785.897   2
   1   4  12 6327.70 1119.38   6
  -1  -4 -12 7053.10 1443.81   1
   1   4  13 3678.69 1078.20   6
  -1  -5   8 6402.42 1168.17   6
   1   5  -8 6278.88 1221.58   3
  -1  -5   7 4039.90 1089.78   6
   1   5  -7 4094.60 1157.52   3
  -1  -5   6 26736.5 1605.87   6
   1   5  -6 29324.6 1719.60   3
   1   5  -5 36902.4 1750.09   3
  -1  -5   5 36966.3 1746.41   6
   1   5  -4 27711.1 888.749   0
   1   5  -4 29022.0 1463.32   3
  -1  -5   4 27626.9 1460.94   6
   1   5  -3 59128.0 1186.17   0
   1   5  -3 62185.1 1916.43   3
   1   5  -2 130465. 2579.45   3
   1   5  -2 129816. 1684.68   0
   1   5  -1 229762. 3167.19   3
   1   5  -1 226433. 2201.15   0
   1   5   0 58395.0 1170.40   0
   1   5   0 58546.3 1565.10   3
  -1  -5   0 59850.4 1182.77   4
  -1  -5  -1 17488.9 731.638   4
   1   5   1 18179.2 737.892   0
   1   5   1 18103.4 853.164   3
   1   5   2 132024. 1928.39   3
  -1  -5  -3 128983. 1859.99   1
  -1  -5  -4 120387. 1886.95   1
   1   5   4 123692. 2057.34   5
  -1  -5  -5 279066. 3048.33   1
   1   5   5 282211. 3055.52   5
  -1  -5  -6 70250.6 1739.66   1
   1   5   6 72818.4 1607.84   5
   1   5   6 70932.3 775.596   3
  -1  -5  -6 68984.9 695.054   2
  -1  -5  -7 325.713 243.627   2
   1   5   7 426.927 443.806   5
  -1  -5  -7 681.046 743.169   1
  -1  -5  -8 7623.16 513.513   2
   1   5   8 6516.12 655.736   5
  -1  -5  -8 5969.71 945.891   1
   1   5   9 1525.89 483.464   5
   1   5   9 1640.11 647.030   6
  -1  -5  -9 1527.83 430.376   2
  -1  -5  -9 1467.87 993.077   1
  -1  -5 -10 46933.5 1344.64   2
   1   5  10 46114.8 1842.25   6
   1   5  10 45471.0 1342.86   5
   1   5  11 67122.1 2319.31   6
  -1  -5 -11 61165.9 2653.61   1
   1   5  12 24253.6 1633.64   6
  -1  -5 -12 24259.8 2013.45   1
   1   5  13 11250.8 1353.88   6
  -1  -6   7 53729.3 2474.41   6
   1   6  -7 61591.2 2742.17   3
  -1  -6   6 60571.6 2433.76   6
   1   6  -6 69938.2 2709.17   3
  -1  -6   5 31427.1 1787.02   6
   1   6  -5 30611.8 1826.99   3
   1   6  -4 2941.27 959.476   3
   1   6  -3 7778.49 1095.80   3
   1   6  -3 9247.44 617.599   0
   1   6  -2 1504.76 416.445   0
   1   6  -2 1186.98 821.186   3
   1   6  -1 116714. 1807.42   0
   1   6  -1 116741. 2537.35   3
  -1  -6   0 65890.6 1410.45   4
   1   6   0 68328.6 1420.11   0
   1   6   1 88601.9 1975.56   3
   1   6   1 89311.3 1658.65   0
  -1  -6  -1 91656.8 1660.49   4
  -1  -6  -2 191583. 2441.68   4
   1   6   2 188945. 2444.09   0
   1   6   2 197001. 2713.15   3
  -1  -6  -3 105808. 1808.42   1
   1   6   3 105174. 1850.62   3
   1   6   4 2830.17 199.256   2
  -1  -6  -4 2566.31 543.112   1
   1   6   5 27147.5 1163.30   5
  -1  -6  -5 27512.4 1116.51   1
   1   6   6 17931.3 995.483   5
  -1  -6  -6 19199.6 1051.67   1
   1   6   7 20903.8 498.137   3
   1   6   7 20740.3 1045.21   5
   1   6   7 18925.4 472.594   3
  -1  -6  -7 20779.9 1158.84   1
  -1  -6  -8 60671.1 862.810   2
   1   6   8 60629.7 1674.13   5
  -1  -6  -8 58003.5 1962.79   1
   1   6   9 78734.1 1892.12   5
  -1  -6  -9 73431.7 2293.59   1
  -1  -6 -10 48674.7 2128.76   1
   1   6  10 51370.1 1579.86   5
  -1  -6 -11 3414.50 1153.07   1
  -1  -6 -12 2571.76 1325.61   1
  -1  -6 -13 1281.85 1565.45   1
  -1  -7   6 690.916 1105.34   6
  -1  -7   5-214.760 977.173   6
   1   7  -5-355.947 1001.87   3
   1   7  -4 39386.1 2092.58   3
   1   7  -3 115212. 3137.06   3
   1   7  -2 89367.7 1758.72   0
   1   7  -2 81194.8 2510.86   3
   1   7  -1 58670.6 2074.72   3
   1   7  -1 56050.8 1413.12   0
   1   7   0 19009.1 910.056   0
   1   7   0 19578.2 1243.12   3
   1   7   1 5706.96 639.728   0
  -1  -7  -1 4960.70 663.295   4
   1   7   1 6657.98 889.649   3
  -1  -7  -2 6026.21 727.776   4
   1   7   2 6247.45 798.749   3
   1   7   2 6189.06 664.806   0
  -1  -7  -3 85642.2 1893.93   4
  -1  -7  -3 79496.2 1686.68   1
   1   7   3 84176.6 1914.64   3
   1   7   4 123356. 2146.81   3
  -1  -7  -4 118294. 2111.75   1
   1   7   4 125437. 1325.15   2
   1   7   5 72428.4 1951.64   5
   1   7   5 75762.8 1561.47   3
  -1  -7  -5 72144.4 1749.73   1
  -1  -7  -6 29051.2 1277.85   1
   1   7   6 31044.6 945.621   3
   1   7   6 31976.0 1382.72   5
  -1  -7  -7 69977.7 1968.91   1
   1   7   7 70606.0 1937.66   5
   1   7   8 24668.5 1242.44   5
  -1  -7  -8 26385.3 1411.22   1
   1   7   9 7257.23 820.316   5
  -1  -7  -9 5538.84 1045.23   1
   1   7  10 5159.62 736.499   5
  -1  -7 -10 4557.11 1041.26   1
  -1  -7 -11 7736.11 1410.85   1
  -1  -7 -12 33040.7 2163.81   1
   1   8  -4 46955.0 2455.00   3
  -1  -8   4 44686.5 2281.64   6
   1   8  -3 5060.56 1058.30   3
   1   8  -2 1866.18 977.231   3
   1   8  -1 5722.84 965.467   3
   1   8   0 27876.4 1603.94   3
   1   8   0 27595.8 1177.39   0
   1   8   1 104065. 2648.99   3
  -1  -8  -1 98277.2 2061.21   4
   1   8   1 100793. 2123.39   0
  -1  -8  -2 61096.6 1695.40   4
   1   8   2 60119.1 1941.31   3
  -1  -8  -3 32483.9 1210.88   1
  -1  -8  -3 37218.6 1398.20   4
   1   8   3 35008.9 1461.33   3
  -1  -8  -4 44048.7 1590.49   4
   1   8   4 45942.9 1542.95   3
  -1  -8  -4 41750.5 1393.70   1
   1   8   5 23370.6 1289.76   5
  -1  -8  -5 22166.6 1117.00   1
   1   8   5 24915.9 1104.15   3
   1   8   6 1138.53 664.437   5
  -1  -8  -6 1729.19 645.404   1
   1   8   6 1939.20 490.117   3
   1   8   7 39125.1 1604.81   5
  -1  -8  -7 38846.8 1560.39   1
   1   8   8 85023.4 2298.44   5
  -1  -8  -8 78810.5 2246.53   1
   1   8   9 39843.1 1651.37   5
  -1  -8  -9 41779.9 1855.92   1
   1   8  10 57714.6 1960.00   5
  -1  -8 -10 52288.3 2174.06   1
  -1  -8 -11 33116.1 1974.85   1
   1   8  11 36919.6 1613.52   5
  -1  -8 -12 5480.84 1451.33   1
   1   9  -2 31393.1 2037.77   3
   1   9  -1 45031.7 2180.05   3
   1   9   0 36106.4 1928.77   3
   1   9   1 10024.8 1143.66   3
  -1  -9  -2 1888.21 711.043   4
  -1  -9  -2 2807.75 607.311   1
   1   9   2 2320.33 784.141   3
  -1  -9  -3 632.313 683.609   4
  -1  -9  -3 249.599 507.842   1
   1   9   3 132.346 658.827   3
  -1  -9  -4 207.159 729.420   4
  -1  -9  -4 201.119 528.059   1
   1   9   4 842.826 633.358   3
   1   9   5 64233.3 2173.74   5
  -1  -9  -5 63255.6 2025.39   4
  -1  -9  -5 66602.2 1844.51   1
   1   9   6 156443. 2658.64   3
   1   9   6 153562. 3290.24   5
  -1  -9  -7 51884.1 1836.95   1
   1   9   7 53232.5 2014.05   5
   1   9   8 13007.6 1194.20   5
  -1  -9  -8 10867.9 1118.01   1
   1   9   9 11146.3 1160.77   5
  -1  -9  -9 14222.5 1313.81   1
  -1  -9 -10-120.894 946.754   1
   1   9  10 95.2815 724.617   5
   1   9  11 29570.9 1630.04   5
  -1  -9 -11 26837.2 1872.64   1
  -1  -9 -12 23392.8 2021.99   1
   1  10   0 14740.3 1528.14   3
   1  10   1 27917.3 1868.16   3
   1  10   2 29426.8 1787.55   3
  -1 -10  -3 57927.8 1972.88   4
   1  10   3 64431.8 2346.37   3
  -1 -10  -4 43346.9 1822.53   4
  -1 -10  -4 45629.3 1599.23   1
   1  10   4 45122.2 1907.91   3
   1  10   4 46952.1 2067.94   5
  -1 -10  -5 9743.98 1082.95   4
   1  10   5 11008.6 1228.98   5
   1  10   5 10451.8 1050.58   3
  -1 -10  -5 9792.89 943.005   1
   1  10   6 2808.10 821.781   5
  -1 -10  -6 2444.31 758.668   1
  -1 -10  -6 2086.15 958.769   4
  -1 -10  -7 3133.82 802.944   1
   1  10   7 3256.95 963.429   5
   1  10   8 15865.5 1410.46   5
  -1 -10  -8 17436.1 1323.08   1
   1  10   9 40122.2 1941.36   5
  -1 -10  -9 37044.9 1874.43   1
   1  10  10 58681.3 2297.26   5
  -1 -10 -10 54649.9 2310.29   1
   1  10  11 21241.5 1574.73   5
  -1 -10 -11 20309.5 1764.47   1
  -1 -10 -12 1229.47 1215.65   1
   1  11   2 27263.1 1941.51   5
   1  11   2 26727.1 1924.26   3
  -1 -11  -3 3572.98 948.083   4
   1  11   3 1550.46 997.111   5
   1  11   3 2700.74 979.513   3
   1  11   4 15597.6 1567.62   5
  -1 -11  -4 14287.0 1309.98   4
   1  11   4 15614.0 1394.66   3
   1  11   5 44216.4 1989.87   3
  -1 -11  -5 44795.0 2007.73   4
   1  11   5 44165.3 2170.14   5
   1  11   6 39251.7 2116.62   5
  -1 -11  -6 36091.4 1877.41   4
   1  11   7 55758.1 2415.43   5
  -1 -11  -7 56800.5 2334.50   4
   1  11   8 43413.7 2192.26   5
  -1 -11  -8 41794.6 2152.20   4
   1  11   9 941.398 990.766   5
   1  11  10 3727.67 973.290   5
  -1 -11 -11 796.456 1099.54   1
   1  11  11 317.702 827.785   5
   1  12   4 25164.3 1840.21   3
  -1 -12  -5 10042.3 1337.85   4
  -1 -12  -6 14418.2 1492.06   4
  -2  10  10 2626.09 985.471   5
   2 -10  -8 21930.3 1821.90   4
   2 -10  -7 18877.5 1669.37   4
   2 -10  -6 32541.9 1888.31   4
   2 -10  -5 43780.8 2064.25   4
  -2  10   5 42196.1 2008.08   0
  -2  10   4 29479.7 1722.73   0
  -2  10   3 22.7189 873.020   0
  -2  10   2 5164.76 1046.52   0
  -2  10   1 3921.83 969.891   0
  -2   9  10 55315.7 2159.12   5
   2  -9 -10 56581.7 2494.24   4
   2  -9  -9 49624.3 2280.53   4
   2  -9  -8 20308.9 1607.95   4
   2  -9  -7 9359.95 1259.63   4
   2  -9  -6 1434.39 908.699   4
  -2   9   5 12186.0 1178.18   0
   2  -9  -5 15510.9 1288.25   4
   2  -9  -4 35760.7 1805.67   4
  -2   9   4 33005.0 1709.73   0
  -2   9   3 22226.1 1470.97   0
  -2   9   2 28433.9 1582.74   0
  -2   9   1 48179.8 1983.36   0
  -2   9   0 30000.2 1649.55   0
   2  -8 -12 48662.0 2631.60   1
   2  -8 -11 12467.7 1577.47   1
   2  -8 -10-476.379 1004.04   1
  -2   8  10 815.055 703.143   5
   2  -8  -9 521.886 829.194   4
   2  -8  -9 1240.68 892.482   1
   2  -8  -8 2326.14 826.637   1
   2  -8  -8 2112.45 963.793   4
   2  -8  -7 24276.0 1532.75   4
  -2   8   6 59927.7 2085.51   0
   2  -8  -6 60053.4 2166.69   4
  -2   8   5 53391.3 1980.37   0
   2  -8  -5 51648.5 1976.41   4
  -2   8   4 55626.5 1970.49   0
   2  -8  -4 56860.6 2033.35   4
   2  -8  -3 24964.2 1391.00   4
  -2   8   3 24484.8 1341.71   0
  -2   8   2 13736.8 1162.21   0
  -2   8   1 2455.61 785.928   0
  -2   8   0 65633.9 2109.48   0
  -2   8  -1 39627.8 1752.20   0
  -2   8  -2 21904.5 1697.37   3
  -2   8  -2 19024.4 1322.99   0
   2  -7 -12 6306.53 1537.16   1
   2  -7 -11 8972.89 1483.17   1
   2  -7 -10 20625.4 1620.70   1
  -2   7   9 60045.7 1844.57   5
   2  -7  -9 53513.1 2079.57   1
   2  -7  -8 64659.3 2051.94   1
   2  -7  -7 39695.9 1501.65   1
   2  -7  -7 43800.8 1776.28   4
  -2   7   6 947.557 704.495   0
   2  -7  -6 803.800 822.601   4
   2  -7  -6 1146.31 541.347   1
   2  -7  -5 2577.69 532.909   1
   2  -7  -5 2525.43 869.465   4
  -2   7   5 2894.44 763.278   0
   2  -7  -4 372.704 398.540   1
  -2   7   4 681.744 538.395   0
   2  -7  -4 160.009 770.101   4
   2  -7  -3 17126.8 1147.85   4
  -2   7   3 16828.2 1159.99   0
  -2   7   2 101432. 2369.54   0
  -2   7   1 68387.8 1979.59   0
  -2   7   0 45345.8 1664.21   0
  -2   7  -1 53442.9 1810.55   0
  -2   7  -2 13304.8 1078.50   0
  -2   7  -3 7997.80 1173.84   3
  -2   7  -3 6723.81 939.833   0
   2  -7   4 21330.1 1756.98   6
  -2   7  -4 24116.3 1857.85   3
   2  -6 -12 19121.2 1896.29   1
   2  -6 -11 18812.1 1746.08   1
   2  -6 -10 34798.5 2001.95   1
   2  -6  -9 10328.9 797.066   2
  -2   6   9 10468.7 833.692   5
   2  -6  -9 9759.68 1235.92   1
   2  -6  -8 3993.08 591.101   2
   2  -6  -8 3213.27 905.073   1
   2  -6  -7 46162.2 1633.20   1
   2  -6  -6 33726.3 1523.37   4
   2  -6  -6 30268.9 1210.48   1
   2  -6  -5 62546.5 1901.33   4
  -2   6   5 61984.7 1824.49   0
   2  -6  -5 61574.8 1414.10   1
  -2   6   4 206458. 3084.76   0
   2  -6  -4 212012. 2246.45   1
   2  -6  -3 69693.2 1896.78   4
   2  -6  -3 69473.7 1154.33   1
  -2   6   3 68139.1 1838.76   0
  -2   6   2 1406.66 660.172   0
   2  -6  -2 1767.82 623.995   4
   2  -6  -2 2099.98 306.151   1
   2  -6  -1 646.180 257.180   1
  -2   6   1 113.595 534.341   0
  -2   6   0 422.158 591.293   0
  -2   6  -1 13841.4 1002.73   0
  -2   6  -2 136521. 2650.68   0
  -2   6  -3 83821.7 2198.94   0
  -2   6  -4 26784.3 1700.71   3
  -2   6  -4 22227.5 1287.44   0
   2  -6   4 22603.4 1541.06   6
  -2   6  -5 13587.3 1432.38   3
   2  -6   5 13797.5 1430.70   6
  -2   6  -6 12168.4 1461.77   3
   2  -5 -12 4060.10 1450.72   1
   2  -5 -11 723.578 638.984   2
   2  -5 -11 15.3497 1181.90   1
   2  -5 -10 19173.6 1106.55   2
   2  -5 -10 15969.6 1570.60   1
   2  -5  -9 62553.6 1661.79   2
  -2   5   9 59596.0 1461.16   5
   2  -5  -8 76469.2 1706.08   2
   2  -5  -8 73280.1 2238.54   1
   2  -5  -7 86627.2 2174.41   1
   2  -5  -7 95739.6 1752.74   2
   2  -5  -6 89162.8 1946.85   1
   2  -5  -6 97631.5 1676.52   2
   2  -5  -5 38513.1 1437.23   4
  -2   5   5 37629.1 1345.33   0
   2  -5  -5 39850.3 1211.34   1
   2  -5  -4 7474.99 859.946   4
  -2   5   4 6888.91 768.536   0
   2  -5  -4 7163.92 566.586   1
   2  -5  -3 89284.5 1958.61   4
   2  -5  -3 87808.1 1242.86   1
  -2   5   3 84063.8 1857.46   0
   2  -5  -2 83816.8 1034.72   1
  -2   5   2 80496.1 1781.94   0
   2  -5  -1 81569.5 974.861   1
  -2   5   1 86281.4 1865.58   0
  -2   5   0 126358. 2273.27   0
   2  -5   0 133628. 1484.20   1
   2  -5   1 110696. 1638.25   1
  -2   5  -1 107732. 2149.40   0
  -2   5  -2 38211.6 1393.15   0
  -2   5  -3 2485.93 670.112   0
   2  -5   4 5443.04 1016.13   6
  -2   5  -4 4893.04 792.673   0
  -2   5  -5 27823.2 1388.41   0
   2  -5   5 26141.3 1688.98   6
  -2   5  -5 27846.7 1759.59   3
  -2   5  -6 76751.2 2735.55   3
   2  -5   6 66983.9 2619.42   6
  -2   5  -7 81005.5 2953.13   3
   2  -5   7 71872.9 2811.84   6
   2  -4 -12 21159.0 1985.05   1
   2  -4 -12 23534.8 1465.96   2
   2  -4 -11 63924.7 2011.90   2
   2  -4 -11 59127.9 2576.41   1
   2  -4 -10 44420.8 1605.49   2
   2  -4 -10 38032.4 1992.39   1
   2  -4  -9 12426.3 903.119   2
   2  -4  -9 12191.1 1331.28   1
   2  -4  -8 19676.0 990.273   2
   2  -4  -8 17482.4 1403.20   1
  -2   4   8 20026.9 796.873   5
   2  -4  -7 1606.82 823.329   1
   2  -4  -7 1730.96 506.506   2
   2  -4  -6 70683.4 1449.45   2
   2  -4  -6 65327.8 1755.51   1
   2  -4  -5 175835. 2411.90   1
   2  -4  -5 179533. 2114.38   2
  -2   4   5 171049. 2494.93   0
  -2   4   4 117971. 1656.80   2
  -2   4   4 108047. 1931.79   0
   2  -4  -4 108167. 2010.07   4
  -2   4   4 119656. 1528.55   1
   2  -4  -4 109659. 1638.38   1
  -2   4   3 33924.3 1139.71   0
  -2   4   3 35630.2 715.586   1
   2  -4  -3 33453.6 1146.03   4
   2  -4  -3 34309.1 789.784   1
   2  -4  -2 188707. 1386.69   1
   2  -4  -2 188215. 2495.98   4
  -2   4   2 183548. 2406.50   0
   2  -4  -1 80519.7 794.020   1
  -2   4   1 81751.1 1661.18   0
   2  -4   0 570.839 252.384   1
  -2   4   0 274.101 464.195   0
   2  -4   1 13219.4 598.354   1
  -2   4  -1 11936.7 809.187   0
   2  -4   2 46016.3 1121.27   1
  -2   4  -2 45452.6 1392.02   0
  -2   4  -3 74606.8 1804.16   0
  -2   4  -4 225195. 3157.86   0
   2  -4   4 236550. 3802.23   6
   2  -4   5 122291. 2963.57   6
  -2   4  -5 125175. 2956.41   3
  -2   4  -5 119635. 2455.12   0
   2  -4   6 3531.40 992.172   6
  -2   4  -6 2995.67 721.007   0
  -2   4  -6 2684.05 879.156   3
   2  -4   7 18.5109 952.195   6
  -2   4  -7-170.347 919.404   3
   2  -4   8 2219.08 1230.05   6
  -2   4  -8 3022.68 1026.20   3
  -2   4  -9 15940.4 1665.72   3
  -2   3  13 41958.6 2106.81   6
   2  -3 -13 39185.9 2015.61   2
   2  -3 -12 7930.13 1092.61   2
  -2   3  12 7602.62 1086.48   6
   2  -3 -12 10529.2 1547.53   1
  -2   3  11 407.864 744.144   6
   2  -3 -11 233.013 1202.60   1
   2  -3 -11 628.805 710.884   2
   2  -3 -10 6001.71 867.018   2
   2  -3 -10 6923.73 1154.75   1
  -2   3  10 5776.91 876.393   6
   2  -3  -9 28548.0 1285.28   2
  -2   3   9 27629.1 1327.51   6
   2  -3  -9 30801.7 1815.36   1
  -2   3   8 114219. 2272.63   6
  -2   3   8 112309. 1401.76   5
   2  -3  -8 107729. 2731.95   1
   2  -3  -8 115339. 2203.68   2
   2  -3  -7 212369. 2721.73   2
   2  -3  -7 203525. 3385.38   1
  -2   3   7 204710. 1996.26   5
   2  -3  -6 116249. 2362.03   1
   2  -3  -6 124804. 1937.81   2
   2  -3  -5 1060.38 608.262   1
   2  -3  -5 910.336 392.849   2
  -2   3   5 958.310 373.438   3
   2  -3  -4 493.971 338.823   2
   2  -3  -4 155.930 443.518   1
  -2   3   4 494.730 350.146   1
  -2   3   4 84.6093 430.654   0
  -2   3   4 374.236 328.453   2
   2  -3  -3 32707.0 995.985   4
  -2   3   3 36873.4 913.534   2
   2  -3  -3 34105.3 886.046   2
  -2   3   3 33270.4 1000.38   0
  -2   3   3 34589.0 739.409   1
   2  -3  -3 32293.2 817.452   1
  -2   3   2 29298.4 509.174   1
  -2   3   2 30662.0 853.837   2
   2  -3  -2 27862.1 959.020   4
   2  -3  -2 29077.6 574.719   1
  -2   3   2 28083.4 931.483   0
  -2   3   1 330099. 2921.45   0
   2  -3  -1 326919. 4745.78   1
   2  -3   0 181240. 1147.94   1
  -2   3   0 185043. 2225.64   0
  -2   3  -1 63604.8 1407.32   0
   2  -3   1 64904.6 951.689   1
   2  -3   2 136879. 1649.15   1
  -2   3  -2 129377. 2051.72   0
  -2   3  -3 87173.5 1789.61   0
  -2   3  -4 417.489 520.554   0
   2  -3   4-229.090 715.446   6
   2  -3   5 29500.2 1460.29   6
  -2   3  -5 26909.3 1206.48   0
  -2   3  -6 53444.0 1700.55   0
   2  -3   6 52422.8 2023.05   6
   2  -3   7 49560.2 2117.65   6
  -2   3  -7 53042.6 2066.75   3
  -2   3  -7 45675.4 1677.61   0
   2  -3   8 43057.2 2173.30   6
  -2   3  -8 48531.2 2117.70   3
  -2   3  -9 59914.1 2466.15   3
   2  -3   9 58355.4 2596.20   6
   2  -2 -13 2448.47 1037.99   2
  -2   2  13 2360.87 961.642   6
  -2   2  12 14120.4 1294.44   6
   2  -2 -12 11657.7 1585.28   1
   2  -2 -12 12942.5 1318.16   2
   2  -2 -11 44436.5 2394.83   1
   2  -2 -11 44938.6 1914.73   2
  -2   2  11 45692.0 1872.70   6
   2  -2 -10 52190.1 1593.84   3
   2  -2 -10 48490.6 1822.54   2
  -2   2  10 47492.8 1794.64   6
   2  -2 -10 47304.1 2234.69   1
   2  -2  -9 112546. 2968.60   1
   2  -2  -9 112717. 2490.67   2
  -2   2   9 107385. 2397.69   6
   2  -2  -9 112583. 2131.62   3
  -2   2   8 97280.8 2108.10   6
   2  -2  -8 101834. 2198.88   2
   2  -2  -8 97905.7 2631.21   1
   2  -2  -8 102364. 1927.08   3
   2  -2  -7 20825.1 1023.41   2
   2  -2  -7 20241.2 912.192   3
  -2   2   7 19785.5 987.880   6
  -2   2   7 20504.1 488.388   5
   2  -2  -7 21489.8 1384.47   1
  -2   2   6 77509.7 1568.86   6
   2  -2  -6 79569.4 2014.43   1
   2  -2  -6 80757.8 1655.32   2
   2  -2  -5 66186.6 1362.18   2
  -2   2   5 67523.6 1264.36   3
   2  -2  -4 161234. 2191.78   1
   2  -2  -4 163472. 1909.77   2
  -2   2   4 181243. 2068.67   1
  -2   2   4 155675. 1918.54   0
  -2   2   4 175141. 1944.50   2
  -2   2   4 167659. 1876.63   3
   2  -2  -4 173074. 1936.39   6
  -2   2   3 184968. 1761.72   1
   2  -2  -3 190287. 2041.22   0
   2  -2  -3 175710. 1854.75   2
  -2   2   3 179737. 1841.67   2
  -2   2   3 170332. 1912.61   0
   2  -2  -3 176843. 1993.99   4
   2  -2  -3 166182. 1861.39   1
   2  -2  -2 154454. 1663.77   2
   2  -2  -2 163191. 1826.06   0
   2  -2  -2 149953. 1788.76   4
  -2   2   2 150940. 1767.42   0
   2  -2  -2 152433. 1356.11   1
  -2   2   2 159294. 1240.59   1
  -2   2   2 157402. 1690.29   2
  -2   2   1 123447. 1622.29   0
  -2   2   1 130131. 1685.16   4
  -2   2   1 133353. 1580.88   2
   2  -2  -1 124385. 1631.01   4
   2  -2  -1 136527. 1684.40   0
  -2   2   0 346614. 2757.31   4
   2  -2   0 343595. 2683.85   0
  -2   2  -1 2612.80 491.487   0
   2  -2   1 3262.63 257.710   1
  -2   2  -2 184161. 2212.44   0
   2  -2   2 193353. 1750.48   1
  -2   2  -3 245733. 2729.89   0
   2  -2   3 259952. 2416.81   1
   2  -2   3 249318. 3046.91   6
  -2   2  -3 255989. 2505.68   1
   2  -2   4 319271. 3772.15   6
  -2   2  -4 312430. 3265.80   0
  -2   2  -4 324310. 3235.98   1
   2  -2   5 67689.0 1983.44   6
  -2   2  -5 70772.5 1793.95   1
  -2   2  -5 68267.1 1697.81   0
  -2   2  -6 9951.43 1006.98   1
  -2   2  -6 8607.19 832.626   0
  -2   2  -6 11294.9 973.597   3
   2  -2   6 9546.64 1004.70   6
  -2   2  -7 16938.9 1085.84   0
   2  -2   7 18066.8 1363.98   6
  -2   2  -7 19291.0 1271.45   3
  -2   2  -8 113.405 651.506   0
  -2   2  -8 594.520 744.804   3
   2  -2   8-115.026 817.916   6
   2  -2   9 7380.91 1140.01   6
  -2   2  -9 8255.64 1106.73   3
  -2   1  12 14267.6 1357.26   6
   2  -1 -12 16037.5 1486.16   2
  -2   1  11 16490.4 1351.61   6
   2  -1 -11 17284.0 1719.00   1
   2  -1 -11 17141.9 1422.00   2
   2  -1 -10 489.761 1094.26   1
  -2   1  10 546.180 688.144   6
   2  -1 -10 525.618 764.263   2
   2  -1 -10 353.639 608.865   3
  -2   1   9 38749.7 1569.85   6
   2  -1  -9 35067.0 1578.83   2
   2  -1  -9 35841.7 1367.66   3
   2  -1  -9 36380.4 1897.48   1
  -2   1   8 55350.2 1678.89   6
   2  -1  -8 50495.4 1701.27   2
   2  -1  -8 48875.5 1939.98   1
   2  -1  -8 52206.5 1508.09   3
   2  -1  -7 41545.3 1423.09   2
   2  -1  -7 37771.2 1666.87   1
   2  -1  -7 40419.9 1256.02   3
  -2   1   7 39680.5 1329.00   6
   2  -1  -6 115347. 2361.69   1
  -2   1   6 117548. 1952.48   6
   2  -1  -6 121352. 1925.52   3
   2  -1  -6 118613. 2087.42   2
   2  -1  -5 222777. 2913.49   1
   2  -1  -5 230325. 2442.40   3
   2  -1  -5 229899. 2610.25   2
  -2   1   5 224390. 2350.55   6
   2  -1  -4 124518. 1744.77   2
   2  -1  -4 118283. 1903.35   1
  -2   1   4 132313. 1677.30   3
   2  -1  -4 123024. 1665.36   3
   2  -1  -4 128286. 1641.40   6
   2  -1  -4 130911. 1599.23   0
  -2   1   4 122040. 1510.02   6
  -2   1   3 11948.1 582.511   3
   2  -1  -3 13162.0 553.262   0
  -2   1   3 13123.9 606.153   2
   2  -1  -3 11677.4 645.715   1
  -2   1   3 13533.5 690.466   1
  -2   1   3 12118.5 533.367   0
   2  -1  -3 12465.0 498.157   6
   2  -1  -3 13914.1 617.927   2
  -2   1   2 44968.0 864.156   0
   2  -1  -2 45424.2 905.210   2
   2  -1  -2 44786.3 832.294   1
   2  -1  -2 43718.2 868.856   4
  -2   1   2 46924.3 899.093   1
   2  -1  -2 48103.1 898.127   0
  -2   1   1 70245.5 727.592   1
   2  -1  -1 65940.2 1041.21   2
  -2   1   1 68060.6 1039.43   2
   2  -1  -1 70158.5 1065.00   0
  -2   1   1 68994.1 1105.26   4
   2  -1  -1 68244.5 1064.69   4
  -2   1   1 64844.2 1039.80   0
  -2   1   0 311716. 2278.83   0
   2  -1   0 324433. 2310.51   0
   2  -1   1 623395. 8061.39   1
  -2   1  -1 612090. 13533.3   0
  -2   1  -2 301053. 2227.42   1
   2  -1   2 299067. 2679.11   6
  -2   1  -2 303341. 2622.46   0
  -2   1  -3 42125.5 1123.68   1
   2  -1   3 45057.1 1011.25   1
  -2   1  -3 41450.8 1116.26   0
   2  -1   3 42649.2 1192.94   6
   2  -1   4 2535.99 621.262   6
  -2   1  -4 2135.25 615.186   1
  -2   1  -5 2698.68 746.819   1
   2  -1   5 3428.86 688.347   6
   2  -1   6 22811.1 1259.86   6
  -2   1  -6 26372.9 1179.76   3
  -2   1  -6 24133.7 1339.46   1
   2  -1   7 119535. 2798.70   6
  -2   1  -7 115361. 2689.63   1
  -2   1  -8 72509.1 2363.69   1
  -2   1  -8 73718.8 2057.54   3
   2  -1   8 70286.1 2288.87   6
  -2   1  -9 25531.8 1725.92   1
  -2   1  -9 28308.3 1467.53   3
   2  -1   9 27101.9 1693.91   6
   2  -1  10 15760.2 1548.36   6
  -2   1 -10 16031.4 1542.27   1
  -2   0  12 1012.89 905.175   6
  -2   0  11 41804.8 1949.00   6
   2   0 -11 43886.4 2163.96   2
   2   0 -10 80773.3 2549.53   2
   2   0 -10 82708.1 2265.32   3
  -2   0  10 83950.9 2480.71   6
   2   0  -9 55540.2 2000.62   2
  -2   0   9 59595.9 1969.84   6
   2   0  -9 54461.9 1768.90   3
   2   0  -8 17664.1 1413.56   1
  -2   0   8 17970.5 1113.38   6
   2   0  -8 18440.5 1070.11   3
   2   0  -8 17019.8 1156.34   2
   2   0  -7 19042.2 1309.58   1
  -2   0   7 19708.3 1081.23   6
   2   0  -7 21828.5 1065.31   3
   2   0  -7 20089.6 1121.48   2
   2   0  -6 26034.5 1173.06   2
   2   0  -6 25024.2 838.816   0
   2   0  -6 21940.1 1271.30   1
   2   0  -6 23574.2 1006.01   3
  -2   0   6 25158.0 1054.46   6
   2   0  -5 109983. 1964.41   2
   2   0  -5 113254. 2172.25   1
   2   0  -5 109970. 1820.09   3
  -2   0   5 109262. 1772.51   6
   2   0  -4 260145. 2404.17   6
  -2   0   4 259034. 2318.48   6
   2   0  -4 244437. 2769.10   1
  -2   0   4 269369. 2528.06   3
   2   0  -4 251217. 2493.69   3
   2   0  -4 260208. 1955.65   0
   2   0  -4 246163. 2592.78   2
   2   0  -3 73594.9 1277.09   3
  -2   0   3 74142.0 1042.44   6
  -2   0   3 75757.3 1286.37   3
  -2   0   3 77851.2 1463.62   1
   2   0  -3 73223.5 1076.56   6
   2   0  -3 72381.8 1290.53   2
   2   0  -3 78424.3 978.185   0
  -2   0   3 80319.3 1358.35   2
   2   0  -2 259072. 5803.77   6
   2   0  -2 260901. 1627.15   0
  -2   0   2 276644. 2183.06   1
  -2   0   2 266706. 2121.27   2
   2   0  -2 261445. 1630.45   4
  -2   0   2 272842. 2138.16   3
   2   0  -2 259819. 2100.40   2
   2   0  -2 269050. 2172.62   3
  -2   0   2 262102. 6266.91   0
  -2   0   2 255244. 5435.33   6
  -2   0   1 211395. 1781.99   3
   2   0  -1 210784. 1707.26   2
  -2   0   1 220559. 1502.19   4
  -2   0   1 217327. 1711.60   2
   2   0  -1 226328. 1496.99   0
  -2   0   1 216843. 1479.67   0
  -2   0   0 172723. 1441.60   0
  -2   0   0 167795. 1473.75   2
   2   0   0 164304. 1451.50   2
   2   0   1 583.570 193.063   1
  -2   0  -1 422.817 214.980   1
   2   0   1 89.9585 270.029   6
  -2   0  -2 43033.7 982.593   6
   2   0   2 40601.2 747.560   1
  -2   0  -2 40974.7 799.056   1
   2   0   3 63084.0 1315.73   6
  -2   0  -3 67078.1 1392.00   6
   2   0   3 67637.1 1141.10   1
  -2   0  -3 63625.3 1204.92   1
  -2   0  -4 138214. 2058.51   1
   2   0   4 138609. 2165.32   6
   2   0   5 163192. 2592.57   6
  -2   0  -5 154171. 2512.03   1
   2   0   6 143994. 2648.58   6
  -2   0  -6 149851. 2192.22   3
  -2   0  -6 140230. 2750.81   1
   2   0   7 30136.6 1426.86   6
  -2   0  -7 29557.3 1611.66   1
  -2   0  -7 34211.4 1214.61   3
  -2   0  -8 2295.60 1003.97   1
   2   0   8 2089.13 762.594   6
  -2   0  -8 2069.11 611.460   3
  -2   0  -9 9176.88 1245.67   1
   2   0   9 10488.3 1217.50   6
  -2   0  -9 11056.5 926.768   3
  -2   0 -10 1954.32 1090.61   1
   2   0  10 1461.07 911.861   6
  -2   0 -11 28555.4 2045.64   1
   2   0  11 27266.6 1833.00   6
   2   1 -11 10989.3 1375.17   2
  -2  -1  11 13005.1 1323.48   6
  -2  -1  10 849.058 769.243   6
   2   1 -10 1680.74 952.928   2
   2   1 -10 1546.12 799.936   3
  -2  -1   9 2443.97 858.770   6
   2   1  -9 2249.25 869.299   2
   2   1  -9 1509.54 757.432   3
   2   1  -8 18202.0 1321.56   2
   2   1  -8 19199.5 1177.81   3
  -2  -1   8 18383.2 1215.09   6
   2   1  -7 60795.3 1755.34   3
  -2  -1   7 62956.7 1813.22   6
   2   1  -7 60871.1 1933.55   2
  -2  -1   6 184470. 2714.06   6
   2   1  -6 178079. 2688.19   3
   2   1  -6 183380. 2948.13   2
  -2  -1   5 199324. 2537.87   6
   2   1  -5 192405. 2616.22   3
   2   1  -5 192143. 2755.34   2
  -2  -1   4 95662.4 1573.26   6
   2   1  -4 96210.8 1723.01   3
   2   1  -4 93695.8 1786.15   2
   2   1  -3 102560. 813.887   5
   2   1  -3 98116.1 1589.15   3
  -2  -1   3 106263. 1612.57   3
   2   1  -3 106139. 880.221   0
  -2  -1   3 100547. 1385.03   6
   2   1  -3 100611. 1635.29   2
  -2  -1   2 7876.43 317.828   5
  -2  -1   2 8134.33 551.352   3
   2   1  -2 8126.12 326.139   5
   2   1  -2 8168.42 227.966   0
   2   1  -2 7300.30 223.221   4
  -2  -1   2 7306.64 383.294   6
   2   1  -2 8265.59 541.281   3
   2   1  -2 8059.37 496.296   2
  -2  -1   2 8178.53 531.284   2
  -2  -1   1 313442. 4981.48   4
   2   1  -1 299776. 1791.06   5
  -2  -1   1 297478. 1792.10   5
   2   1  -1 296460. 2183.90   3
  -2  -1   1 315269. 2142.05   2
  -2  -1   1 316271. 4978.95   0
  -2  -1   1 308142. 2220.01   3
   2   1  -1 299861. 2090.22   2
   2   1   0 952589. 12981.0   2
   2   1   0 904295. 13501.4   3
  -2  -1   0 951615. 12840.3   2
   2   1   0 962219. 13666.7   5
  -2  -1   0 904443. 13492.6   3
  -2  -1   0 945606. 13682.9   5
  -2  -1  -1 139682. 1199.25   2
  -2  -1  -1 137753. 1445.50   5
   2   1   1 140093. 1212.28   2
   2   1   1 139699. 1452.21   5
   2   1   1 139407. 1109.48   6
  -2  -1  -1 144089. 1237.05   3
  -2  -1  -1 139023. 1138.89   6
   2   1   2 9086.89 489.906   6
   2   1   2 8343.33 425.184   1
  -2  -1  -2 7883.81 527.213   5
  -2  -1  -2 8040.89 480.308   6
  -2  -1  -2 8597.78 449.664   1
   2   1   3 106349. 1412.47   1
   2   1   3 100092. 1512.09   6
  -2  -1  -3 106601. 1601.01   6
  -2  -1  -3 103496. 1439.00   5
  -2  -1  -3 101132. 1417.27   1
  -2  -1  -4 72986.8 1284.71   5
   2   1   4 70026.7 1453.62   6
  -2  -1  -4 68542.0 1392.14   1
   2   1   5 27121.9 1083.13   6
  -2  -1  -5 26008.1 1090.04   1
  -2  -1  -5 27476.7 858.722   5
  -2  -1  -6 1203.23 720.212   1
   2   1   6 1659.72 630.438   6
  -2  -1  -6 1044.45 414.330   5
  -2  -1  -6 1804.47 408.123   3
   2   1   7 11319.4 981.600   6
  -2  -1  -7 10502.6 666.879   3
  -2  -1  -7 9233.94 1132.30   1
  -2  -1  -8 28411.7 1666.76   1
  -2  -1  -8 32033.0 1089.76   3
   2   1   8 31967.3 1486.85   6
   2   1   9 127364. 3014.98   6
  -2  -1  -9 119924. 3207.80   1
   2   1  10 90151.9 2720.36   6
  -2  -1 -10 86478.4 2972.58   1
   2   1  11 15428.2 1415.67   6
  -2  -1 -11 13662.6 1624.83   1
  -2  -1 -12-46.4003 1418.34   1
  -2  -2  11 13514.1 1444.11   6
   2   2 -10 8610.61 1351.69   2
  -2  -2  10 8071.35 1178.76   6
   2   2 -10 6637.43 1051.90   3
  -2  -2   9 54134.5 2085.13   6
   2   2  -9 51000.7 2010.58   3
   2   2  -9 50256.6 2182.04   2
  -2  -2   8 134414. 2943.50   6
   2   2  -8 129344. 3077.86   2
   2   2  -7 59407.9 2017.41   2
  -2  -2   7 59627.8 1870.42   6
   2   2  -7 58621.1 1865.34   3
  -2  -2   6 298.896 642.548   6
   2   2  -6 50.2520 730.762   2
   2   2  -6 192.515 566.419   3
   2   2  -5 12366.0 884.948   2
   2   2  -5 12482.0 904.365   3
  -2  -2   5 12540.9 877.958   6
   2   2  -5 12151.8 353.692   5
   2   2  -4 7932.33 344.622   5
   2   2  -4 7672.23 650.290   3
  -2  -2   4 7770.09 638.172   6
   2   2  -4 6470.51 655.559   2
  -2  -2   3 255211. 2477.17   6
   2   2  -3 253118. 2783.43   2
   2   2  -3 249824. 1725.38   5
   2   2  -2 365431. 3020.24   3
   2   2  -2 374489. 2985.70   2
  -2  -2   1 37258.3 745.583   5
   2   2  -1 34522.7 907.110   3
   2   2  -1 37113.9 765.132   5
  -2  -2   1 37857.6 945.582   3
   2   2  -1 35801.7 852.219   2
   2   2   0 434278. 9226.60   2
  -2  -2   0 421929. 9871.16   5
  -2  -2   0 434868. 2630.56   3
   2   2   0 414572. 2601.99   3
   2   2   0 439360. 10146.5   5
  -2  -2   0 438135. 9447.57   2
   2   2   1 47434.0 668.199   2
  -2  -2  -1 47637.9 935.814   5
  -2  -2  -1 48337.1 678.823   2
  -2  -2  -1 47738.6 787.042   3
   2   2   1 45762.9 774.932   3
   2   2   1 46638.4 921.582   5
   2   2   2 4174.80 380.233   6
  -2  -2  -2 4734.98 398.304   1
  -2  -2  -2 4319.32 273.649   2
  -2  -2  -2 4870.26 296.849   3
  -2  -2  -2 4709.41 413.259   6
  -2  -2  -2 4902.23 500.311   5
   2   2   2 4230.07 261.978   3
   2   2   2 4545.79 444.370   5
  -2  -2  -3 26741.9 858.342   6
  -2  -2  -3 25205.7 799.156   5
   2   2   3 26005.7 783.711   5
   2   2   3 27911.7 786.023   1
  -2  -2  -3 25044.7 818.772   1
  -2  -2  -3 26817.4 443.962   3
   2   2   3 25053.8 757.247   6
   2   2   4 93725.7 1447.68   5
  -2  -2  -4 90854.3 1561.71   1
  -2  -2  -4 95171.1 1465.28   5
   2   2   4 89337.1 1556.25   6
   2   2   5 242145. 2832.63   6
  -2  -2  -5 246871. 2425.63   5
  -2  -2  -5 248086. 1507.77   3
  -2  -2  -5 240151. 2802.40   1
  -2  -2  -6 125162. 2320.71   1
  -2  -2  -6 125591. 1287.17   3
   2   2   6 123270. 2255.28   6
   2   2   7 113221. 2377.38   6
  -2  -2  -7 116250. 1410.12   3
  -2  -2  -7 110964. 2479.04   1
  -2  -2  -8 121873. 1630.34   3
   2   2   8 126450. 2714.08   6
  -2  -2  -9 10632.6 647.111   3
  -2  -2  -9 10101.0 1392.18   1
   2   2   9 9537.38 1066.05   6
   2   2  10 29197.6 1683.44   6
  -2  -2 -10 26408.2 1971.20   1
   2   2  11 16727.3 1377.61   6
  -2  -2 -11 17005.0 1842.69   1
   2   2  12 17658.0 1578.64   6
  -2  -2 -12 15659.8 1792.63   1
  -2  -2 -13 28648.4 1930.44   2
  -2  -3  10 22366.3 1690.05   6
   2   3 -10 23053.3 1707.63   3
  -2  -3   9 1077.28 843.397   6
   2   3  -9 1684.21 1065.82   2
   2   3  -9 1483.55 833.431   3
   2   3  -8 15690.9 1426.23   2
  -2  -3   8 14373.4 1247.42   6
   2   3  -8 14917.1 1262.74   3
  -2  -3   7 37565.3 1688.25   6
   2   3  -7 34787.2 1667.28   3
   2   3  -7 36769.8 1718.31   2
   2   3  -6 56842.2 1862.16   3
   2   3  -6 61655.0 2048.38   2
  -2  -3   6 59460.9 1883.87   6
   2   3  -5 115854. 2427.54   3
   2   3  -5 117691. 1180.47   0
  -2  -3   5 115994. 2347.44   6
   2   3  -4 179200. 1805.08   5
   2   3  -4 165876. 1177.48   4
   2   3  -4 177430. 2780.72   3
  -2  -3   4 176479. 2609.07   6
   2   3  -4 165928. 1154.51   0
   2   3  -3 36469.1 869.241   5
   2   3  -3 35697.9 1240.33   3
   2   3  -2 7049.08 618.165   3
   2   3  -2 8195.32 480.561   5
   2   3  -1 360.463 374.769   2
   2   3  -1 211.824 316.493   5
   2   3  -1-27.2045 411.411   3
  -2  -3   1 306.607 128.408   0
  -2  -3   1 416.136 135.195   4
   2   3   0 551.885 366.576   5
   2   3   0 207.680 301.127   2
  -2  -3   0 142.352 196.003   0
  -2  -3   0 190.862 425.176   3
   2   3   0 198.211 388.500   3
  -2  -3  -1 5945.52 460.596   5
   2   3   1 6562.57 517.325   5
   2   3   1 6141.17 330.286   2
  -2  -3  -1 6261.61 464.594   3
   2   3   1 5954.78 442.419   3
  -2  -3  -2 315076. 5595.92   2
   2   3   2 296768. 7646.05   3
   2   3   2 306639. 5394.32   2
  -2  -3  -2 312988. 2585.23   5
   2   3   2 300265. 2549.95   5
  -2  -3  -2 302054. 1923.47   3
  -2  -3  -3 277719. 2494.68   1
  -2  -3  -3 284922. 2451.74   6
  -2  -3  -3 266547. 4730.15   2
   2   3   3 269185. 2494.40   5
  -2  -3  -3 271165. 1453.91   3
  -2  -3  -3 281685. 2560.32   5
   2   3   3 274731. 5711.69   3
   2   3   4 91622.7 1536.13   5
   2   3   4 89247.0 1539.07   6
  -2  -3  -4 92868.4 1607.55   1
   2   3   5 246388. 2766.56   6
  -2  -3  -5 249510. 2830.86   1
   2   3   5 251471. 2547.11   5
   2   3   6 65204.3 1389.42   5
   2   3   6 68552.8 1666.97   6
  -2  -3  -6 67113.4 1730.35   1
  -2  -3  -7 29772.1 1366.57   1
   2   3   7 29113.5 1278.59   6
   2   3   7 29028.3 1003.77   5
  -2  -3  -8 111135. 2640.17   1
  -2  -3  -8 112283. 1037.64   3
  -2  -3  -9 77779.9 2509.10   1
   2   3   9 79746.5 2307.42   6
   2   3  10 39160.9 1770.02   6
  -2  -3 -10 35807.6 2053.95   1
  -2  -3 -11 54497.2 2571.81   1
   2   3  11 61987.4 2346.28   6
   2   3  12 23721.2 1695.10   6
  -2  -3 -12 23548.9 2017.51   1
  -2  -3 -12 25880.2 1557.00   2
   2   4  -9 60395.5 2517.98   3
  -2  -4   9 52909.6 2339.88   6
  -2  -4   8 23730.1 1609.99   6
   2   4  -8 25101.6 1608.87   3
   2   4  -8 22292.6 1598.66   2
   2   4  -7 27008.4 1605.31   3
  -2  -4   7 26492.5 1567.19   6
   2   4  -7 26764.1 1615.50   2
  -2  -4   6 67470.1 2128.47   6
   2   4  -6 66763.7 2211.14   3
  -2  -4   5 7822.90 891.295   6
   2   4  -5 8888.49 923.681   3
   2   4  -5 8744.65 601.832   5
   2   4  -4 25716.7 531.850   0
   2   4  -4 27693.3 942.799   5
   2   4  -4 25417.9 1298.95   3
  -2  -4   4 25753.7 1233.90   6
   2   4  -3 132049. 2481.39   3
   2   4  -3 136499. 1918.56   5
   2   4  -3 135644. 1094.08   0
   2   4  -2 84515.8 878.833   0
   2   4  -2 80068.3 1815.36   3
   2   4  -2 83789.4 1517.91   5
   2   4  -1 59515.2 1293.47   5
   2   4  -1 55869.8 1444.04   3
  -2  -4   1 60920.5 806.738   0
   2   4   0 187636. 2226.56   5
   2   4   0 189204. 2342.89   3
   2   4   1 138508. 1927.63   5
   2   4   1 140271. 1457.24   2
   2   4   1 139165. 1839.52   3
   2   4   2 65838.9 1360.37   5
   2   4   2 67610.8 1154.03   3
   2   4   2 70178.6 781.516   2
   2   4   3 2991.18 474.541   5
  -2  -4  -3 3003.03 455.389   1
   2   4   3 2843.23 305.104   3
   2   4   4 7891.96 635.109   5
  -2  -4  -4 7986.66 650.278   1
   2   4   4 6577.45 277.940   3
   2   4   5 16840.9 822.380   5
  -2  -4  -5 16948.3 889.536   1
   2   4   6 361171. 3347.75   5
   2   4   6 361546. 3686.54   6
   2   4   7 324774. 3243.92   5
  -2  -4  -7 315092. 3906.26   1
   2   4   8 29175.7 1081.78   5
   2   4   8 29530.8 1366.49   6
  -2  -4  -8 28511.9 1476.67   1
   2   4   9 2324.57 774.928   6
  -2  -4  -9 1786.62 1056.31   1
   2   4   9 1901.27 512.231   5
  -2  -4 -10 4553.60 1265.74   1
  -2  -4 -10 4480.80 711.681   2
   2   4  10 4956.42 869.288   6
   2   4  11 877.230 767.814   6
  -2  -4 -11 579.042 625.564   2
  -2  -4 -11 685.259 1071.69   1
  -2  -4 -12 24829.9 2090.71   1
   2   4  12 22451.5 1618.01   6
   2   5  -8 389.927 976.474   2
  -2  -5   8 613.556 1041.60   6
   2   5  -8 550.471 931.732   3
  -2  -5   7 331.215 907.473   6
   2   5  -7 1674.10 865.049   3
   2   5  -7 595.341 844.158   2
  -2  -5   6 28643.8 1627.16   6
   2   5  -6 30658.7 1740.75   3
   2   5  -5 83874.2 1764.99   5
  -2  -5   5 78174.3 2315.31   6
   2   5  -5 81766.8 2474.87   3
   2   5  -4 105132. 1964.92   5
  -2  -5   4 97289.0 2380.08   6
   2   5  -4 100482. 2551.65   3
   2   5  -3 55513.5 1825.50   3
   2   5  -3 57871.6 908.591   0
   2   5  -2 82613.2 2061.99   3
   2   5  -2 82969.3 1111.84   0
   2   5  -1 40044.6 832.507   0
   2   5  -1 38787.9 1374.53   3
   2   5   0 19234.8 913.440   5
  -2  -5   0 18410.3 631.939   4
  -2  -5   0 20691.4 654.237   0
   2   5   0 18879.6 967.678   3
   2   5   1 38484.1 1210.13   5
   2   5   1 39625.2 1175.37   3
   2   5   2 125313. 1306.34   2
   2   5   2 120323. 1811.53   3
   2   5   2 123395. 2066.78   5
   2   5   3 250592. 2909.29   5
  -2  -5  -3 247748. 2699.26   1
   2   5   3 249912. 2319.31   3
   2   5   3 240970. 4604.36   2
   2   5   4 329481. 3339.98   5
   2   5   4 326437. 2268.72   3
  -2  -5  -4 325958. 3224.00   1
   2   5   5 170160. 2464.30   5
   2   5   5 168166. 1275.37   3
  -2  -5  -6 5169.58 739.806   1
   2   5   6 5378.78 677.082   5
   2   5   7 5719.03 675.448   5
  -2  -5  -7 5182.94 819.746   1
  -2  -5  -7 5650.09 340.902   2
   2   5   8 32930.7 1226.53   5
   2   5   8 31310.3 1371.11   6
  -2  -5  -8 32838.8 862.215   2
  -2  -5  -8 32323.0 1582.21   1
   2   5   9 51801.9 1504.03   5
   2   5   9 52204.6 1867.21   6
  -2  -5  -9 50777.5 1224.61   2
  -2  -5  -9 51082.6 2017.77   1
  -2  -5 -10 42906.9 1290.59   2
   2   5  10 43528.7 1400.28   5
   2   5  10 40418.2 1776.46   6
  -2  -5 -10 40815.7 2046.38   1
   2   5  11 44823.7 2008.94   6
  -2  -5 -11 44664.5 2349.75   1
   2   5  12 13984.3 1350.78   6
  -2  -5 -12 12247.2 1628.58   1
  -2  -6   7 48898.8 2312.95   6
   2   6  -7 44216.1 2383.75   2
  -2  -6   6 19337.9 1517.69   6
   2   6  -6 21454.9 1637.70   3
  -2  -6   5 3348.14 864.608   6
   2   6  -5 3050.21 933.601   3
   2   6  -4 24778.6 1564.29   3
   2   6  -4 27703.2 1249.30   5
   2   6  -3 178.222 760.948   3
   2   6  -2 79414.8 1287.71   0
   2   6  -2 72584.0 2140.74   3
   2   6  -1 162514. 1893.55   0
   2   6  -1 165115. 2983.50   3
  -2  -6   0 153031. 1869.21   4
   2   6   0 156332. 2727.71   3
  -2  -6  -1 97824.7 1591.39   4
   2   6   1 101714. 2083.34   3
   2   6   1 102436. 2110.45   5
   2   6   2 77646.2 1699.02   3
   2   6   2 77931.4 1846.52   5
  -2  -6  -3 26037.1 1033.63   1
   2   6   3 28065.8 1197.53   5
   2   6   3 26947.5 577.268   2
   2   6   3 27380.2 984.730   3
   2   6   4 4326.35 616.457   5
  -2  -6  -4 3584.08 605.751   1
   2   6   4 4560.93 469.924   3
   2   6   5 75408.6 1825.91   5
   2   6   5 76430.4 1210.52   3
  -2  -6  -5 74651.4 1770.64   1
   2   6   6 68868.9 895.622   3
  -2  -6  -6 72296.3 1859.90   1
   2   6   7 31050.7 1273.88   5
  -2  -6  -7 30518.8 1388.77   1
   2   6   8 163250. 2732.69   5
  -2  -6  -8 164786. 3114.79   1
  -2  -6  -8 160265. 1100.33   2
   2   6   9 128905. 2462.64   5
  -2  -6  -9 123822. 2926.13   1
   2   6  10 364.308 541.245   5
  -2  -6 -10 648.754 1051.39   1
  -2  -6 -11 5469.26 1316.18   1
  -2  -6 -12 1252.09 1140.20   1
   2   7  -6 12901.6 1549.06   2
  -2  -7   6 10228.8 1383.69   6
   2   7  -5 28342.0 1919.47   3
  -2  -7   5 24899.2 1706.73   6
   2   7  -4 82581.1 2771.95   3
   2   7  -4 90933.8 2314.49   5
   2   7  -3 83854.7 2221.27   5
   2   7  -3 81859.8 2653.00   3
   2   7  -2 62074.2 2203.59   3
   2   7  -1 6289.89 961.591   3
  -2  -7   0 350.090 471.786   4
   2   7   0 668.004 762.319   3
   2   7   1 1260.00 655.439   5
  -2  -7  -1 391.113 459.423   4
   2   7   1 417.673 611.372   3
   2   7   2 44288.6 1492.95   3
   2   7   2 42666.7 1562.52   5
  -2  -7  -2 40659.6 1235.40   4
   2   7   3 176308. 2978.57   5
   2   7   3 172947. 2619.00   3
   2   7   3 176463. 1744.05   2
   2   7   4 148731. 2753.10   5
   2   7   4 142252. 1063.23   2
   2   7   4 144063. 1031.07   2
  -2  -7  -4 143263. 2432.29   1
   2   7   4 150197. 2258.06   3
   2   7   5 35721.9 1441.64   5
  -2  -7  -5 33873.1 1328.28   1
   2   7   5 35149.1 1036.13   3
   2   7   6 21611.4 1193.38   5
   2   7   6 22451.1 738.301   3
   2   7   7 29823.0 1326.78   5
  -2  -7  -7 29833.9 1411.12   1
  -2  -7  -8 1071.77 836.782   1
   2   7   8 1356.90 596.205   5
   2   7   9 16146.6 1095.85   5
  -2  -7  -9 15115.8 1378.59   1
  -2  -7 -10 15679.9 1373.76   1
   2   7  10 14928.2 1075.79   5
   2   7  11 37126.6 1541.83   5
  -2  -7 -11 35294.3 2020.30   1
  -2  -7 -12 32246.8 2210.18   1
  -2  -8   5 38101.3 2165.68   6
  -2  -8   4 19064.0 1638.55   6
   2   8  -4 21116.7 1841.27   3
   2   8  -3 3362.26 853.232   5
   2   8  -3 3240.18 1086.41   3
   2   8  -2 31955.0 1602.23   5
   2   8  -2 31896.4 1763.18   3
   2   8  -1 47682.5 1875.30   5
   2   8  -1 43273.0 1912.87   3
   2   8   0 83247.2 2345.45   5
   2   8   0 80328.3 2436.34   3
   2   8   1 109291. 2636.43   5
  -2  -8  -1 104407. 1974.13   4
   2   8   1 108115. 2638.63   3
   2   8   2 61496.4 2017.04   5
  -2  -8  -2 58898.8 1575.77   4
   2   8   2 58088.0 1875.31   3
  -2  -8  -3 2696.04 678.127   4
   2   8   3 3301.11 750.230   5
  -2  -8  -3 2778.49 630.371   1
   2   8   3 3583.97 681.434   3
  -2  -8  -4 1055.03 576.044   1
   2   8   4 1013.02 690.405   5
   2   8   4 411.029 520.553   3
   2   8   5 1031.87 606.166   5
  -2  -8  -5 1027.80 597.620   1
   2   8   5 932.970 479.052   3
   2   8   6 24580.9 947.705   3
   2   8   6 21874.4 1268.00   5
  -2  -8  -6 23370.5 1260.98   1
   2   8   7 94230.0 2407.66   5
  -2  -8  -7 90084.6 2319.54   1
   2   8   8 70152.8 2119.03   5
  -2  -8  -8 70786.4 2210.93   1
   2   8   9 26285.7 1420.29   5
  -2  -8  -9 27396.2 1622.61   1
  -2  -8 -10 25269.1 1660.81   1
   2   8  10 27290.7 1437.53   5
   2   8  11 14039.7 1139.19   5
  -2  -8 -11 13170.7 1492.49   1
  -2  -8 -12 1637.90 1166.33   1
   2   9  -2 38269.6 1896.58   5
   2   9  -2 37877.6 2139.65   3
   2   9  -1 29407.1 1855.34   3
   2   9  -1 31688.7 1703.47   5
   2   9   0 10592.9 1206.15   5
   2   9   0 10622.4 1294.97   3
   2   9   1 248.820 773.789   5
   2   9   1 548.543 696.447   3
  -2  -9  -2 14476.5 1004.90   4
   2   9   2 15087.8 1270.50   5
   2   9   2 14738.4 1163.59   3
   2   9   3 7949.18 1050.82   5
  -2  -9  -3 8699.44 895.571   4
  -2  -9  -3 8483.72 829.041   1
   2   9   3 8753.02 953.659   3
  -2  -9  -4 44815.4 1594.56   1
   2   9   4 47213.6 1883.61   5
  -2  -9  -4 46677.6 1670.33   4
   2   9   4 50266.1 1736.07   3
  -2  -9  -5 110164. 2453.89   1
   2   9   5 115671. 2859.16   5
   2   9   5 115637. 2372.25   3
   2   9   6 83249.0 1881.04   3
   2   9   6 84054.9 2476.09   5
   2   9   7 20635.5 1373.30   5
  -2  -9  -7 20517.2 1303.97   1
   2   9   8 253.644 750.928   5
  -2  -9  -8 19.0486 754.597   1
   2   9   9 278.473 728.534   5
  -2  -9  -9 424.820 897.860   1
  -2  -9 -10 10810.6 1299.04   1
   2   9  10 11630.0 1164.36   5
  -2  -9 -11 34844.6 2049.93   1
   2   9  11 34989.0 1756.63   5
  -2  -9 -12 32709.3 2245.22   1
   2  10  -2 925.544 953.398   5
   2  10  -1 23282.6 1669.63   5
   2  10  -1 20519.8 1738.27   3
   2  10   0 45103.8 2207.44   5
   2  10   0 47854.0 2317.98   3
   2  10   1 28311.9 1765.41   5
   2  10   1 31030.9 1868.82   3
   2  10   2 28254.2 1761.56   5
   2  10   2 29958.1 1753.18   3
  -2 -10  -2 26368.3 1339.70   4
   2  10   3 29093.7 1753.04   5
  -2 -10  -3 27728.4 1402.28   4
   2  10   3 31329.1 1662.87   3
  -2 -10  -4 15796.5 1126.77   1
   2  10   4 19936.8 1533.67   5
  -2 -10  -4 18998.3 1275.50   4
   2  10   4 20171.3 1350.43   3
  -2 -10  -5 283.406 786.075   4
  -2 -10  -5 380.772 653.061   1
   2  10   5 284.341 715.481   5
   2  10   5 1220.20 675.301   3
   2  10   6 6259.34 1035.18   5
  -2 -10  -6 5259.38 883.800   1
   2  10   7 6207.43 1010.24   5
  -2 -10  -7 6239.41 956.242   1
   2  10   8 27098.4 1625.05   5
  -2 -10  -8 30861.9 1668.88   1
   2  10   9 77030.3 2579.87   5
  -2 -10  -9 71759.2 2472.95   1
   2  10  10 41759.5 2028.37   5
  -2 -10 -10 41562.9 2157.11   1
   2  10  11 3499.35 967.973   5
  -2 -10 -11 2982.29 1281.01   1
   2  11   1 4192.64 1117.06   5
   2  11   1 3177.28 1188.44   3
   2  11   2 218.842 902.914   5
   2  11   2 45.5800 1012.80   3
   2  11   3 8456.81 1336.04   5
   2  11   3 9083.00 1232.47   3
  -2 -11  -4 65916.0 2219.01   4
   2  11   4 74001.5 2504.22   3
   2  11   4 71845.3 2772.63   5
  -2 -11  -5 26454.7 1459.11   1
   2  11   5 30957.3 1917.92   5
  -2 -11  -5 31489.0 1675.59   4
   2  11   6 9419.42 1302.52   5
  -2 -11  -6 8184.62 1173.19   4
  -2 -11  -6 7512.77 987.527   1
   2  11   7 33235.7 1983.04   5
  -2 -11  -7 28605.7 1600.18   1
   2  11   8 16170.2 1483.23   5
  -2 -11  -8 15871.4 1404.91   1
  -2 -11  -9 567.244 913.649   1
   2  11   9 117.408 840.213   5
  -2 -11 -10 6075.84 1266.20   1
   2  11  10 5469.16 1191.86   5
   2  11  11 10877.3 1332.23   5
  -2 -11 -11 8051.85 1453.53   1
   2  12   3 29511.7 1974.60   3
   2  12   4 13317.3 1441.38   3
  -2 -12  -5 5567.71 1137.36   4
  -2 -12  -6-168.300 996.213   4
  -2 -12  -7 7545.88 1218.11   4
  -3  10   5 11317.4 1329.88   0
  -3  10   4 2428.42 1031.89   0
  -3  10   3 452.156 834.158   0
  -3  10   2 7293.56 1194.44   0
   3  -9  -9 20813.3 1807.90   4
   3  -9  -8 2846.27 1065.09   4
   3  -9  -7 3144.21 1049.16   4
   3  -9  -6 2589.04 968.366   4
  -3   9   6 3343.80 1016.68   0
   3  -9  -5 39522.5 1948.08   4
  -3   9   5 39010.1 1891.68   0
  -3   9   4 44383.7 2009.96   0
  -3   9   3 19029.7 1456.48   0
  -3   9   2 11575.3 1208.13   0
  -3   9   1 40076.4 1967.71   0
  -3   9   0 12484.6 1296.25   0
  -3   9  -1 2190.89 882.717   0
   3  -8 -10 4687.55 1158.84   4
   3  -8  -9 8527.12 1219.67   4
   3  -8  -8 19380.7 1579.51   4
   3  -8  -7 54445.8 2209.88   4
   3  -8  -6 85661.9 2653.12   4
  -3   8   6 82617.8 2532.44   0
   3  -8  -5 31865.5 1723.55   4
  -3   8   5 27850.4 1572.01   0
  -3   8   4 3952.12 900.442   0
   3  -8  -4 4336.07 895.865   4
  -3   8   3 6199.68 906.283   0
  -3   8   2 197.685 771.130   0
  -3   8   1 38504.3 1775.08   0
  -3   8   0 76950.4 2443.61   0
  -3   8  -1 51304.9 2087.64   0
  -3   8  -2 23762.8 1558.30   0
   3  -7 -12 10711.8 1594.71   1
   3  -7 -12 10902.4 1507.41   4
   3  -7 -11 20829.3 1649.75   4
   3  -7 -11 18111.6 1703.98   1
   3  -7 -10 24138.5 1640.10   4
   3  -7 -10 24437.0 1698.41   1
   3  -7  -9 31467.6 1793.35   4
   3  -7  -9 31121.1 1702.01   1
   3  -7  -8 45973.5 1983.70   4
   3  -7  -8 45648.4 1794.31   1
   3  -7  -7 27942.6 1623.59   4
   3  -7  -6 2869.27 795.420   4
  -3   7   6 3954.08 869.409   0
  -3   7   5 2609.12 679.093   0
   3  -7  -5 2188.09 730.555   4
   3  -7  -4 16054.8 1268.38   4
  -3   7   4 16342.6 1239.03   0
  -3   7   3 141705. 2933.51   0
  -3   7   2 128376. 2808.14   0
  -3   7   1 48453.0 1796.47   0
  -3   7   0 7247.94 940.011   0
  -3   7  -1 890.344 738.360   0
  -3   7  -2 435.026 784.731   0
  -3   7  -3 22877.0 1482.49   0
   3  -6 -12 6839.67 1406.67   1
   3  -6 -11 19620.9 1737.99   1
   3  -6 -10 22232.8 1660.49   1
   3  -6  -9 2286.30 660.310   2
   3  -6  -9 2199.16 953.131   1
   3  -6  -9 1878.94 977.786   4
   3  -6  -8 57542.9 1640.00   2
   3  -6  -8 54733.9 2058.32   4
   3  -6  -8 51926.4 1909.32   1
   3  -6  -7 60911.5 2057.09   4
   3  -6  -7 63695.4 1901.36   1
   3  -6  -6 53331.1 1546.00   1
  -3   6   6 52803.6 1827.96   0
   3  -6  -6 55024.8 1933.29   4
   3  -6  -5 65925.4 2043.19   4
   3  -6  -5 63915.4 1451.86   1
  -3   6   5 63390.8 1911.82   0
   3  -6  -4 67062.8 1226.03   1
  -3   6   4 63574.3 1882.55   0
   3  -6  -4 65929.4 1985.70   4
   3  -6  -3 27722.6 1399.78   4
  -3   6   3 28627.1 1324.51   0
  -3   6   2 40.4507 662.871   0
  -3   6   1 19128.3 1137.33   0
  -3   6   0 29043.7 1399.70   0
  -3   6  -1 63932.0 1988.87   0
  -3   6  -2 107735. 2588.45   0
  -3   6  -3 37600.2 1681.19   0
   3  -6   4 1334.15 901.559   6
  -3   6  -4 922.988 772.863   0
   3  -6   5 1190.99 1093.44   6
  -3   6  -5 2467.86 1133.83   3
   3  -5 -12 4094.25 1370.49   1
   3  -5 -11 6867.58 922.137   2
   3  -5 -11 7306.11 1275.24   1
   3  -5 -10 40607.8 2065.76   1
   3  -5 -10 50503.2 1733.51   2
   3  -5  -9 91194.6 2135.02   2
   3  -5  -9 79780.4 2491.24   1
   3  -5  -8 58677.0 1642.55   2
   3  -5  -8 52276.0 1930.83   1
   3  -5  -7 40193.3 1324.42   2
   3  -5  -7 39370.5 1616.68   4
   3  -5  -7 36145.6 1564.90   1
   3  -5  -6 31362.8 1165.73   2
   3  -5  -6 29662.1 1395.11   4
   3  -5  -6 30742.3 1297.41   1
  -3   5   6 31761.4 1398.95   0
   3  -5  -5 101.501 529.846   1
  -3   5   5 224.403 556.147   0
   3  -5  -5 780.808 752.232   4
   3  -5  -4 168225. 1971.45   1
  -3   5   4 168099. 2759.28   0
   3  -5  -3 203289. 3042.52   4
   3  -5  -3 201192. 1670.90   1
  -3   5   3 194835. 2932.63   0
  -3   5   2 34968.1 1366.01   0
  -3   5   1 85573.9 2029.23   0
  -3   5   0 61526.2 1789.57   0
  -3   5  -1 4417.82 769.231   0
  -3   5  -2-198.728 657.200   0
  -3   5  -3 1626.75 672.922   0
  -3   5  -4 4630.29 870.380   0
   3  -5   4 4414.29 884.794   6
   3  -5   5 50871.4 2205.43   6
  -3   5  -5 47646.8 1875.43   0
   3  -5   6 62237.2 2618.10   6
  -3   5  -6 70393.2 2725.74   3
  -3   5  -7 42633.3 2378.43   3
   3  -4 -12 43726.1 1939.90   2
   3  -4 -12 38048.1 2285.20   1
   3  -4 -11 58699.2 2054.64   2
   3  -4 -11 59141.2 2560.99   1
   3  -4 -10 14826.3 1501.02   1
   3  -4 -10 16155.4 1150.42   2
   3  -4  -9-47.1842 929.444   1
   3  -4  -9-397.873 585.452   2
   3  -4  -8-52.8418 875.600   1
   3  -4  -8 705.985 577.722   2
   3  -4  -7 34878.4 1271.71   2
   3  -4  -7 30061.9 1436.40   1
   3  -4  -6 168601. 2784.46   4
   3  -4  -6 162542. 2683.47   1
  -3   4   6 164429. 2660.20   0
   3  -4  -5 226493. 3097.26   4
   3  -4  -5 218037. 2730.79   1
  -3   4   5 221859. 2967.96   0
  -3   4   4 76774.9 1200.73   1
   3  -4  -4 74910.2 1804.22   4
   3  -4  -4 73660.0 1387.69   1
  -3   4   4 72013.9 1726.82   0
   3  -4  -3 19194.9 1023.41   4
   3  -4  -3 18838.4 599.463   1
  -3   4   3 19877.9 500.138   1
  -3   4   3 18620.1 990.821   0
   3  -4  -2 24274.7 1045.16   4
  -3   4   2 23882.4 1095.41   0
  -3   4   1 868.288 595.408   0
  -3   4   0 43528.1 1412.91   0
  -3   4  -1 96598.9 2047.37   0
   3  -4   1 101609. 1003.66   1
  -3   4  -2 60465.7 1735.90   0
  -3   4  -3 52183.5 1678.29   0
   3  -4   4 120645. 2848.06   6
  -3   4  -4 118826. 2550.19   0
  -3   4  -5 53187.8 1862.97   0
   3  -4   5 57158.5 2154.94   6
   3  -4   6 883.067 914.702   6
  -3   4  -6 135.970 711.636   0
  -3   4  -6-18.9830 862.891   3
   3  -4   7 17622.6 1544.27   6
  -3   4  -7 18928.4 1577.46   3
  -3   4  -7 16961.5 1336.52   0
  -3   4  -8 13743.4 1535.82   3
   3  -3 -13 7673.30 1279.24   2
  -3   3  12 921.631 771.332   6
   3  -3 -12 490.270 847.501   2
   3  -3 -12-11.1619 1139.10   1
   3  -3 -11 18772.5 1386.56   2
   3  -3 -11 15818.8 1583.89   1
   3  -3 -10 48646.6 2195.33   1
   3  -3 -10 55909.0 1946.17   2
   3  -3  -9 16923.4 1123.43   2
   3  -3  -9 17412.5 1402.02   1
   3  -3  -8 57734.4 1708.67   2
  -3   3   8 59301.1 1105.33   5
   3  -3  -8 57405.6 2045.29   1
   3  -3  -7 131840. 2680.56   1
   3  -3  -7 136773. 2384.77   2
   3  -3  -6 14325.9 1011.79   1
   3  -3  -6 17394.6 906.520   2
   3  -3  -5 818.209 578.097   1
   3  -3  -5 1147.96 520.522   4
   3  -3  -5 695.636 470.560   2
  -3   3   5 659.057 483.727   0
   3  -3  -4-234.448 547.220   4
  -3   3   4 16.7193 507.286   0
   3  -3  -4 471.551 395.610   1
  -3   3   4 271.247 358.801   1
   3  -3  -4 474.458 417.582   2
   3  -3  -3 38784.3 1185.15   4
   3  -3  -3 40117.6 1115.48   2
   3  -3  -3 38965.5 836.206   1
  -3   3   3 36581.3 1158.43   0
  -3   3   2 169191. 991.988   1
  -3   3   2 165532. 2301.90   0
   3  -3  -2 166997. 2335.40   4
  -3   3   1 177344. 2394.80   0
  -3   3   0 47638.8 1350.70   0
  -3   3  -1 111389. 2040.78   0
   3  -3   1 107813. 868.652   1
  -3   3  -2 44537.7 1398.51   0
   3  -3   2 43541.5 831.162   1
   3  -3   3 6252.13 851.701   6
   3  -3   3 6372.45 521.495   1
  -3   3  -3 7151.61 818.802   0
   3  -3   4 255.719 612.910   6
  -3   3  -4 418.504 574.415   0
   3  -3   5 87327.9 2437.74   6
  -3   3  -5 81147.1 2115.90   0
  -3   3  -6 102188. 2462.80   0
   3  -3   6 106357. 2884.88   6
  -3   3  -7 64788.3 2124.35   0
   3  -3   7 66967.0 2494.80   6
   3  -3   8 59313.5 2521.97   6
  -3   3  -8 56091.8 2095.20   0
  -3   3  -9 16774.9 1631.23   3
  -3   2  12 25679.6 1589.81   6
   3  -2 -12 24158.2 1665.85   2
  -3   2  11 21724.1 1365.25   6
   3  -2 -11 25085.6 1584.82   2
   3  -2 -11 22088.4 1869.70   1
   3  -2 -10 39815.3 1742.23   2
  -3   2  10 42801.1 1670.66   6
   3  -2 -10 38769.8 2066.43   1
  -3   2   9 31804.6 1355.35   6
   3  -2  -9 33874.1 1507.88   2
   3  -2  -9 30513.6 1713.52   1
  -3   2   8 4807.11 687.409   6
   3  -2  -8 4519.45 1058.12   1
   3  -2  -8 4461.60 794.964   2
   3  -2  -7 56758.5 1636.26   2
  -3   2   7 54580.0 1446.74   6
   3  -2  -7 54683.4 1865.21   1
   3  -2  -6 32953.7 1361.40   1
   3  -2  -6 33344.2 1213.39   2
   3  -2  -5 84455.5 1648.83   4
   3  -2  -5 81976.4 1761.60   1
  -3   2   5 83989.0 1597.92   0
   3  -2  -5 87942.1 1734.84   2
   3  -2  -4 146923. 1788.42   6
   3  -2  -4 143104. 2019.95   4
   3  -2  -4 139793. 1966.03   1
  -3   2   4 140141. 1943.60   0
   3  -2  -4 145254. 2045.28   2
   3  -2  -3 182073. 2173.54   2
   3  -2  -3 184573. 2235.31   4
   3  -2  -3 179734. 1836.55   1
  -3   2   3 175513. 2120.05   0
   3  -2  -2 75108.3 1391.34   2
   3  -2  -2 74386.8 1432.60   4
  -3   2   2 73810.4 1422.30   0
  -3   2   1 59.6582 437.238   0
  -3   2   0 339.965 475.110   0
  -3   2  -1 7642.54 673.956   0
   3  -2   1 7862.68 238.911   1
  -3   2  -2 135321. 2152.12   0
  -3   2  -2 141332. 1483.82   1
   3  -2   2 140676. 1359.41   1
  -3   2  -3 306281. 2667.12   1
   3  -2   3 291003. 3437.66   6
   3  -2   3 301922. 2446.41   1
  -3   2  -3 286698. 3266.57   0
   3  -2   4 96185.6 2223.21   6
  -3   2  -4 90892.8 2019.16   0
  -3   2  -4 97795.5 1823.07   1
  -3   2  -5 15615.7 997.714   1
  -3   2  -5 14291.6 992.652   0
   3  -2   5 14048.9 1088.40   6
  -3   2  -6 64978.5 1894.97   1
   3  -2   6 64332.4 2178.79   6
  -3   2  -6 61071.3 1868.46   0
   3  -2   7 4963.11 1027.81   6
  -3   2  -7 5207.10 915.835   1
  -3   2  -7 6655.12 1019.80   3
  -3   2  -7 5665.53 855.922   0
   3  -2   8 29596.8 1784.43   6
  -3   2  -8 29809.8 1574.76   0
  -3   2  -9 33352.3 1735.34   0
  -3   2  -9 39834.8 1952.68   3
   3  -2   9 36846.0 2056.10   6
   3  -1 -12 571.272 953.434   2
  -3   1  12 504.347 814.549   6
   3  -1 -11 1483.64 834.480   2
  -3   1  11 2106.75 782.889   6
   3  -1 -10 6006.41 1045.76   2
  -3   1  10 6626.44 882.878   6
   3  -1 -10 6091.84 888.135   3
   3  -1  -9 40556.1 1713.60   2
  -3   1   9 39253.3 1509.13   6
   3  -1  -9 39877.9 1526.94   3
  -3   1   8 113008. 2221.43   6
   3  -1  -8 107197. 2732.74   1
   3  -1  -8 112179. 2301.32   3
   3  -1  -8 113628. 2531.51   2
   3  -1  -7 50997.9 1623.22   2
   3  -1  -7 49698.1 1817.15   1
   3  -1  -7 50315.4 1516.30   3
  -3   1   7 49854.4 1392.36   6
   3  -1  -6 55272.3 1551.55   2
  -3   1   6 53258.9 1276.86   6
   3  -1  -6 55051.3 1693.75   1
   3  -1  -6 55258.7 1481.62   3
  -3   1   5 221364. 2222.05   6
   3  -1  -5 222088. 2760.81   2
   3  -1  -5 227544. 2935.54   1
   3  -1  -5 228181. 2392.61   6
   3  -1  -5 232734. 2734.91   3
   3  -1  -4 10196.0 691.014   2
   3  -1  -4 11367.2 615.708   0
   3  -1  -4 10169.7 591.151   4
  -3   1   4 10878.2 581.381   0
   3  -1  -4 11687.4 547.295   6
   3  -1  -3 119716. 1586.28   0
   3  -1  -3 113780. 1739.93   2
   3  -1  -3 112002. 1567.46   4
  -3   1   3 120236. 1740.21   1
   3  -1  -3 115338. 1260.31   6
  -3   1   3 108438. 1490.58   0
  -3   1   2 138705. 1773.85   2
   3  -1  -2 133632. 1674.23   0
  -3   1   2 123572. 1605.06   0
   3  -1  -2 126164. 1708.11   2
  -3   1   2 135292. 1692.17   4
   3  -1  -2 125087. 1632.75   4
  -3   1   2 133557. 1507.65   1
   3  -1  -1 180273. 1931.66   0
  -3   1   1 165689. 1888.79   0
  -3   1   1 175759. 1277.34   1
  -3   1   1 180968. 1990.05   4
   3  -1  -1 165430. 1906.06   2
  -3   1   1 180512. 1980.36   2
  -3   1   0 284631. 4704.24   1
  -3   1   0 279113. 2536.18   0
  -3   1  -1 511431. 3598.03   0
  -3   1  -1 517380. 8128.06   1
   3  -1   2 131992. 1287.76   1
  -3   1  -2 125009. 1925.44   0
   3  -1   2 125856. 1878.75   6
  -3   1  -2 127411. 1408.84   1
  -3   1  -3 932.243 436.641   1
   3  -1   3 1218.38 327.755   1
   3  -1   3 659.860 458.918   6
  -3   1  -3 1052.19 487.530   0
   3  -1   4 23637.6 1122.63   6
  -3   1  -4 23006.0 1058.35   1
  -3   1  -4 22416.2 1026.73   0
   3  -1   5 44784.9 1560.78   6
  -3   1  -5 48704.5 1566.29   1
  -3   1  -5 47383.0 1545.00   0
   3  -1   6 37665.6 1601.75   6
  -3   1  -6 34804.0 1512.69   1
   3  -1   7 109322. 2758.62   6
  -3   1  -7 106827. 2593.74   1
   3  -1   8 80144.2 2537.22   6
  -3   1  -8 77506.2 2426.30   1
  -3   1  -8 75325.8 2232.29   0
  -3   1  -9 8991.02 1044.43   3
  -3   1  -9 6700.12 989.972   0
   3  -1   9 6014.74 1028.70   6
  -3   1  -9 7942.04 1228.73   1
  -3   1 -10 5448.31 1014.23   0
   3  -1  10 6957.71 1188.53   6
  -3   1 -10 6777.50 1310.52   1
  -3   0  12 12891.2 1323.42   6
   3   0 -11 18187.0 1571.85   2
  -3   0  11 19710.4 1416.86   6
  -3   0  10 24002.8 1395.65   6
   3   0 -10 23521.2 1600.18   2
   3   0 -10 24760.9 1410.93   3
  -3   0   9 20068.0 1213.82   6
   3   0  -9 18673.4 1204.67   3
   3   0  -9 16261.6 1234.87   2
   3   0  -8 8357.33 929.269   2
  -3   0   8 10013.8 870.483   6
   3   0  -8 9828.41 900.601   3
   3   0  -7 21318.3 1219.40   2
  -3   0   7 19959.9 1008.54   6
   3   0  -7 21805.0 1124.04   3
  -3   0   6 118.172 444.506   6
   3   0  -6 255.219 553.588   2
   3   0  -6 75.8883 379.665   0
   3   0  -6 326.529 542.246   3
   3   0  -5 175318. 2169.55   6
  -3   0   5 178243. 2082.08   6
   3   0  -5 171783. 2548.67   2
   3   0  -5 172533. 2474.00   3
   3   0  -5 182742. 1909.71   0
   3   0  -4 293815. 3012.49   2
  -3   0   4 306561. 1788.13   5
   3   0  -4 322810. 2341.21   0
   3   0  -4 307787. 2460.29   6
   3   0  -4 304391. 2291.16   4
  -3   0   4 296599. 2258.12   6
   3   0  -4 312175. 3077.40   3
   3   0  -3 359760. 3061.27   2
  -3   0   3 359706. 7790.49   6
   3   0  -3 357102. 2359.05   4
  -3   0   3 358970. 2288.57   0
   3   0  -3 357128. 3114.83   3
   3   0  -3 370161. 2146.22   6
   3   0  -2 279660. 5362.05   6
   3   0  -2 276471. 2485.35   2
  -3   0   2 292313. 2520.78   2
  -3   0   2 289751. 2082.45   4
  -3   0   2 307351. 2447.87   1
   3   0  -2 298408. 2090.01   0
  -3   0   2 281922. 2045.05   0
  -3   0   2 301309. 2621.58   3
   3   0  -2 280192. 2577.51   3
  -3   0   1 30424.1 774.500   4
   3   0  -1 29554.9 849.343   2
  -3   0   1 29611.7 834.094   2
   3   0  -1 30227.7 739.511   0
  -3   0   1 28666.7 743.842   0
  -3   0   1 31109.0 886.061   3
   3   0   0 1853.42 251.877   6
   3   0   0 2333.46 372.043   0
  -3   0   0 2426.57 466.005   0
  -3   0   0 1980.38 447.699   2
   3   0   0 2288.92 379.000   2
  -3   0  -1 31463.3 607.276   1
  -3   0  -1 31677.3 897.360   2
  -3   0  -1 32884.6 925.397   0
   3   0   1 30520.6 749.805   6
   3   0   2 71734.5 1296.90   6
   3   0   2 74648.9 1020.05   1
  -3   0  -2 71343.9 1041.00   1
  -3   0  -3 121274. 1609.74   1
   3   0   3 115836. 1875.98   6
   3   0   4 183026. 2580.44   6
  -3   0  -4 184947. 2330.91   1
  -3   0  -5 218898. 2929.11   1
   3   0   5 225468. 3133.23   6
   3   0   6 99665.2 2304.78   6
  -3   0  -6 94926.2 2284.65   1
  -3   0  -7 239.059 882.395   1
   3   0   7 458.687 750.576   6
  -3   0  -7 271.048 547.539   3
   3   0   8 3193.90 868.458   6
  -3   0  -8 3651.35 1066.03   1
  -3   0  -8 2832.89 701.240   3
   3   0   9 5479.60 990.069   6
  -3   0  -9 6867.24 1257.40   1
  -3   0  -9 7488.36 873.694   3
  -3   0 -10 40323.4 2152.28   1
   3   0  10 40145.1 2108.04   6
  -3   0 -11 35395.5 2209.41   1
  -3  -1  11-316.470 825.377   6
   3   1 -11-83.4313 1058.69   2
  -3  -1  10 7208.30 1029.33   6
   3   1 -10 6763.30 1188.11   2
   3   1 -10 8005.15 1061.02   3
   3   1  -9 559.072 869.364   2
  -3  -1   9 199.113 681.167   6
   3   1  -9 127.327 736.620   3
  -3  -1   8 37276.6 1500.57   6
   3   1  -8 33659.5 1603.18   2
   3   1  -8 33822.5 1496.81   3
   3   1  -7 162190. 3058.72   2
  -3  -1   7 172001. 2774.50   6
   3   1  -7 164878. 2885.77   3
   3   1  -6 192213. 3080.31   2
  -3  -1   6 194809. 2661.45   6
   3   1  -6 189705. 2921.63   3
   3   1  -6 196007. 1858.59   0
  -3  -1   5 58424.1 1339.41   6
   3   1  -5 55202.0 1528.35   3
   3   1  -5 57128.1 1621.16   2
   3   1  -4 5779.49 335.038   0
  -3  -1   4 5484.11 241.805   5
   3   1  -4 5031.98 659.826   2
   3   1  -4 5070.64 322.710   4
  -3  -1   4 6226.61 494.644   6
   3   1  -4 5909.94 606.578   3
   3   1  -3 17513.8 449.682   4
   3   1  -3 17507.5 781.565   2
  -3  -1   3 18473.8 503.578   5
   3   1  -3 18425.5 460.677   0
   3   1  -3 19018.7 854.668   3
  -3  -1   3 18624.3 570.339   6
  -3  -1   2 113986. 943.414   6
  -3  -1   2 114898. 1291.24   5
   3   1  -2 113123. 1665.55   2
  -3  -1   2 116002. 1029.58   0
   3   1  -2 115305. 1739.84   3
   3   1  -2 114620. 1048.50   0
  -3  -1   1 360442. 2454.47   5
  -3  -1   1 366896. 2647.58   2
   3   1  -1 338849. 2581.58   2
  -3  -1   1 369700. 8029.87   0
  -3  -1   1 360681. 2771.69   3
   3   1  -1 340837. 2735.23   3
  -3  -1   0 177706. 1769.07   2
   3   1   0 176793. 1756.16   2
  -3  -1   0 179080. 1618.32   0
  -3  -1   0 184144. 1867.94   3
   3   1   1 258322. 2078.90   2
  -3  -1  -1 254258. 2093.44   2
  -3  -1  -1 257325. 2327.87   5
  -3  -1  -1 261234. 1747.38   6
  -3  -1  -1 259300. 2132.49   3
  -3  -1  -2 43763.9 878.741   1
  -3  -1  -2 43042.5 1071.90   5
   3   1   2 40913.2 909.467   6
   3   1   3 90970.3 1515.11   6
  -3  -1  -3 95157.3 1597.47   5
   3   1   3 95565.2 1383.00   1
  -3  -1  -3 92482.2 1407.40   1
   3   1   4 54153.6 1348.90   6
  -3  -1  -4 56038.5 1295.79   1
   3   1   5 23754.9 1035.83   6
  -3  -1  -5 24507.3 1074.22   1
   3   1   6 87538.6 2077.36   6
  -3  -1  -6 86127.4 2038.24   1
  -3  -1  -7 41577.5 1719.63   1
  -3  -1  -7 46359.5 1241.81   3
   3   1   7 40859.7 1574.67   6
  -3  -1  -8 46290.8 1345.13   3
  -3  -1  -8 43585.8 1970.85   1
   3   1   8 43933.3 1780.25   6
   3   1   9 104273. 2814.94   6
  -3  -1  -9 101836. 3001.05   1
   3   1  10 58221.7 2284.52   6
  -3  -1 -10 53890.9 2434.22   1
   3   1  11 49.9254 885.397   6
  -3  -1 -11-107.395 1282.01   1
  -3  -1 -12 881.612 1314.63   1
  -3  -2  11 24830.8 1752.54   6
   3   2 -11 26585.0 1808.13   3
   3   2 -10 13436.1 1487.24   2
   3   2 -10 16065.3 1376.31   3
  -3  -2  10 13390.6 1296.55   6
   3   2  -9 53719.5 2233.93   2
  -3  -2   9 53552.5 2016.60   6
   3   2  -9 53038.5 2092.41   3
   3   2  -8 76118.6 2428.55   2
  -3  -2   8 78578.5 2216.87   6
   3   2  -8 77096.6 2314.81   3
   3   2  -7 13491.7 1159.64   2
   3   2  -7 12487.9 1041.99   3
  -3  -2   7 13822.2 1005.12   6
   3   2  -6 13396.5 1046.24   2
  -3  -2   6 14445.1 957.820   6
   3   2  -6 14916.0 1091.04   3
   3   2  -5 47599.0 1614.59   2
   3   2  -5 50801.8 642.606   0
  -3  -2   5 50682.0 1390.80   6
   3   2  -5 48888.2 1556.06   3
  -3  -2   4 116274. 1819.96   6
   3   2  -4 116533. 2183.78   2
   3   2  -4 120354. 1189.85   5
   3   2  -4 114565. 2146.28   3
   3   2  -3 377439. 3514.97   2
   3   2  -3 391808. 2363.94   5
  -3  -2   3 388544. 2832.25   6
   3   2  -3 387890. 3591.56   3
  -3  -2   2 332610. 2182.84   6
   3   2  -2 319380. 2907.23   2
  -3  -2   2 331032. 2237.98   5
   3   2  -2 329936. 2303.17   5
   3   2  -2 322931. 3045.61   3
  -3  -2   1 103744. 1524.25   2
   3   2  -1 93747.9 1436.72   2
  -3  -2   1 97512.6 821.358   0
  -3  -2   1 100644. 1353.11   5
   3   2  -1 95643.8 1326.24   5
  -3  -2   1 102103. 1613.45   3
   3   2  -1 94660.8 1552.86   3
   3   2   0 13598.6 618.683   5
   3   2   0 13753.6 564.906   2
  -3  -2   0 13577.8 578.468   2
  -3  -2   0 13393.2 637.156   3
   3   2   0 13867.1 647.712   3
  -3  -2   0 13529.9 637.213   5
  -3  -2  -1 123945. 1364.97   2
   3   2   1 117590. 1335.73   2
  -3  -2  -1 122923. 1667.52   5
   3   2   1 117528. 1622.41   5
  -3  -2  -1 124873. 1493.79   3
   3   2   1 121218. 1467.56   3
  -3  -2  -1 123427. 1156.78   6
   3   2   2 8602.65 446.247   6
  -3  -2  -2 8387.20 531.834   1
  -3  -2  -2 8239.15 444.020   2
  -3  -2  -2 8273.82 567.406   5
  -3  -2  -2 9309.95 509.415   6
  -3  -2  -2 8599.15 474.952   3
   3   2   2 8417.59 579.252   5
  -3  -2  -3 116255. 1654.14   6
   3   2   3 119261. 1592.89   1
  -3  -2  -3 111243. 1597.28   1
   3   2   3 107663. 1558.71   6
   3   2   3 110706. 1723.56   5
  -3  -2  -3 116681. 1771.82   5
  -3  -2  -3 114249. 1255.21   3
   3   2   4 240910. 2634.44   6
  -3  -2  -4 241834. 2566.12   1
   3   2   5 68710.8 1634.13   6
  -3  -2  -5 68595.0 1580.98   1
   3   2   6 106194. 2176.25   6
  -3  -2  -6 107909. 2167.83   1
   3   2   7 96938.4 2265.72   6
  -3  -2  -7 94179.1 2284.52   1
  -3  -2  -8 15025.3 701.923   3
  -3  -2  -8 13039.2 1225.40   1
   3   2   8 13469.3 1130.62   6
  -3  -2  -9 18275.6 1529.14   1
   3   2   9 19993.6 1367.99   6
   3   2  10 36993.0 1826.38   6
  -3  -2 -10 35535.1 2115.53   1
   3   2  11 19619.7 1553.83   6
  -3  -2 -11 17759.8 1888.93   1
  -3  -2 -12 19232.7 2044.13   1
   3   3 -10 9339.88 1336.14   3
  -3  -3  10 6892.97 1178.21   6
  -3  -3   9 1335.75 806.820   6
   3   3  -9 1484.44 969.848   2
   3   3  -9 715.878 796.388   3
  -3  -3   8 51359.5 1955.01   6
   3   3  -8 55186.8 2162.85   3
   3   3  -8 55931.9 2238.02   2
   3   3  -7 84002.3 2452.01   3
  -3  -3   7 83667.4 2251.24   6
   3   3  -7 80043.4 2461.76   2
  -3  -3   6 98733.8 2275.04   6
   3   3  -6 100334. 2477.74   3
   3   3  -6 94493.7 2482.37   2
  -3  -3   5 77460.9 1859.57   6
   3   3  -5 80694.1 1130.08   5
   3   3  -5 76046.6 2067.80   3
   3   3  -5 79854.2 2110.47   2
  -3  -3   4 41903.2 1300.75   6
   3   3  -4 43232.3 920.316   5
   3   3  -4 43140.4 1511.61   3
   3   3  -4 42404.3 1495.83   2
  -3  -3   3 18399.4 809.488   6
   3   3  -3 17258.0 946.784   3
   3   3  -3 18655.3 663.450   5
   3   3  -3 18143.0 962.210   2
   3   3  -2 24999.5 770.434   5
   3   3  -2 24335.7 975.009   2
   3   3  -2 26344.0 1064.02   3
   3   3  -1 11691.6 647.253   2
   3   3  -1 11261.3 581.530   5
  -3  -3   1 12039.7 599.454   5
  -3  -3   1 10183.4 218.523   0
   3   3  -1 10595.3 681.953   3
   3   3   0 28848.9 796.864   2
  -3  -3   0 30323.7 897.496   5
  -3  -3   0 31776.7 957.578   3
   3   3   0 28735.6 920.775   3
   3   3   0 29538.6 871.162   5
  -3  -3   0 28866.7 815.794   2
  -3  -3  -1 456483. 2607.15   2
  -3  -3  -1 453892. 3285.38   5
  -3  -3  -1 459177. 3031.59   3
   3   3   1 448863. 10178.7   2
   3   3   1 446859. 2982.69   3
   3   3   1 444638. 3268.71   5
  -3  -3  -2 524635. 3024.70   6
   3   3   2 518872. 2506.46   2
   3   3   2 504737. 3605.44   5
  -3  -3  -2 517413. 11535.9   3
   3   3   2 517412. 11484.5   3
  -3  -3  -2 514205. 9999.69   2
  -3  -3  -3 236771. 2444.01   1
  -3  -3  -3 238478. 1680.23   2
   3   3   3 230246. 2231.48   6
  -3  -3  -3 239440. 1781.59   3
   3   3   3 235895. 2538.71   5
   3   3   4 1344.84 416.669   6
   3   3   4 1770.17 473.016   5
  -3  -3  -4 1755.51 483.164   1
  -3  -3  -4 1895.50 226.909   3
   3   3   5 4628.24 536.754   5
   3   3   5 5071.72 603.610   6
  -3  -3  -5 5208.90 253.081   3
  -3  -3  -5 5177.16 685.612   1
   3   3   6 1211.10 572.694   6
  -3  -3  -6 859.148 631.014   1
   3   3   6 993.632 482.992   5
  -3  -3  -6 1028.38 170.648   3
   3   3   7 52287.9 1666.19   6
  -3  -3  -7 51334.3 713.226   3
  -3  -3  -7 51891.2 1751.90   1
   3   3   8 125134. 2713.16   6
  -3  -3  -8 129945. 1241.59   3
  -3  -3  -8 123790. 2783.12   1
   3   3   9 71359.6 2242.70   6
  -3  -3  -9 70508.9 2407.33   1
   3   3  10 23815.8 1478.96   6
  -3  -3 -10 22480.2 1755.61   1
   3   3  11 21344.0 1501.83   6
  -3  -3 -11 18844.8 1841.71   1
  -3  -3 -12 12161.4 1727.76   1
   3   3  12 11932.6 1427.55   6
  -3  -4  10 35040.7 2064.72   6
  -3  -4   9 56105.2 2321.09   6
   3   4  -9 54892.0 2487.22   3
   3   4  -8 6773.31 1173.73   2
  -3  -4   8 7025.27 1060.54   6
   3   4  -8 5529.12 1031.59   3
  -3  -4   7 8825.52 1078.09   6
   3   4  -7 7773.96 1151.44   3
   3   4  -7 8985.98 1237.09   2
  -3  -4   6 14900.8 1143.34   6
   3   4  -6 13315.7 1237.82   3
   3   4  -6 16192.8 1327.95   2
   3   4  -5 9034.24 570.408   5
  -3  -4   5 9072.28 915.854   6
   3   4  -5 9526.72 1014.35   3
   3   4  -5 8793.48 1017.31   2
   3   4  -4 109356. 1682.52   5
   3   4  -4 104983. 2425.68   3
  -3  -4   4 103647. 2141.28   6
   3   4  -4 102788. 2374.98   2
   3   4  -3 111827. 1733.48   5
   3   4  -3 112215. 2332.83   3
   3   4  -3 107930. 2208.48   2
   3   4  -2 67606.3 1375.06   5
   3   4  -2 65908.1 1712.85   3
   3   4  -2 67329.4 1624.91   2
   3   4  -1 157614. 2082.05   5
  -3  -4   1 154536. 965.853   0
  -3  -4   1 154326. 981.298   4
   3   4  -1 156887. 2372.83   3
   3   4  -1 162256. 2208.74   2
   3   4   0 100470. 1704.14   5
   3   4   0 96479.9 1511.13   2
   3   4   0 93708.7 1701.79   3
  -3  -4   0 102683. 1065.79   0
   3   4   1 22491.1 873.627   5
   3   4   1 21627.5 809.667   3
   3   4   1 20338.5 637.235   2
   3   4   2 5706.95 563.622   5
   3   4   2 5658.07 335.704   2
  -3  -4  -2 5088.54 451.427   3
   3   4   2 5916.07 475.365   3
  -3  -4  -2 5600.64 350.281   2
  -3  -4  -3 78546.6 868.609   2
  -3  -4  -3 80148.5 1556.84   1
   3   4   3 78461.6 1584.91   5
  -3  -4  -3 75977.9 1129.38   3
   3   4   3 77788.1 1131.40   3
   3   4   4 53890.9 1383.66   5
  -3  -4  -4 52773.8 789.547   3
   3   4   4 53986.1 779.585   3
  -3  -4  -4 53947.1 1379.41   1
  -3  -4  -4 52902.7 710.111   2
  -3  -4  -5 118665. 1186.71   2
   3   4   5 118098. 2033.01   5
  -3  -4  -5 109141. 769.850   3
   3   4   5 110495. 1954.93   6
  -3  -4  -5 112699. 2032.78   1
   3   4   6 220681. 2963.10   6
   3   4   6 223828. 2840.68   5
   3   4   7 71250.5 1707.75   5
   3   4   7 65245.1 1793.34   6
  -3  -4  -7 67589.9 1931.84   1
   3   4   8 18538.0 1155.50   6
   3   4   8 18534.9 977.206   5
  -3  -4  -8 17149.4 1314.25   1
   3   4   9 3299.89 758.791   6
  -3  -4  -9 2371.01 1020.45   1
   3   4  10 1156.15 756.182   6
  -3  -4 -10 574.621 1036.14   1
   3   4  11 17305.2 1348.11   6
  -3  -4 -11 16658.7 1775.85   1
   3   4  12 50238.6 2306.89   6
  -3  -4 -12 40322.8 2436.27   1
  -3  -5   9 311.674 938.872   6
   3   5  -8 6614.61 1341.28   2
  -3  -5   8 7750.40 1241.82   6
   3   5  -8 6113.50 1257.22   3
   3   5  -7 24913.0 1677.19   3
  -3  -5   7 22545.4 1568.96   6
   3   5  -7 23189.8 1707.29   2
   3   5  -6 82474.5 2649.89   3
  -3  -5   6 78588.3 2389.68   6
   3   5  -6 80557.7 2634.65   2
   3   5  -5 73800.9 2389.93   3
  -3  -5   5 71392.3 2138.09   6
   3   5  -5 73262.4 2349.60   2
  -3  -5   4 37465.4 1516.55   6
   3   5  -4 36654.1 1176.96   5
   3   5  -4 35124.4 1628.30   3
   3   5  -4 33704.0 1541.94   2
   3   5  -3 34732.1 1162.76   5
   3   5  -3 35806.1 1478.57   2
   3   5  -2 14388.6 830.838   5
   3   5  -2 12899.9 933.222   3
   3   5  -2 12277.9 904.126   2
   3   5  -1 1258.16 501.809   2
   3   5  -1 592.786 483.963   5
  -3  -5   1 761.623 227.363   0
   3   5  -1 735.060 615.996   3
   3   5   0 127240. 2123.80   5
   3   5   0 128556. 1922.32   2
   3   5   1 265550. 3033.55   5
   3   5   1 263921. 2351.90   2
   3   5   2 93900.4 1174.69   2
   3   5   2 89465.8 1587.88   3
   3   5   2 94580.2 1868.61   5
   3   5   3 102022. 952.263   2
   3   5   3 102193. 1963.64   5
  -3  -5  -3 100902. 1845.56   1
   3   5   3 104815. 1528.88   3
  -3  -5  -4 149995. 2334.27   1
   3   5   4 149737. 2391.54   5
   3   5   4 149969. 1581.61   3
  -3  -5  -5 20231.7 1042.30   1
   3   5   5 18034.6 964.654   5
   3   5   5 18492.8 459.121   3
  -3  -5  -6 31239.8 522.225   2
   3   5   6 35363.4 1280.67   5
  -3  -5  -6 34599.4 1369.66   1
   3   5   7 20471.0 1136.61   6
   3   5   7 20238.8 1055.21   5
  -3  -5  -7 19573.6 1149.57   1
  -3  -5  -8 1205.81 748.061   1
   3   5   8 1619.12 645.753   6
   3   5   8 2105.58 606.851   5
   3   5   9 53761.0 1614.06   5
  -3  -5  -9 50398.9 2004.30   1
   3   5   9 47280.0 1802.04   6
   3   5  10 91774.6 2587.53   6
  -3  -5 -10 97494.1 2902.72   1
   3   5  11 40503.2 1952.42   6
  -3  -5 -11 34912.8 2101.48   1
   3   5  12 7846.53 1215.42   6
  -3  -5 -12 5293.94 1539.51   1
  -3  -6   8 19062.8 1688.56   6
  -3  -6   7 33193.6 1923.11   6
   3   6  -7 38757.4 2171.13   3
   3   6  -7 35714.6 2146.54   2
   3   6  -6 1085.32 924.627   2
   3   6  -6 1006.32 1016.24   3
  -3  -6   6 1547.29 893.419   6
   3   6  -5 58.1601 728.669   2
  -3  -6   5 108.013 818.054   6
   3   6  -5 518.730 852.475   3
  -3  -6   4 608.317 727.197   6
   3   6  -4 1118.54 542.809   5
   3   6  -4 967.652 733.166   2
   3   6  -4 823.933 773.804   3
   3   6  -3 32202.1 1272.63   5
   3   6  -3 28670.2 1444.35   2
   3   6  -3 29692.8 1589.97   3
   3   6  -2 129358. 2378.68   5
   3   6  -2 122087. 2701.85   3
   3   6  -2 124735. 2526.86   2
   3   6  -1 281874. 3452.86   5
   3   6  -1 268395. 3739.14   3
  -3  -6   1 285382. 2045.52   0
   3   6  -1 273060. 3376.58   2
   3   6   0 128850. 2367.43   5
  -3  -6   0 129397. 1562.66   4
   3   6   0 123846. 2425.35   3
   3   6   0 126359. 2094.82   2
   3   6   1 4926.71 691.594   5
   3   6   1 4451.29 698.092   3
  -3  -6  -1 5429.68 510.015   0
   3   6   1 5101.76 522.121   2
   3   6   2 1598.97 325.713   2
   3   6   2 1568.86 538.758   5
   3   6   2 1481.55 521.457   3
   3   6   3 892.267 208.594   2
   3   6   3 1365.98 605.311   5
   3   6   3 1197.14 446.409   3
   3   6   4 45023.1 1480.56   5
   3   6   4 45816.2 1083.81   3
  -3  -6  -4 41446.4 1395.34   1
   3   6   5 153284. 1630.90   3
   3   6   5 148997. 2626.11   5
   3   6   6 59537.3 1706.90   5
   3   6   6 60529.8 755.053   3
  -3  -6  -6 61587.4 1770.38   1
   3   6   7 43113.6 1508.12   5
  -3  -6  -7 40891.0 1627.91   1
   3   6   8 113599. 2385.56   5
  -3  -6  -8 107597. 2616.68   1
   3   6   9 31214.6 1358.31   5
  -3  -6  -9 31301.2 1715.55   1
   3   6  10 107.030 574.564   5
  -3  -6 -10 248.369 1003.86   1
   3   6  11 14123.5 1247.98   6
   3   6  11 17222.1 1115.80   5
  -3  -6 -11 18157.7 1735.72   1
   3   6  12 31300.2 1894.23   6
  -3  -6 -12 28276.5 2175.73   1
  -3  -7   6 26660.5 1836.07   6
   3   7  -6 25187.9 1906.61   2
   3   7  -5 23713.2 1749.75   3
  -3  -7   5 24568.3 1642.17   6
   3   7  -5 22923.1 1687.57   2
  -3  -7   4 37549.1 1820.29   6
   3   7  -4 40644.6 2053.87   3
   3   7  -4 37918.7 1884.54   2
   3   7  -3 93304.2 2263.47   5
   3   7  -3 90472.8 2730.05   3
   3   7  -2 32302.4 1418.23   5
   3   7  -2 30364.7 1597.85   3
   3   7  -2 31018.1 1456.12   2
   3   7  -1 320.486 614.673   2
   3   7  -1 717.322 624.161   5
   3   7  -1 1077.35 727.951   3
   3   7   0 10649.6 972.134   5
  -3  -7   0 10919.2 635.262   4
   3   7   0 9913.63 980.853   3
   3   7   0 10579.3 821.315   2
   3   7   1 38394.6 1493.78   5
  -3  -7  -1 38323.7 1088.10   4
   3   7   1 39606.8 1513.81   3
   3   7   1 39585.0 1201.77   2
   3   7   2 145712. 1900.88   2
   3   7   2 141412. 2729.07   5
   3   7   2 146801. 2545.28   3
   3   7   3 121693. 1399.82   2
   3   7   3 119911. 2523.86   5
   3   7   3 119496. 2139.08   3
  -3  -7  -4 23141.6 1147.31   1
   3   7   4 21372.2 341.357   2
   3   7   4 23494.3 1180.21   5
   3   7   4 22234.4 919.184   3
  -3  -7  -5 33094.6 1359.41   1
   3   7   5 34213.3 1417.26   5
   3   7   5 36704.9 1014.86   3
  -3  -7  -6 50835.1 1714.57   1
   3   7   6 51536.5 1746.41   5
   3   7   6 51760.2 1007.45   3
  -3  -7  -7 2243.43 706.098   1
   3   7   7 2504.10 696.770   5
   3   7   8 19177.4 1213.42   5
  -3  -7  -8 19737.8 1344.27   1
   3   7   9 61517.6 1944.91   5
  -3  -7  -9 63292.3 2212.91   1
   3   7  10 75246.7 2162.49   5
  -3  -7 -10 74013.7 2589.60   1
   3   7  11 52523.3 1863.77   5
  -3  -7 -11 50296.8 2307.36   1
  -3  -7 -12 24928.9 1945.44   1
  -3  -8   5 26809.4 1861.79   6
   3   8  -5 24439.5 1876.53   2
  -3  -8   4 3836.17 1015.64   6
   3   8  -4 3693.82 1022.29   2
   3   8  -4 4073.12 1151.09   3
   3   8  -3 37793.6 1674.33   5
   3   8  -3 35703.9 2000.39   3
   3   8  -3 39344.0 1903.87   2
   3   8  -2 19059.4 1275.93   5
   3   8  -2 17312.4 1367.73   3
   3   8  -2 18846.6 1325.38   2
   3   8  -1 58258.4 1988.90   5
   3   8  -1 55151.4 2157.29   3
   3   8  -1 54150.3 1856.60   2
   3   8   0 72245.9 2166.50   5
   3   8   0 73999.3 2325.36   3
   3   8   0 74248.4 1941.71   2
   3   8   1 73833.8 2190.74   5
  -3  -8  -1 74522.4 1600.00   4
   3   8   1 72968.8 2171.97   3
   3   8   1 76457.1 1769.85   2
   3   8   2 25410.6 1397.68   5
  -3  -8  -2 24281.9 1064.79   4
   3   8   2 26091.0 1332.02   3
   3   8   2 26823.2 972.264   2
   3   8   3 4640.38 435.339   2
   3   8   3 5873.04 884.625   5
   3   8   3 4723.42 690.409   3
  -3  -8  -4 6340.90 767.105   1
   3   8   4 6453.79 909.915   5
   3   8   4 6610.49 703.334   3
   3   8   5 8429.33 955.607   5
  -3  -8  -5 9188.18 945.497   1
   3   8   5 7966.70 661.456   3
  -3  -8  -6 45464.0 1704.29   1
   3   8   6 45646.4 1774.22   5
   3   8   6 45342.7 1164.65   3
   3   8   7 117641. 2747.82   5
  -3  -8  -7 116097. 2705.67   1
   3   8   8 60452.1 2032.31   5
  -3  -8  -8 60177.8 2088.57   1
   3   8   9 8252.98 976.284   5
  -3  -8  -9 7747.47 1061.20   1
   3   8  10 17945.5 1252.82   5
  -3  -8 -10 20505.0 1630.60   1
  -3  -8 -11 2330.37 1055.94   1
   3   8  11 1774.72 747.086   5
  -3  -8 -12 19448.8 1805.98   1
   3   9  -4 62121.5 2700.18   2
   3   9  -3 46222.0 2205.45   2
   3   9  -2 15855.2 1324.00   5
   3   9  -2 14766.1 1562.38   3
   3   9  -2 18400.9 1441.80   2
   3   9  -1 14312.6 1220.45   5
   3   9  -1 11278.2 1246.54   3
   3   9  -1 14125.4 1174.73   2
   3   9   0-6.19056 632.337   2
   3   9   0 345.921 777.877   5
   3   9   0 298.849 796.056   3
   3   9   1 34275.0 1729.80   5
   3   9   1 35338.0 1731.50   3
   3   9   1 37115.8 1404.83   2
   3   9   2 53091.5 2020.06   5
  -3  -9  -2 54558.3 1571.15   4
   3   9   2 54058.7 1975.15   3
  -3  -9  -3 25097.6 1280.20   1
   3   9   3 29256.1 1535.80   5
  -3  -9  -3 28131.8 1254.44   4
   3   9   3 28502.7 1422.27   3
  -3  -9  -4 57982.2 1859.05   1
   3   9   4 59177.1 2151.82   5
   3   9   4 61387.8 1836.21   3
  -3  -9  -5 100019. 2455.59   1
   3   9   5 106847. 2782.62   5
   3   9   5 107707. 2222.45   3
  -3  -9  -6 28203.6 1484.58   1
   3   9   6 29646.9 1575.38   5
   3   9   7 221.105 674.688   5
  -3  -9  -7 21.1181 672.012   1
   3   9   8 8068.45 1078.33   5
  -3  -9  -8 6843.05 1024.89   1
  -3  -9  -9 22329.4 1530.72   1
   3   9   9 23999.6 1520.02   5
   3   9  10 36284.6 1762.52   5
  -3  -9 -10 34608.4 1969.15   1
   3   9  11 38256.5 1869.17   5
  -3  -9 -11 36209.5 2181.67   1
  -3  -9 -12 18250.2 1947.30   1
   3  10  -2 6608.07 1201.03   5
   3  10  -1 44003.1 2114.37   5
   3  10  -1 41080.6 2212.54   3
   3  10   0 46654.4 2173.08   5
   3  10   0 45817.5 2269.56   3
   3  10   1 45841.1 2089.25   5
   3  10   1 45241.8 2132.51   3
   3  10   2 29859.7 1773.34   5
   3  10   2 28421.0 1640.62   3
  -3 -10  -3 21035.9 1287.47   1
   3  10   3 24689.7 1573.66   5
  -3 -10  -3 22678.9 1239.75   4
   3  10   3 23463.7 1445.56   3
   3  10   4 4510.46 982.224   5
  -3 -10  -4 5429.26 866.492   1
  -3 -10  -4 4751.85 864.976   4
   3  10   4 6347.82 895.986   3
   3  10   5 32219.6 1727.84   5
   3  10   5 31874.4 1445.95   3
  -3 -10  -5 28577.1 1491.86   1
  -3 -10  -6 44897.6 1849.06   1
   3  10   6 46390.9 2027.50   5
   3  10   7 33707.8 1837.20   5
  -3 -10  -7 30926.5 1636.98   1
   3  10   8 43819.6 2046.09   5
  -3 -10  -8 46402.6 2005.73   1
   3  10   9 33581.3 1844.49   5
  -3 -10  -9 35596.3 1931.55   1
   3  10  10 11728.8 1324.53   5
  -3 -10 -10 13642.6 1431.24   1
  -3 -10 -11 178.409 1066.30   1
   3  10  11 138.187 806.509   5
   3  10  12 3023.73 974.823   5
   3  11   0-370.922 963.504   5
   3  11   1 362.912 958.336   5
   3  11   1 681.532 852.426   3
   3  11   2 8269.68 1266.36   5
   3  11   2 7987.41 1173.81   3
  -3 -11  -3 42912.6 1811.67   1
   3  11   3 50768.6 2373.54   5
   3  11   3 48989.1 2153.71   3
  -3 -11  -4 36165.2 1701.10   1
   3  11   4 42858.0 2217.41   5
  -3 -11  -4 38648.6 1715.70   4
   3  11   4 41045.9 1895.45   3
  -3 -11  -5 14425.5 1238.66   1
   3  11   5 19389.4 1559.65   5
  -3 -11  -5 17431.9 1350.22   4
   3  11   6 19691.7 1621.41   5
  -3 -11  -6 19484.3 1399.77   1
   3  11   7 13191.3 1414.69   5
  -3 -11  -7 12475.0 1277.97   1
   3  11   8 559.073 861.191   5
  -3 -11  -8-133.537 885.388   1
  -3 -11  -9 3490.57 1036.20   1
   3  11   9 2723.19 972.050   5
   3  11  10 21765.8 1746.29   5
  -3 -11 -10 19884.6 1692.85   1
   3  11  11 15722.0 1529.26   5
   3  12   3 14842.4 1546.59   3
  -3 -12  -6 3117.91 941.275   1
  -3 -12  -6 4390.75 1046.51   4
  -3 -12  -7 17515.3 1598.68   4
  -3 -12  -7 14102.7 1374.16   1
  -3 -12  -8 23573.9 1697.10   1
  -3 -12  -9 6061.91 1209.11   1
   4  -9  -7 623.701 900.526   4
  -4   9   7-313.647 902.172   0
   4  -9  -6 17168.5 1613.22   4
  -4   9   6 17162.0 1550.86   0
  -4   9   5 67681.3 2568.56   0
  -4   9   4 38653.1 2039.81   0
  -4   9   3 10857.5 1298.18   0
  -4   9   2 8557.85 1263.46   0
  -4   9   1 7237.49 1147.29   0
   4  -8  -9 17479.5 1572.45   4
   4  -8  -8 15336.6 1465.10   4
   4  -8  -7 30218.3 1782.90   4
  -4   8   7 29606.7 1698.63   0
   4  -8  -6 43842.7 2028.90   4
  -4   8   6 42939.7 2003.87   0
  -4   8   5 4890.09 965.156   0
   4  -8  -5 5715.91 1101.78   4
  -4   8   4 50.1006 755.654   0
  -4   8   3 1376.63 833.788   0
  -4   8   2 17807.0 1414.61   0
  -4   8   1 40246.0 1923.46   0
  -4   8   0 52457.1 2207.53   0
  -4   8  -1 19467.2 1523.04   0
  -4   8  -2 13118.5 1422.63   0
   4  -7 -11 12563.5 1460.50   4
   4  -7 -10 9848.72 1392.81   4
   4  -7  -9 24415.0 1639.63   4
   4  -7  -8 22121.6 1580.28   4
   4  -7  -7 141.219 812.203   4
  -4   7   7 305.270 839.606   0
   4  -7  -6 15102.4 1298.99   4
  -4   7   6 16345.5 1313.57   0
   4  -7  -5 23153.1 1494.53   4
  -4   7   5 25066.8 1465.65   0
  -4   7   4 67902.2 2205.91   0
  -4   7   3 115700. 2812.07   0
  -4   7   2 66750.1 2230.23   0
  -4   7   1 3189.70 850.052   0
  -4   7   0 4235.05 947.571   0
  -4   7  -1 1080.47 771.480   0
  -4   7  -2 6759.88 1112.88   0
  -4   7  -3 38844.5 1970.92   0
   4  -6 -12 730.360 1009.38   4
   4  -6 -12 829.754 1154.53   1
   4  -6 -11 580.419 995.817   1
   4  -6 -11 677.118 979.841   4
   4  -6 -10 4784.54 1033.18   1
   4  -6 -10 4169.68 1022.91   4
   4  -6  -9 5179.72 971.532   1
   4  -6  -9 8613.04 933.881   2
   4  -6  -9 6260.22 1137.74   4
   4  -6  -8 58416.1 1814.91   2
   4  -6  -8 58951.7 2206.44   4
   4  -6  -8 54158.3 1857.08   1
   4  -6  -7 70096.2 2271.63   4
  -4   6   7 70444.5 2229.74   0
   4  -6  -6 43464.0 1835.05   4
  -4   6   6 44220.4 1762.53   0
   4  -6  -5 47658.6 1827.33   4
  -4   6   5 49560.9 1784.56   0
   4  -6  -4 80989.1 2303.45   4
  -4   6   4 80160.8 2207.95   0
  -4   6   3 1106.37 803.798   0
  -4   6   2 58526.2 1940.91   0
  -4   6   1 37940.2 1667.40   0
  -4   6   0 55937.6 1960.49   0
  -4   6  -1 71600.6 2238.50   0
  -4   6  -2 54980.3 2068.48   0
  -4   6  -3 12065.5 1195.85   0
   4  -6   3 13149.5 1282.00   6
   4  -6   4 95.9303 973.320   6
  -4   6  -4 75.0471 843.948   0
  -4   6  -5 78.6961 919.638   0
   4  -5 -12 6352.15 1414.37   1
   4  -5 -12 5857.28 1240.04   4
   4  -5 -11 11837.1 1168.11   2
   4  -5 -11 13530.9 1351.76   4
   4  -5 -11 10353.2 1416.95   1
   4  -5 -10 53008.5 2148.71   4
   4  -5 -10 50769.5 2187.17   1
   4  -5 -10 57033.9 1965.74   2
   4  -5  -9 64696.3 1970.91   2
   4  -5  -9 61589.8 2134.44   4
   4  -5  -9 60102.1 2135.86   1
   4  -5  -8 19006.9 1149.23   2
   4  -5  -8 17564.9 1252.42   4
   4  -5  -8 15257.9 1154.86   1
   4  -5  -7 8622.32 854.486   2
   4  -5  -7 7568.46 1040.70   4
   4  -5  -7 8839.55 860.071   1
  -4   5   7 8913.80 979.446   0
  -4   5   6-63.2391 712.161   0
   4  -5  -6 218.220 491.743   1
   4  -5  -6-35.4285 552.649   2
   4  -5  -6 493.856 766.555   4
   4  -5  -5 47941.8 1190.26   1
   4  -5  -5 52345.8 1825.04   4
  -4   5   5 47957.3 1696.78   0
   4  -5  -4 124438. 2599.82   4
  -4   5   4 126082. 2597.53   0
  -4   5   3 63903.0 1855.56   0
  -4   5   2 59101.9 1802.31   0
  -4   5   1 69381.1 2007.09   0
  -4   5   0 22812.3 1307.10   0
  -4   5  -1 634.098 613.791   0
  -4   5  -2 27086.6 1428.21   0
   4  -5   3 46134.5 1938.78   6
  -4   5  -3 40447.9 1743.18   0
   4  -5   4 16979.8 1392.86   6
  -4   5  -4 15174.7 1310.57   0
   4  -5   5 36439.4 2048.19   6
  -4   5  -5 39724.1 1907.66   0
  -4   5  -6 51855.5 2237.54   0
  -4   5  -6 64824.0 2754.66   3
   4  -4 -12 28575.7 1746.31   2
   4  -4 -12 30108.6 2073.79   1
   4  -4 -11 17311.2 1386.04   4
   4  -4 -11 18504.1 1378.64   2
   4  -4 -11 15347.8 1570.21   1
   4  -4 -10 420.730 969.130   1
   4  -4 -10-315.723 719.596   2
   4  -4 -10-244.536 829.567   4
   4  -4  -9 5829.46 850.402   2
   4  -4  -9 5796.25 1049.83   1
   4  -4  -9 6941.32 970.077   4
   4  -4  -8 4645.72 875.077   1
   4  -4  -8 4823.35 785.482   2
   4  -4  -8 5090.68 902.493   4
   4  -4  -7 105544. 2263.09   2
   4  -4  -7 102692. 2385.82   4
   4  -4  -7 99497.8 2273.23   1
   4  -4  -6 251604. 3284.29   2
   4  -4  -6 249675. 3548.40   4
   4  -4  -6 238845. 3065.27   1
  -4   4   6 234384. 3330.85   0
   4  -4  -5 113915. 1859.04   1
   4  -4  -5 116929. 2429.20   4
  -4   4   5 112318. 2311.96   0
   4  -4  -4 21407.1 1128.40   4
  -4   4   4 22716.7 1170.44   0
  -4   4   4 20574.4 660.048   1
  -4   4   3 2529.98 634.450   0
   4  -4  -3 2323.10 748.614   4
  -4   4   2 4196.05 659.345   0
  -4   4   1 20273.2 1164.82   0
  -4   4   0 99028.6 2229.68   0
  -4   4  -1 80157.8 2093.73   0
  -4   4  -2 66497.6 1976.97   0
   4  -4   3 45397.9 1774.95   6
  -4   4  -3 47015.1 1763.92   0
   4  -4   4 36948.1 1742.88   6
  -4   4  -4 37603.8 1663.10   0
   4  -4   5 683.616 899.945   6
  -4   4  -5 609.295 798.465   0
   4  -4   6 28507.7 1752.25   6
  -4   4  -6 27301.7 1611.21   0
   4  -4   7 20373.5 1680.52   6
  -4   4  -7 23635.8 1837.21   3
  -4   4  -7 20328.9 1540.56   0
   4  -3 -12 6433.61 1139.46   2
   4  -3 -11 40772.7 1894.31   2
   4  -3 -10 54103.8 2306.75   1
   4  -3 -10 54745.5 2024.62   2
   4  -3  -9 39612.7 1665.44   2
   4  -3  -9 37663.0 1582.31   4
   4  -3  -9 35765.2 1772.76   1
   4  -3  -8 77467.9 2089.97   2
   4  -3  -8 76822.6 2037.61   4
   4  -3  -8 76485.5 2248.33   1
   4  -3  -7 45367.4 1562.57   2
   4  -3  -7 42081.2 1501.40   4
   4  -3  -7 41387.3 1593.89   1
   4  -3  -6 1886.64 617.171   1
   4  -3  -6 1660.47 618.327   2
   4  -3  -6 1707.13 681.682   4
  -4   3   6 1761.77 565.300   0
   4  -3  -5 24046.4 1081.90   2
   4  -3  -5 21449.7 952.796   1
   4  -3  -5 23917.9 1164.19   4
  -4   3   5 23154.1 1075.38   0
   4  -3  -4 31551.4 1153.13   2
   4  -3  -4 31589.6 1260.94   4
  -4   3   4 32999.8 932.371   1
  -4   3   4 29151.9 1179.46   0
  -4   3   3 67143.8 1648.88   0
   4  -3  -3 67316.5 1677.58   4
  -4   3   3 70018.9 995.935   1
  -4   3   2 269511. 3210.06   0
  -4   3   1 225712. 2992.98   0
  -4   3   0 51060.2 1535.96   0
  -4   3  -1 7783.59 803.416   0
   4  -3   2 1069.49 195.372   1
  -4   3  -2 547.795 577.403   0
   4  -3   3 19757.0 1201.30   6
  -4   3  -3 21154.8 1181.72   0
   4  -3   4 116103. 2710.77   6
  -4   3  -4 114253. 2568.84   0
   4  -3   5 84846.1 2521.71   6
  -4   3  -5 83250.0 2319.99   0
   4  -3   6 16167.1 1383.22   6
  -4   3  -6 15446.9 1256.31   0
   4  -3   7 31864.4 1888.93   6
  -4   3  -7 27367.3 1614.22   0
   4  -3   8 20220.7 1781.20   6
  -4   3  -8 21024.3 1697.82   3
  -4   3  -8 20117.5 1514.78   0
  -4   3  -9 1123.89 1078.48   3
   4  -2 -12 16574.6 1502.67   2
  -4   2  11 6026.35 896.775   6
   4  -2 -11 5938.90 1033.34   2
   4  -2 -10 8648.01 1128.73   2
  -4   2  10 8042.10 893.094   6
   4  -2  -9 392.332 661.882   2
   4  -2  -8 19446.0 1183.16   2
   4  -2  -8 18426.5 1051.29   4
   4  -2  -7 94282.0 2195.61   2
   4  -2  -7 93554.4 1992.43   4
   4  -2  -6 50602.0 1582.09   2
   4  -2  -6 45416.5 1394.68   4
   4  -2  -5 53564.6 1517.90   2
   4  -2  -5 55282.2 1462.35   4
  -4   2   5 52719.2 1374.78   0
   4  -2  -4 187416. 2578.43   2
   4  -2  -4 183625. 2483.59   4
   4  -2  -4 191080. 2051.84   6
  -4   2   4 181681. 2401.11   0
  -4   2   3 101362. 1802.01   0
   4  -2  -3 101991. 1857.85   2
   4  -2  -3 100472. 1829.86   4
  -4   2   2 6774.53 660.190   0
   4  -2  -2 7316.34 644.521   2
  -4   2   2 8459.05 422.982   1
  -4   2   1 38809.5 1234.70   0
  -4   2   0 72034.6 1664.34   0
  -4   2  -1 48960.4 1446.40   0
   4  -2   2 179080. 2643.17   6
   4  -2   2 184668. 1415.85   1
  -4   2  -2 185964. 1611.70   1
  -4   2  -2 177810. 2717.91   0
  -4   2  -3 151575. 2637.27   0
   4  -2   3 158504. 1673.65   1
  -4   2  -3 160620. 1921.70   1
   4  -2   3 150899. 2633.56   6
   4  -2   4 50216.2 1698.81   6
  -4   2  -4 51351.3 1694.13   0
  -4   2  -4 50129.0 1330.73   1
  -4   2  -5 5771.29 783.615   1
  -4   2  -5 4380.96 826.489   0
   4  -2   5 4925.56 918.680   6
   4  -2   6 119.762 828.076   6
  -4   2  -6 209.572 709.509   1
  -4   2  -6 25.1553 638.345   0
  -4   2  -7 471.781 770.748   1
   4  -2   7 41.1683 846.954   6
  -4   2  -7 509.476 735.618   0
  -4   2  -8 33691.5 1751.16   0
   4  -2   8 35048.2 1943.72   6
   4  -2   9 66179.7 2735.51   6
  -4   2  -9 58055.4 2319.93   0
   4  -1 -12 904.913 1127.73   2
   4  -1 -11 8406.59 1165.90   2
  -4   1  10 42262.3 1624.30   6
   4  -1 -10 41996.4 1938.86   2
   4  -1 -10 40943.8 1729.47   3
   4  -1  -9 109205. 2746.94   2
  -4   1   9 110768. 2322.90   6
   4  -1  -9 111119. 2556.89   3
   4  -1  -8 83090.3 2272.80   2
  -4   1   8 83689.3 1866.20   6
   4  -1  -8 83755.9 1831.79   4
   4  -1  -8 86350.4 2178.99   3
   4  -1  -7 2199.49 740.745   2
  -4   1   7 2187.66 512.385   6
   4  -1  -7 2608.29 568.799   4
   4  -1  -7 2452.39 661.961   3
   4  -1  -6 8674.79 675.129   4
   4  -1  -6 8553.02 870.889   2
   4  -1  -5 11575.4 832.745   2
   4  -1  -5 10149.9 595.172   6
   4  -1  -5 11681.3 731.022   4
  -4   1   5 11127.7 666.713   0
   4  -1  -4 21128.9 670.022   6
   4  -1  -4 22351.7 1012.31   2
   4  -1  -4 19212.0 827.584   4
  -4   1   4 20407.0 817.576   0
  -4   1   3 48362.2 1156.59   0
   4  -1  -3 51539.7 848.478   6
   4  -1  -3 50985.9 1330.35   2
   4  -1  -3 48841.1 1188.75   4
  -4   1   3 51882.4 1246.84   1
  -4   1   2 163665. 2082.24   0
   4  -1  -2 160328. 2184.95   2
   4  -1  -1 288781. 2873.95   2
  -4   1   1 291530. 2850.82   0
  -4   1   0 266822. 5684.08   1
  -4   1   0 268842. 2825.99   0
   4  -1   1 63838.7 1305.30   6
  -4   1  -1 63190.2 1483.29   0
  -4   1  -1 65097.4 800.367   1
   4  -1   2 7050.95 640.291   6
  -4   1  -2 6294.84 710.515   0
  -4   1  -2 6635.98 432.675   1
   4  -1   3 47816.0 967.515   1
   4  -1   3 46325.5 1416.93   6
  -4   1  -3 47246.6 1462.24   0
  -4   1  -3 45994.4 1121.24   1
  -4   1  -4 52845.4 1639.18   0
  -4   1  -4 55255.0 1455.14   1
   4  -1   4 53732.6 1630.28   6
   4  -1   5 10498.9 963.469   6
  -4   1  -5 10798.5 946.354   1
  -4   1  -5 11157.9 987.818   0
   4  -1   6 29524.1 1525.69   6
  -4   1  -6 29960.3 1426.87   1
  -4   1  -6 29781.8 1418.72   0
   4  -1   7 95184.5 2646.08   6
  -4   1  -7 93932.3 2480.25   1
  -4   1  -7 90093.1 2427.10   0
   4  -1   8 28747.4 1639.47   6
  -4   1  -8 28524.2 1613.68   1
  -4   1  -8 33094.8 1601.66   3
  -4   1  -8 27567.1 1584.82   0
   4  -1   9 19238.2 1538.52   6
  -4   1  -9 19374.6 1581.30   1
  -4   1  -9 19640.8 1471.55   0
  -4   1  -9 22008.8 1445.12   3
  -4   1 -10 5709.90 1310.49   1
  -4   1 -10 5837.91 1153.87   0
   4   0 -11 47273.5 2083.91   3
   4   0 -11 47626.3 2300.86   2
  -4   0  10 7301.16 902.126   6
   4   0 -10 5636.99 1048.37   2
   4   0 -10 7009.64 1016.85   3
   4   0  -9 1680.88 772.028   2
  -4   0   9 1387.71 601.425   6
   4   0  -9 782.201 712.272   3
  -4   0   8 6077.53 713.768   6
   4   0  -8 6683.91 993.295   2
   4   0  -8 5604.24 855.638   3
  -4   0   7 1415.71 480.738   6
   4   0  -7 1346.28 697.517   2
   4   0  -7 2480.36 462.260   4
   4   0  -7 1966.72 711.462   3
  -4   0   6 80603.2 1504.73   6
   4   0  -6 81677.7 2029.63   2
   4   0  -6 81578.8 1459.40   4
   4   0  -6 85246.5 2048.79   3
   4   0  -5 200938. 2202.51   6
   4   0  -5 206692. 2964.77   2
  -4   0   5 203404. 2034.63   6
  -4   0   5 211275. 1711.30   5
   4   0  -5 210442. 2156.90   0
   4   0  -5 208617. 2188.07   4
   4   0  -5 208419. 2940.41   3
   4   0  -4 212089. 1864.89   6
  -4   0   4 207175. 1690.82   6
   4   0  -4 211404. 2777.18   2
  -4   0   4 206906. 1945.27   5
   4   0  -4 207854. 2101.62   4
  -4   0   4 203526. 1997.95   0
   4   0  -4 210605. 2794.92   3
   4   0  -3 114612. 1079.83   6
   4   0  -3 121780. 1989.47   2
   4   0  -3 124931. 1599.17   0
  -4   0   3 117612. 1521.41   0
   4   0  -2 60850.2 582.969   6
   4   0  -2 66693.2 1195.24   0
   4   0  -2 65295.7 1408.19   2
  -4   0   2 63402.9 1176.16   0
  -4   0   1 1333.66 401.839   0
   4   0  -1 1073.94 410.961   2
  -4   0   1 1445.90 405.138   4
   4   0  -1 1480.65 372.011   0
  -4   0   0 20776.6 790.105   0
   4   0   0 21105.4 559.209   6
   4   0   0 21324.1 835.439   2
  -4   0  -1 279592. 2784.10   0
   4   0   1 282877. 2312.62   6
  -4   0  -1 286315. 1928.90   1
   4   0   2 273255. 2648.27   6
  -4   0  -2 280383. 2999.41   0
  -4   0  -2 274480. 2104.62   1
   4   0   3 19621.0 893.199   6
   4   0   3 19978.2 680.072   1
  -4   0  -3 19356.1 737.298   1
  -4   0  -3 17867.4 917.063   0
   4   0   4 101990. 2054.09   6
  -4   0  -4 104079. 1771.13   1
   4   0   5 138632. 2572.76   6
  -4   0  -5 135723. 2325.43   1
  -4   0  -6 1688.53 795.846   1
   4   0   6 1543.41 688.789   6
   4   0   7 9198.96 1045.87   6
  -4   0  -7 8004.31 1122.51   1
   4   0   8 7179.36 1014.04   6
  -4   0  -8 6179.81 1140.14   1
  -4   0  -8 6618.13 850.955   3
   4   0   9 12504.6 1300.56   6
  -4   0  -9 15532.0 1483.66   1
  -4   0  -9 17016.9 1180.24   3
   4   0  10 52231.7 2402.33   6
  -4   0 -10 54001.1 2426.40   1
  -4   0 -11 57938.5 2701.92   1
  -4   0 -11 53128.6 2348.25   0
   4   1 -11 6406.93 1132.62   3
   4   1 -10 32704.8 1973.05   2
  -4  -1  10 33983.0 1630.78   6
   4   1 -10 31479.6 1731.79   3
   4   1  -9 15590.1 1292.95   2
  -4  -1   9 17725.4 1143.30   6
   4   1  -9 18937.4 1333.68   3
  -4  -1   8 18869.1 1078.91   6
   4   1  -8 20204.4 1326.75   2
   4   1  -8 19134.1 1260.28   3
   4   1  -7 76053.0 2214.78   2
  -4  -1   7 75486.2 1772.64   6
   4   1  -7 72047.0 2079.89   3
   4   1  -6 123120. 2565.90   2
  -4  -1   6 125324. 2017.63   6
   4   1  -6 127105. 1525.55   4
   4   1  -6 122044. 2513.24   3
   4   1  -5 6921.90 815.752   2
  -4  -1   5 7151.10 304.748   5
   4   1  -5 7330.24 442.479   0
   4   1  -5 7210.95 439.606   4
   4   1  -5 7046.93 824.288   3
  -4  -1   5 7350.46 563.003   6
   4   1  -4 10210.3 805.688   2
  -4  -1   4 10418.9 503.433   6
  -4  -1   4 9617.94 452.737   5
   4   1  -4 10056.6 458.437   0
   4   1  -4 10866.5 854.427   3
   4   1  -3 287.910 261.366   0
  -4  -1   3 265.844 181.332   6
  -4  -1   3 91.3956 241.110   0
   4   1  -3 40.2968 367.425   2
   4   1  -3 94.3459 483.909   3
   4   1  -2 116380. 1871.15   2
  -4  -1   2 109938. 1298.19   0
  -4  -1   2 114292. 1575.51   5
  -4  -1   2 118435. 1354.97   4
   4   1  -2 116702. 1358.01   0
   4   1  -2 113054. 1929.02   3
   4   1  -1 368598. 3092.91   2
  -4  -1   1 376856. 2547.65   0
   4   1  -1 367848. 3219.48   3
   4   1   0 385409. 3056.77   2
   4   1   0 383057. 6023.07   6
  -4  -1  -1 84745.0 1099.46   6
   4   1   1 79943.3 1065.18   6
  -4  -1  -1 78107.0 1421.15   0
  -4  -1  -1 87008.6 1483.80   3
  -4  -1  -2 8661.63 496.864   1
  -4  -1  -2 9814.65 554.135   6
   4   1   2 8929.12 526.065   6
   4   1   3 46748.2 1182.20   6
   4   1   3 48109.6 1039.33   1
  -4  -1  -3 47832.0 1075.64   1
  -4  -1  -4 502.688 424.311   1
   4   1   4 507.484 486.372   6
   4   1   5 59005.5 1649.76   6
  -4  -1  -5 63316.6 1570.21   1
   4   1   6 116600. 2450.31   6
  -4  -1  -6 118414. 2366.33   1
   4   1   7 95568.6 2436.95   6
  -4  -1  -7 89488.5 2334.29   1
   4   1   8 53601.1 2021.18   6
  -4  -1  -8 49465.8 2026.19   1
   4   1   9 68648.8 2417.37   6
  -4  -1  -9 61701.0 2438.85   1
   4   1  10 9546.85 1288.71   6
  -4  -1 -10 8168.33 1476.66   1
   4   1  11 5998.60 1196.77   6
  -4  -1 -11 3607.26 1394.39   1
   4   2 -11 27268.5 1893.94   3
   4   2 -10 13469.2 1442.23   2
   4   2 -10 14065.6 1422.28   3
   4   2  -9 12121.0 1316.82   2
  -4  -2   9 12384.6 1116.37   6
   4   2  -9 11434.6 1261.08   3
  -4  -2   8 1560.29 642.344   6
   4   2  -8 2555.99 916.012   2
   4   2  -8 1640.74 766.517   3
  -4  -2   7 9911.68 856.581   6
   4   2  -7 10890.0 1113.02   2
   4   2  -7 9920.43 977.199   3
   4   2  -6 14385.1 1144.41   2
  -4  -2   6 14601.4 876.519   6
   4   2  -6 14570.3 1128.29   3
  -4  -2   5 69782.9 1491.92   6
   4   2  -5 70519.7 1935.69   3
   4   2  -5 70939.2 1960.30   2
   4   2  -4 153568. 2574.45   2
  -4  -2   4 160175. 1936.92   6
   4   2  -4 154733. 2626.39   3
  -4  -2   3 168198. 1679.32   6
   4   2  -3 168195. 2486.98   2
   4   2  -3 166513. 2556.23   3
  -4  -2   2 154594. 1266.84   6
   4   2  -2 154779. 2214.47   2
  -4  -2   2 159903. 1207.36   0
  -4  -2   2 159747. 1856.04   5
  -4  -2   2 165601. 1229.96   4
   4   2  -2 159741. 2352.10   3
  -4  -2   1 8484.37 411.411   0
   4   2  -1 9149.88 609.460   2
  -4  -2   1 9487.82 581.800   5
   4   2  -1 8436.23 613.037   3
  -4  -2   0 21269.2 399.227   6
   4   2   0 21444.0 782.860   2
  -4  -2   0 21408.6 817.737   5
   4   2   0 20497.0 822.693   3
  -4  -2   0 22683.1 684.635   0
  -4  -2  -1 31799.6 647.470   6
  -4  -2  -1 34102.4 896.806   2
   4   2   1 30749.3 618.025   6
   4   2   1 30593.2 850.576   2
  -4  -2  -1 32443.6 941.457   3
  -4  -2  -2 45638.5 954.572   6
   4   2   2 43618.9 903.197   6
  -4  -2  -2 44326.8 1033.13   1
  -4  -2  -2 46574.7 1016.03   2
  -4  -2  -2 46366.4 1042.55   3
  -4  -2  -3 172613. 2084.91   1
  -4  -2  -3 181769. 2170.42   6
   4   2   3 168612. 2044.67   6
  -4  -2  -3 178740. 1924.42   3
  -4  -2  -3 182397. 2018.52   2
   4   2   4 208098. 2578.11   6
  -4  -2  -4 203882. 2437.56   1
   4   2   5 78410.2 1775.39   6
  -4  -2  -5 78159.2 1704.22   1
   4   2   6 67850.3 1848.27   6
  -4  -2  -6 63781.9 1756.38   1
   4   2   7 34450.4 1468.95   6
  -4  -2  -7 34103.7 1528.27   1
   4   2   8 4587.37 867.993   6
  -4  -2  -8 4859.90 1033.76   1
  -4  -2  -8 5480.96 582.999   3
   4   2   9 57416.1 2112.57   6
  -4  -2  -9 51787.2 2164.68   1
   4   2  10 62590.8 2396.21   6
  -4  -2 -10 57588.6 2524.65   1
  -4  -2 -11 28129.5 2091.22   1
   4   2  11 27930.1 1764.56   6
  -4  -2 -12 15105.7 1923.50   1
   4   3 -10-32.0307 934.942   3
   4   3  -9 29470.2 1859.00   2
  -4  -3   9 30543.9 1646.05   6
   4   3  -9 31722.5 1876.87   3
   4   3  -8 101569. 2998.37   2
  -4  -3   8 102805. 2553.38   6
   4   3  -8 98830.0 2825.59   3
   4   3  -7 29168.7 1629.35   2
  -4  -3   7 30871.5 1390.29   6
   4   3  -7 28287.1 1590.11   3
   4   3  -6 25244.0 1428.67   2
  -4  -3   6 26890.9 1219.79   6
   4   3  -6 26552.6 1438.08   3
   4   3  -5 83165.7 2237.96   2
  -4  -3   5 85375.2 1845.63   6
   4   3  -5 80961.8 2198.60   3
   4   3  -4 51328.6 1052.87   5
  -4  -3   4 49668.9 1288.79   6
   4   3  -4 47180.8 1642.49   3
  -4  -3   3 19975.0 768.635   6
   4   3  -3 19201.2 1051.19   2
   4   3  -3 19975.5 747.228   5
   4   3  -3 19309.4 1046.03   3
   4   3  -2 134112. 2174.67   2
   4   3  -2 136335. 1842.12   5
   4   3  -2 136344. 2311.32   3
   4   3  -1 78254.0 1532.52   2
  -4  -3   1 78851.3 847.188   0
   4   3  -1 78384.9 1462.20   5
   4   3  -1 76687.9 1659.60   3
   4   3   0 273631. 2744.08   5
   4   3   0 269546. 2529.78   2
   4   3   0 267124. 2788.00   3
   4   3   1 264693. 2336.06   2
   4   3   1 271344. 2831.64   5
  -4  -3  -1 271959. 1933.75   6
  -4  -3  -2 161243. 1743.06   6
  -4  -3  -2 159937. 1742.97   2
   4   3   2 155945. 1721.56   2
   4   3   2 158545. 2260.31   5
  -4  -3  -2 161909. 1906.71   3
   4   3   2 155271. 1830.23   3
  -4  -3  -3 31431.6 941.710   6
  -4  -3  -3 29608.2 988.838   1
   4   3   3 29259.7 875.174   6
  -4  -3  -3 31211.0 807.892   2
   4   3   3 29514.4 1088.59   5
  -4  -3  -3 31993.7 841.195   3
  -4  -3  -4 33269.1 1090.23   1
  -4  -3  -4 32638.8 860.813   2
   4   3   4 33191.8 1039.52   6
   4   3   4 31194.5 1136.25   5
  -4  -3  -4 33759.2 804.219   3
   4   3   5 7178.30 685.373   6
  -4  -3  -5 7097.60 431.213   3
  -4  -3  -5 7059.40 734.369   1
   4   3   6 30921.6 1258.18   6
  -4  -3  -6 32566.9 1306.73   1
  -4  -3  -6 31189.5 751.959   3
   4   3   7 170462. 2983.86   6
  -4  -3  -7 171730. 2998.84   1
   4   3   8 136835. 2879.50   6
  -4  -3  -8 136068. 2921.58   1
   4   3   9 34157.7 1678.68   6
  -4  -3  -9 30626.3 1704.47   1
   4   3  10 942.883 734.531   6
  -4  -3 -10 1281.89 1160.18   1
   4   3  11 2229.65 843.621   6
  -4  -3 -11 1223.47 1134.22   1
  -4  -3 -12-240.253 1455.78   1
   4   4  -9 19551.0 1656.42   3
   4   4  -8 4107.78 1113.64   2
  -4  -4   8 3071.99 848.272   6
   4   4  -8 3663.61 1024.85   3
  -4  -4   7-201.879 744.838   6
   4   4  -7 55.8126 804.315   2
   4   4  -7 687.821 780.263   3
  -4  -4   6 455.569 668.102   6
   4   4  -6 629.996 840.906   2
   4   4  -6 1530.26 858.006   3
   4   4  -5 25048.9 1440.67   2
  -4  -4   5 27737.4 1258.46   6
   4   4  -5 28086.4 863.799   5
   4   4  -5 25463.3 1434.04   3
   4   4  -4 65740.2 1968.77   2
  -4  -4   4 68084.3 1685.44   6
   4   4  -4 68832.8 1372.53   5
   4   4  -4 64656.9 2023.12   3
  -4  -4   3 142549. 2162.89   6
   4   4  -3 139522. 2562.61   2
   4   4  -3 143634. 2018.65   5
   4   4  -3 140555. 2697.95   3
   4   4  -2 130890. 2276.52   2
   4   4  -2 130132. 2438.79   3
   4   4  -1 59019.8 1427.23   2
   4   4  -1 60921.9 1398.72   5
  -4  -4   1 57904.5 591.572   0
   4   4  -1 60286.6 1590.72   3
   4   4   0 163202. 2295.05   5
   4   4   0 164646. 2088.02   2
   4   4   0 167301. 2382.68   3
   4   4   1 7823.94 635.031   5
   4   4   1 7462.43 504.160   2
   4   4   1 7390.22 595.943   3
  -4  -4  -1 7611.52 522.463   2
  -4  -4  -2 323946. 2440.73   2
  -4  -4  -2 331811. 2668.55   6
   4   4   2 323620. 2392.47   2
  -4  -4  -2 323528. 2866.28   3
   4   4   2 318045. 2807.67   3
   4   4   2 320844. 3321.81   5
  -4  -4  -3 228142. 2717.01   1
   4   4   3 227453. 2873.45   5
  -4  -4  -3 233273. 1923.08   2
  -4  -4  -3 231559. 2191.10   3
   4   4   3 234088. 2183.34   3
   4   4   4 109249. 2054.54   5
  -4  -4  -4 108649. 1980.96   1
  -4  -4  -4 110872. 1354.96   2
  -4  -4  -4 110195. 1386.97   3
   4   4   5 202502. 2676.76   6
  -4  -4  -5 207087. 1931.48   2
   4   4   5 209211. 2905.08   5
  -4  -4  -5 211584. 1677.44   3
  -4  -4  -5 204087. 2819.79   1
   4   4   6 91163.4 1983.25   6
   4   4   6 95108.4 2051.22   5
  -4  -4  -6 92504.9 957.956   3
  -4  -4  -6 92595.0 2090.31   1
   4   4   7 347.824 510.308   6
  -4  -4  -7-196.927 608.904   1
   4   4   7 863.824 594.204   5
  -4  -4  -7 244.134 103.009   3
  -4  -4  -7 361.779 106.310   3
   4   4   8 1608.74 705.398   6
  -4  -4  -8 1537.96 792.124   1
   4   4   9 1357.81 776.424   6
  -4  -4  -9 1799.07 840.119   1
   4   4  10 17270.1 1363.61   6
  -4  -4 -10 19054.8 1645.13   1
   4   4  11 41153.1 2012.44   6
  -4  -4 -11 40077.4 2300.80   1
   4   4  12 46000.7 2267.86   6
  -4  -4 -12 41821.6 2561.33   1
  -4  -5   8 6352.73 1094.77   6
   4   5  -8 7038.99 1299.38   3
   4   5  -7 25471.8 1760.62   2
  -4  -5   7 23899.1 1522.09   6
   4   5  -7 26893.2 1805.68   3
  -4  -5   6 94575.2 2513.76   6
   4   5  -6 98288.1 2906.15   3
   4   5  -5 51861.6 2027.30   2
  -4  -5   5 54967.8 1849.44   6
   4   5  -5 55849.8 2146.55   3
   4   5  -4 15004.5 1143.60   2
  -4  -5   4 16447.9 1052.96   6
   4   5  -4 16016.0 839.391   5
   4   5  -4 16219.1 1194.16   3
   4   5  -3 1381.67 702.356   2
   4   5  -3 1743.26 518.969   5
   4   5  -3 1468.64 773.036   3
   4   5  -2 3283.26 571.001   5
   4   5  -2 2815.21 687.825   2
   4   5  -2 3611.05 647.862   3
   4   5  -1 46761.9 1384.49   2
  -4  -5   1 44340.2 541.547   0
  -4  -5   1 44344.1 554.914   4
   4   5  -1 44120.9 1523.81   3
   4   5   0 231978. 2649.61   2
   4   5   0 247105. 3017.66   5
   4   5   0 231704. 3055.36   3
  -4  -5   0 251551. 1804.28   0
   4   5   1 115874. 1686.52   2
   4   5   1 115913. 2047.20   3
   4   5   1 117120. 2129.42   5
   4   5   2 85042.7 1280.00   2
   4   5   2 81633.9 1816.60   5
   4   5   2 79921.2 1578.24   3
   4   5   3 115189. 1313.04   2
   4   5   3 115332. 2184.87   5
   4   5   3 113924. 1705.69   3
  -4  -5  -3 116848. 1343.70   2
  -4  -5  -4 25178.0 597.501   2
  -4  -5  -4 24316.2 1118.68   1
   4   5   4 23994.1 1082.66   5
  -4  -5  -4 23180.4 746.338   3
   4   5   4 22766.6 722.882   3
  -4  -5  -5 858.221 242.140   2
   4   5   5 524.664 581.194   5
  -4  -5  -5 232.565 560.783   1
  -4  -5  -5 514.160 287.567   3
  -4  -5  -6 82518.7 1110.87   2
   4   5   6 83715.6 1975.37   5
   4   5   7 87037.3 2089.04   5
   4   5   7 83486.4 2072.57   6
  -4  -5  -7 89974.6 2262.56   1
   4   5   8 25833.1 1298.97   6
   4   5   8 25607.9 1252.32   5
  -4  -5  -8 25705.6 1457.84   1
   4   5   9 40025.8 1715.01   6
  -4  -5  -9 39342.5 1869.51   1
   4   5  10 41580.7 1878.68   6
  -4  -5 -10 47687.3 2171.15   1
   4   5  11 25685.2 1652.47   6
  -4  -5 -11 25125.7 1901.42   1
  -4  -5 -12 59.0336 1411.34   1
   4   5  12-96.8862 861.913   6
   4   6  -7 8414.85 1373.32   2
  -4  -6   7 11787.8 1316.52   6
   4   6  -7 10873.8 1404.73   3
  -4  -6   6 1209.57 821.922   6
   4   6  -6 361.136 979.321   2
   4   6  -6 569.499 869.572   3
   4   6  -5 17648.5 1448.73   2
  -4  -6   5 18071.0 1324.38   6
   4   6  -5 18149.3 1521.58   3
   4   6  -4 23466.8 1477.03   2
   4   6  -4 24697.3 1126.76   5
  -4  -6   4 23125.6 1308.97   6
   4   6  -4 23437.5 1510.80   3
   4   6  -3 63023.2 2012.17   2
   4   6  -3 64086.4 2171.06   3
   4   6  -2 165838. 2925.33   2
   4   6  -2 174925. 2772.99   5
   4   6  -2 164851. 3160.33   3
   4   6  -1 135262. 2427.79   2
   4   6  -1 137502. 2480.74   5
   4   6  -1 134724. 2724.20   3
  -4  -6   1 134367. 1124.10   0
   4   6   0 17366.8 893.081   2
  -4  -6   0 18680.8 609.359   0
   4   6   0 18098.3 1042.13   5
   4   6   0 18260.1 1056.21   3
  -4  -6  -1 2441.58 427.004   0
   4   6   1 2092.70 449.890   2
   4   6   1 2554.06 662.653   5
   4   6   1 2104.95 610.077   3
   4   6   2 7676.20 504.135   2
   4   6   2 7690.15 695.719   3
   4   6   2 8991.18 847.261   5
   4   6   3 71669.4 1084.38   2
   4   6   3 71578.9 1910.99   5
   4   6   3 72493.9 1545.79   3
   4   6   4 191503. 3012.98   5
   4   6   4 194834. 2212.44   3
   4   6   5 80426.0 2036.77   5
  -4  -6  -5 78328.0 1959.88   1
   4   6   5 80749.5 1250.73   3
  -4  -6  -6 22165.4 1212.32   1
   4   6   6 22959.2 1220.08   5
   4   6   7 27982.6 1344.83   5
  -4  -6  -7 27221.1 1415.94   1
   4   6   8 17266.7 1118.91   5
  -4  -6  -8 15441.4 1256.16   1
  -4  -6  -9 804.337 811.658   1
   4   6   9 909.786 647.356   5
   4   6  10 2469.23 908.503   6
  -4  -6 -10 2560.74 936.423   1
   4   6  10 3324.08 712.721   5
   4   6  11 18404.0 1486.30   6
  -4  -6 -11 15151.4 1640.34   1
   4   6  12 24425.6 1715.67   6
  -4  -6 -12 27481.1 2154.29   1
   4   7  -6 25025.4 1896.25   2
  -4  -7   6 24690.0 1681.65   6
   4   7  -5 31432.0 1930.97   2
  -4  -7   5 30492.7 1706.38   6
   4   7  -5 28955.0 1927.16   3
  -4  -7   4 80858.2 2438.81   6
   4   7  -4 82499.9 2795.70   3
   4   7  -4 80315.5 2578.47   2
   4   7  -3 23585.0 1247.75   5
   4   7  -3 22669.5 1552.34   3
   4   7  -3 22975.0 1417.54   2
   4   7  -2 3868.80 796.055   2
   4   7  -2 3717.94 736.622   5
   4   7  -2 3559.56 855.588   3
   4   7  -1 28608.9 1311.98   2
   4   7  -1 25619.9 1470.78   3
   4   7  -1 30283.9 1357.87   5
   4   7   0 71492.9 1766.12   2
   4   7   0 70140.9 1979.49   5
  -4  -7   0 71667.1 1201.04   4
   4   7   0 68584.6 2053.72   3
   4   7   1 61158.3 1459.12   2
   4   7   1 63149.0 1891.79   5
   4   7   1 62418.5 1837.12   3
   4   7   2 127749. 1799.88   2
   4   7   2 124618. 2611.29   5
   4   7   2 122775. 2362.93   3
   4   7   3 99766.5 1338.32   2
   4   7   3 96753.8 2323.47   5
   4   7   3 101794. 1995.91   3
  -4  -7  -4 11143.9 946.962   1
   4   7   4 11147.4 361.180   2
   4   7   4 10983.8 1027.36   5
   4   7   4 11326.5 736.419   3
   4   7   5 2122.74 734.028   5
  -4  -7  -5 1429.64 714.003   1
   4   7   5 2528.48 417.531   3
   4   7   6 23.8549 695.946   5
  -4  -7  -6-145.059 611.656   1
   4   7   6 67.5220 275.507   3
   4   7   7 5615.34 879.656   5
  -4  -7  -7 5957.30 933.432   1
   4   7   8 92541.5 2384.16   5
  -4  -7  -8 89029.7 2505.80   1
   4   7   9 104355. 2560.07   5
  -4  -7  -9 103729. 2836.28   1
   4   7  10 13502.2 1124.27   5
  -4  -7 -10 14537.5 1471.18   1
  -4  -7 -11 10755.8 1525.89   1
   4   7  11 14238.7 1133.35   5
  -4  -7 -12 14652.3 1763.22   1
   4   8  -5 361.811 971.093   2
  -4  -8   5 1283.38 951.121   6
  -4  -8   4 12644.5 1329.01   6
   4   8  -4 12704.1 1468.07   3
   4   8  -4 11004.6 1294.70   2
   4   8  -3 42949.3 1757.46   5
   4   8  -3 39750.3 2108.73   3
   4   8  -3 38820.6 1879.87   2
   4   8  -2 45830.7 1795.68   5
   4   8  -2 42047.0 2042.67   3
   4   8  -2 42335.3 1790.98   2
   4   8  -1 23190.8 1298.62   2
   4   8  -1 23602.6 1376.07   5
   4   8  -1 24544.4 1554.42   3
   4   8   0 44525.6 1557.99   2
   4   8   0 48608.2 1818.88   5
   4   8   0 49765.0 1928.35   3
   4   8   1 73817.9 1732.26   2
   4   8   1 72730.4 2188.38   5
  -4  -8  -1 68689.9 1428.58   4
   4   8   1 70871.2 2139.52   3
   4   8   2 302.825 380.805   2
   4   8   2 80.3303 623.814   5
   4   8   2-71.6202 631.698   3
   4   8   3 47360.4 1038.74   2
   4   8   3 44209.6 1778.53   5
   4   8   3 45538.1 1555.86   3
  -4  -8  -4 26713.6 1309.59   1
   4   8   4 28609.9 1161.65   3
  -4  -8  -5 26182.6 1334.48   1
   4   8   5 27115.2 1472.15   5
   4   8   5 28595.7 1055.80   3
   4   8   6 80491.6 2351.28   5
   4   8   6 83598.3 1507.09   3
   4   8   7 66135.3 2158.52   5
  -4  -8  -7 67720.0 2171.33   1
   4   8   8 28988.1 1563.70   5
  -4  -8  -8 28745.3 1629.96   1
   4   8   9 7958.58 1023.57   5
  -4  -8  -9 10144.9 1267.82   1
  -4  -8 -10 768.187 915.766   1
   4   8  10 10.6674 710.614   5
   4   8  11 9041.04 1103.52   5
  -4  -8 -11 6921.69 1408.76   1
  -4  -8 -12 25478.8 2132.25   1
   4   9  -4 33818.8 2073.08   2
  -4  -9   4 34217.3 2014.32   6
   4   9  -3 3187.48 1029.87   2
   4   9  -2 2489.06 907.700   2
   4   9  -2 2449.32 849.365   5
   4   9  -2 1301.60 1000.41   3
   4   9  -1 811.114 712.754   2
   4   9  -1 1927.27 805.375   5
   4   9  -1 728.968 803.461   3
   4   9   0 12355.6 1001.96   2
   4   9   0 15088.2 1279.72   5
   4   9   0 13421.6 1308.52   3
   4   9   1 33403.6 1725.24   5
   4   9   1 30351.2 1614.18   3
   4   9   2 45776.2 1912.30   5
  -4  -9  -2 48776.7 1413.04   4
   4   9   2 48662.2 1870.94   3
   4   9   3 55207.2 2067.61   5
   4   9   3 49510.8 1774.96   3
  -4  -9  -4 60920.3 1974.17   1
   4   9   4 66253.2 1895.00   3
  -4  -9  -5 29035.4 1506.64   1
   4   9   5 29041.6 1614.14   5
   4   9   5 30633.0 1250.50   3
   4   9   6 905.733 799.192   5
  -4  -9  -6 1383.08 716.283   1
  -4  -9  -7 7998.01 1039.20   1
   4   9   7 7132.98 1064.33   5
   4   9   8 20805.7 1443.39   5
  -4  -9  -8 19914.1 1479.70   1
   4   9   9 20901.1 1489.96   5
  -4  -9  -9 20603.1 1563.65   1
   4   9  10 33178.7 1810.76   5
  -4  -9 -10 29655.5 1878.00   1
   4   9  11 48945.2 2104.52   5
  -4  -9 -11 52953.7 2531.02   1
   4   9  12 8814.62 1158.91   5
   4  10  -1 58112.6 2392.74   5
   4  10  -1 57941.0 2635.56   3
   4  10   0 44034.2 2113.00   5
   4  10   0 44998.6 2254.22   3
   4  10   1 21469.2 1579.36   5
   4  10   1 18188.6 1445.32   3
   4  10   2 14890.3 1397.71   5
   4  10   2 14042.2 1246.73   3
   4  10   3 3989.26 977.851   5
  -4 -10  -3 4620.24 760.254   4
  -4 -10  -3 3849.50 841.601   1
   4  10   3 5068.95 923.722   3
  -4 -10  -4 12371.1 1105.08   1
   4  10   4 14871.2 1386.90   5
   4  10   4 12457.1 1104.85   3
   4  10   5 82577.9 2672.55   5
   4  10   5 86417.4 2193.68   3
   4  10   6 68468.1 2465.43   5
  -4 -10  -6 67200.0 2298.44   1
  -4 -10  -7 28266.8 1678.84   1
   4  10   7 30074.3 1774.62   5
   4  10   8 15292.0 1349.21   5
  -4 -10  -8 17030.5 1412.67   1
   4  10   9 14127.1 1385.87   5
  -4 -10  -9 12285.5 1418.58   1
  -4 -10 -10 1272.27 980.526   1
   4  10  10 294.959 802.748   5
   4  10  11 7596.74 1134.52   5
  -4 -10 -11 6948.40 1412.30   1
   4  10  12 10169.0 1280.62   5
   4  11   0 2630.19 1059.13   5
   4  11   1 5109.49 1100.66   5
   4  11   1 7101.16 1254.48   3
   4  11   2 29121.3 1862.59   5
   4  11   2 27363.1 1796.71   3
   4  11   3 60264.6 2557.33   5
   4  11   3 58591.5 2321.02   3
  -4 -11  -4 54511.6 2107.70   1
   4  11   4 55660.5 2427.49   5
  -4 -11  -5 17218.8 1398.26   1
   4  11   5 22762.2 1750.01   5
   4  11   6 1607.90 817.276   5
  -4 -11  -6 1680.01 809.126   1
  -4 -11  -7 1437.12 929.001   1
   4  11   7 835.248 761.239   5
   4  11   8 5027.88 1161.47   5
  -4 -11  -8 5542.46 1121.26   1
   4  11   9 22062.6 1723.10   5
  -4 -11  -9 22412.3 1713.09   1
   4  11  10 28122.4 1910.32   5
  -4 -11 -10 25504.9 1868.35   1
  -4 -12  -3 362.188 748.260   1
   4  12   3 194.932 912.099   3
  -4 -12  -4 5968.39 1053.92   1
  -4 -12  -5 4112.90 1014.27   1
  -4 -12  -6 9536.15 1218.52   1
  -4 -12  -6 11597.3 1308.63   4
  -4 -12  -7 28696.7 1839.89   1
  -4 -12  -8 25410.4 1808.53   1
   5  -8  -7 39426.0 2156.68   4
  -5   8   7 37820.5 2034.75   0
  -5   8   6 14685.9 1399.23   0
  -5   8   5 4487.71 1001.35   0
  -5   8   4 6964.81 1239.01   0
  -5   8   3 7615.38 1242.16   0
  -5   8   2 27295.7 1815.25   0
  -5   8   1 60970.2 2459.07   0
  -5   8   0 32120.4 1923.09   0
   5  -7 -10 568.030 1167.69   4
   5  -7  -9 4088.35 1125.00   4
   5  -7  -8-35.8901 1017.49   4
  -5   7   8-263.332 814.554   0
   5  -7  -7 15142.9 1404.46   4
  -5   7   7 17536.8 1377.95   0
   5  -7  -6 28699.6 1718.62   4
  -5   7   6 29963.0 1734.03   0
  -5   7   5 21516.6 1491.02   0
  -5   7   4 43140.2 1937.16   0
  -5   7   3 76780.8 2538.98   0
  -5   7   2 15039.4 1297.28   0
  -5   7   1 1864.91 878.234   0
  -5   7   0 19025.5 1521.67   0
  -5   7  -1 22993.1 1733.39   0
  -5   7  -2 9073.03 1244.22   0
   5  -6 -11 2025.28 1170.57   4
   5  -6 -10 5433.40 1249.72   4
   5  -6  -9 35191.0 1666.48   2
   5  -6  -9 36104.3 1898.03   4
   5  -6  -8 58270.3 2230.20   4
   5  -6  -7 44635.6 2010.96   4
  -5   6   7 42398.5 1847.41   0
   5  -6  -6 22807.4 1545.79   4
  -5   6   6 23786.4 1458.31   0
  -5   6   5 15482.5 1253.57   0
  -5   6   4-28.2535 700.487   0
  -5   6   3 40423.4 1779.60   0
  -5   6   2 62652.9 2152.62   0
  -5   6   1 60911.3 2186.94   0
  -5   6   0 39166.0 1849.91   0
  -5   6  -1 30018.3 1693.23   0
  -5   6  -2 18650.4 1490.53   0
   5  -6   3 177.814 936.418   6
  -5   6  -3 85.1030 891.058   0
  -5   6  -4 4149.80 1068.08   0
   5  -5 -11 38100.3 2003.32   4
   5  -5 -10 59975.9 2181.02   2
   5  -5 -10 60884.8 2321.65   4
   5  -5  -9 2980.49 849.225   2
   5  -5  -9 2790.25 921.723   4
   5  -5  -8 7405.69 942.295   2
   5  -5  -8 6966.00 999.581   4
   5  -5  -7 1246.22 671.572   2
   5  -5  -7 1632.21 848.126   4
  -5   5   7 935.271 754.209   0
  -5   5   6 4813.25 904.893   0
   5  -5  -6 4803.43 943.748   4
   5  -5  -5 51813.8 1902.12   4
  -5   5   5 48028.0 1793.44   0
  -5   5   4 83318.6 2277.49   0
  -5   5   3 100853. 2492.57   0
  -5   5   2 33706.6 1585.47   0
  -5   5   1 24040.6 1450.62   0
  -5   5   0 2778.97 770.937   0
  -5   5  -1 34498.7 1650.35   0
  -5   5  -2 75143.2 2386.41   0
  -5   5  -3 35605.0 1827.79   0
   5  -5   3 36912.4 1858.63   6
   5  -5   4 14206.8 1423.02   6
  -5   5  -4 13890.3 1320.34   0
  -5   5  -5 46494.5 2194.23   0
   5  -5   5 47697.3 2364.77   6
  -5   5  -6 32576.9 1991.48   0
   5  -4 -12 4140.10 1099.21   2
   5  -4 -11 502.354 874.615   2
   5  -4 -10 12088.7 1233.70   2
   5  -4 -10 11793.6 1238.49   4
   5  -4  -9 39462.4 1750.94   2
   5  -4  -9 39535.7 1757.83   4
   5  -4  -8 26488.0 1387.89   2
   5  -4  -8 24374.4 1442.43   4
   5  -4  -7 48204.6 1723.52   2
   5  -4  -7 46541.3 1758.49   4
  -5   4   7 46823.6 1694.89   0
   5  -4  -6 88523.9 2280.67   4
  -5   4   6 87876.9 2193.16   0
   5  -4  -5 43210.5 1560.66   2
   5  -4  -5 43488.9 1655.92   4
  -5   4   5 43777.8 1625.41   0
  -5   4   4 2228.81 655.812   0
  -5   4   3 8940.14 879.015   0
  -5   4   2 446.223 739.754   0
  -5   4   1 53295.5 1804.27   0
  -5   4   0 132738. 2764.63   0
  -5   4  -1 80027.0 2228.28   0
  -5   4  -2 42689.6 1743.94   0
   5  -4   3 14592.2 1253.03   6
  -5   4  -3 14618.6 1256.16   0
   5  -4   4 2578.15 908.738   6
  -5   4  -4 2970.44 858.212   0
   5  -4   5 8068.43 1204.63   6
  -5   4  -5 7877.42 1071.20   0
   5  -4   6 33751.0 2021.35   6
  -5   4  -6 31138.0 1841.11   0
  -5   4  -7 32543.0 1941.73   0
   5  -3 -12 38867.3 2144.01   2
   5  -3 -11 44362.8 2120.44   2
   5  -3 -10 24320.9 1528.34   2
   5  -3 -10 23393.5 1410.34   4
   5  -3  -9 21567.3 1413.14   2
   5  -3  -9 21719.4 1308.13   4
   5  -3  -8 26634.0 1433.89   2
   5  -3  -8 25831.4 1360.59   4
   5  -3  -7 1029.71 661.678   2
   5  -3  -7 609.950 636.252   4
  -5   3   7 629.585 603.696   0
   5  -3  -6 26794.1 1278.48   2
   5  -3  -6 24607.6 1247.64   4
  -5   3   6 23510.3 1187.11   0
   5  -3  -5 23238.6 1165.41   2
   5  -3  -5 21023.8 1160.01   4
  -5   3   5 20597.6 1117.83   0
   5  -3  -4 69402.9 1841.09   2
  -5   3   4 71741.6 1322.82   1
  -5   3   4 66262.9 1782.97   0
  -5   3   3 164115. 2720.83   0
  -5   3   3 171805. 1504.88   1
  -5   3   2 110480. 2289.17   0
  -5   3   1 73000.6 1902.74   0
  -5   3   0 7465.14 852.520   0
  -5   3  -1 9123.62 993.470   0
   5  -3   2 13580.9 1042.78   6
  -5   3  -2 14133.8 1120.44   0
   5  -3   3 63908.2 2023.92   6
  -5   3  -3 65780.9 2105.00   0
   5  -3   4 134289. 3017.88   6
  -5   3  -4 131736. 2976.49   0
   5  -3   5 75240.0 2468.12   6
  -5   3  -5 75616.3 2399.47   0
   5  -3   6 5590.72 1086.06   6
  -5   3  -6 5587.48 1055.87   0
   5  -3   7 607.758 915.107   6
  -5   3  -7 1441.91 962.010   0
  -5   3  -8 3991.34 1104.92   0
  -5   3  -8 2267.50 1092.38   3
   5  -2 -11 91.5263 885.146   2
   5  -2 -10-483.003 821.772   2
   5  -2  -9 3334.77 892.873   2
   5  -2  -9 3068.37 724.364   4
   5  -2  -8 40914.2 1718.65   2
   5  -2  -8 39694.9 1491.44   4
   5  -2  -7 83564.3 2229.03   2
   5  -2  -7 86085.8 2027.99   4
   5  -2  -6 36926.6 1474.76   2
   5  -2  -6 36239.1 1333.61   4
  -5   2   6 35527.9 1282.03   0
   5  -2  -5 73429.5 1410.42   6
   5  -2  -5 74656.6 1928.47   2
   5  -2  -5 76079.4 1812.99   4
  -5   2   5 75876.2 1755.19   0
   5  -2  -4 132535. 1749.55   6
   5  -2  -4 138144. 2458.07   2
  -5   2   4 131578. 2252.36   0
   5  -2  -3 36361.0 1298.14   2
  -5   2   3 35847.3 1258.40   0
  -5   2   3 38880.2 1033.60   1
  -5   2   2 20950.7 1021.59   0
  -5   2   2 21914.9 649.715   1
  -5   2   1 158641. 878.347   1
  -5   2   1 160032. 2555.27   0
  -5   2   0 108619. 2190.73   0
  -5   2  -1 141056. 2572.51   0
   5  -2   2 187156. 2829.55   6
  -5   2  -2 192414. 1549.71   1
  -5   2  -2 189375. 3076.67   0
   5  -2   3 54589.6 1730.58   6
  -5   2  -3 60351.2 1180.01   1
  -5   2  -3 56851.8 1833.02   0
  -5   2  -4 757.449 631.751   0
   5  -2   4 855.861 625.513   6
  -5   2  -4 987.337 536.424   1
   5  -2   5 11530.0 1109.54   6
  -5   2  -5 13050.6 1195.82   0
  -5   2  -5 14645.5 935.144   1
  -5   2  -6 9954.56 1122.79   0
   5  -2   6 10357.2 1114.94   6
  -5   2  -7 25477.8 1608.66   0
   5  -2   7 25184.7 1716.91   6
   5  -2   8 54389.7 2398.16   6
  -5   2  -8 56807.4 2326.58   0
  -5   2  -9 21489.0 1715.93   0
   5  -1 -11 7438.89 1206.20   2
   5  -1 -10 55494.1 2278.27   2
   5  -1  -9 49442.9 2042.63   2
   5  -1  -8 12908.4 1105.76   2
   5  -1  -8 12816.7 890.712   4
   5  -1  -7 9132.95 1014.50   2
   5  -1  -7 8818.16 740.976   4
   5  -1  -6 2706.54 662.078   2
   5  -1  -6 2443.12 568.291   4
  -5   1   5 2666.65 537.963   0
   5  -1  -5 1997.22 716.402   2
   5  -1  -5 2870.05 548.758   4
   5  -1  -5 2358.32 391.532   6
   5  -1  -4 69202.4 1784.67   2
   5  -1  -4 70617.0 1103.10   6
  -5   1   4 67196.9 1501.01   0
  -5   1   3 211797. 2604.23   0
   5  -1  -3 212995. 2905.88   2
   5  -1  -2 204083. 2764.85   2
  -5   1   2 208456. 2615.75   0
  -5   1   1 102677. 1934.82   0
  -5   1   0 42288.8 1313.97   0
  -5   1   0 43523.1 694.985   1
   5  -1   1 38887.2 1130.26   6
  -5   1  -1 40622.9 711.643   1
  -5   1  -1 39841.2 1353.93   0
   5  -1   2 28391.3 1102.83   6
  -5   1  -2 26973.2 1219.21   0
  -5   1  -2 27976.9 730.801   1
   5  -1   3 152641. 2564.98   6
  -5   1  -3 154155. 2746.10   0
  -5   1  -3 153513. 1917.22   1
   5  -1   4 34641.6 1423.43   6
  -5   1  -4 34309.7 1441.08   0
  -5   1  -4 34843.6 1193.61   1
   5  -1   5 50991.5 1826.09   6
  -5   1  -5 48672.8 1813.81   0
  -5   1  -5 49749.2 1555.91   1
   5  -1   6 113405. 2802.92   6
  -5   1  -6 108038. 2692.96   0
  -5   1  -6 116208. 2500.13   1
   5  -1   7 32085.2 1706.57   6
  -5   1  -7 29699.7 1647.06   0
  -5   1  -7 32983.3 1589.61   1
   5  -1   8 125.910 858.661   6
  -5   1  -8 895.749 920.548   1
  -5   1  -8 1035.43 848.694   0
  -5   1  -9-36.4192 986.092   0
   5  -1   9 614.272 951.443   6
  -5   1 -10-133.757 931.643   0
   5   0 -11 28801.3 1786.62   3
   5   0 -10 1686.16 873.466   2
   5   0 -10 796.796 890.446   3
   5   0  -9 5487.31 1101.81   2
   5   0  -9 6391.27 1012.33   3
   5   0  -8 24534.5 1528.42   2
  -5   0   8 24678.2 1068.65   6
   5   0  -8 23169.4 1376.28   3
   5   0  -7 41038.0 1701.04   2
  -5   0   7 41219.6 1163.70   6
   5   0  -7 43654.1 1220.77   4
   5   0  -7 42171.2 1674.75   3
  -5   0   6 84233.0 1423.23   6
   5   0  -6 79226.3 2120.98   2
   5   0  -6 82099.4 1560.83   4
   5   0  -6 81136.0 2123.66   3
   5   0  -5 210099. 2034.65   6
   5   0  -5 220570. 3281.51   2
  -5   0   5 208189. 2159.22   5
  -5   0   5 216439. 2350.41   0
   5   0  -5 223113. 3312.04   3
   5   0  -4 70942.9 964.194   6
  -5   0   4 69576.1 1353.50   0
   5   0  -3 417.822 123.495   6
   5   0  -3 314.500 532.841   2
  -5   0   3 675.496 413.250   0
   5   0  -2 2834.69 592.368   2
  -5   0   2 2156.61 444.284   0
   5   0  -1 16895.5 431.302   6
   5   0  -1 18330.0 913.390   2
  -5   0   1 16839.8 816.741   0
   5   0   0 187011. 1718.03   6
  -5   0   0 183435. 2436.38   0
   5   0   1 365535. 2879.04   6
  -5   0  -1 370156. 2426.48   1
  -5   0  -1 370215. 3586.97   0
   5   0   2 97167.7 1719.74   6
  -5   0  -2 97913.6 1988.91   0
  -5   0  -2 96541.1 1349.90   1
   5   0   3 20944.6 982.825   6
  -5   0  -3 20490.1 1067.81   0
  -5   0  -3 20029.2 776.486   1
   5   0   4 24354.7 1173.09   6
  -5   0  -4 23518.4 1242.72   0
  -5   0  -4 24894.4 989.949   1
   5   0   5 1279.74 605.252   6
  -5   0  -5 1599.56 657.707   1
  -5   0  -5 1506.63 682.506   0
   5   0   6 307.620 702.129   6
  -5   0  -6 286.653 775.466   1
  -5   0  -6 49.4742 738.164   0
   5   0   7 15200.2 1198.22   6
  -5   0  -7 15797.1 1296.90   1
  -5   0  -7 15136.1 1257.48   0
   5   0   8 36218.6 1836.89   6
  -5   0  -8 38621.3 1913.02   1
  -5   0  -8 36716.6 1816.22   0
   5   0   9 15285.1 1414.88   6
  -5   0  -9 15994.2 1530.96   1
  -5   0  -9 14161.5 1418.19   0
   5   0  10 43923.7 2256.85   6
  -5   0 -10 39355.5 2178.66   1
  -5   0 -10 38194.1 2038.75   0
   5   1 -11 10347.0 1361.31   3
   5   1 -10 27955.5 1910.51   2
   5   1 -10 29568.7 1807.54   3
   5   1  -9 24129.6 1660.16   2
   5   1  -9 23595.5 1543.73   3
   5   1  -8 73320.3 2385.75   2
   5   1  -8 73073.6 2315.74   3
   5   1  -7 101959. 2604.49   2
  -5  -1   7 102483. 1882.61   6
   5   1  -7 99286.0 2528.97   3
   5   1  -6 8917.25 943.261   2
  -5  -1   6 7235.23 570.397   6
   5   1  -6 7289.86 931.371   3
   5   1  -5 18721.2 1152.67   2
  -5  -1   5 18483.2 649.804   6
  -5  -1   5 17698.6 621.832   5
   5   1  -5 17106.3 1112.02   3
   5   1  -5 18327.1 675.751   0
  -5  -1   4 97626.7 1056.16   6
   5   1  -4 95678.3 1384.83   0
  -5  -1   4 92729.5 1476.86   5
   5   1  -4 95782.4 2125.39   2
  -5  -1   4 93773.3 1324.63   0
   5   1  -4 94988.4 2175.37   3
  -5  -1   3 140716. 1669.50   0
   5   1  -3 147850. 2445.91   2
   5   1  -3 144433. 1750.56   0
   5   1  -3 147353. 2508.06   3
   5   1  -2 114415. 2052.81   2
  -5  -1   2 116301. 1582.39   0
   5   1  -1 119893. 1994.37   2
  -5  -1   1 119005. 1723.29   0
   5   1   0 95674.5 889.572   6
  -5  -1   0 98547.4 1666.31   0
   5   1   0 95942.8 1752.08   2
   5   1   1 34263.7 789.984   6
  -5  -1  -1 34695.1 1103.66   0
  -5  -1  -2 2756.44 409.167   1
   5   1   2 2707.81 432.303   6
  -5  -1  -2 2816.07 563.797   0
   5   1   3 498.061 431.821   6
  -5  -1  -3 610.249 389.911   1
   5   1   4 86910.5 1855.84   6
  -5  -1  -4 87862.5 1647.43   1
   5   1   5 236142. 3273.99   6
  -5  -1  -5 227784. 2911.37   1
   5   1   6 76132.6 2076.42   6
  -5  -1  -6 75936.4 1940.47   1
   5   1   7 15790.3 1181.20   6
  -5  -1  -7 15779.0 1202.00   1
   5   1   8 27214.8 1601.12   6
  -5  -1  -8 26008.0 1616.64   1
   5   1   9 8648.16 1202.51   6
  -5  -1  -9 7421.81 1275.47   1
   5   1  10 1586.13 997.463   6
  -5  -1 -10 1785.28 1189.35   1
  -5  -1 -11 6493.18 1450.96   1
   5   2 -10 4895.45 1103.98   3
   5   2  -9 9917.12 1308.13   2
   5   2  -9 9044.57 1265.83   3
   5   2  -8 11018.5 1266.18   2
   5   2  -8 11502.4 1247.73   3
   5   2  -7 76471.3 2396.57   2
  -5  -2   7 82450.2 1841.33   6
   5   2  -7 79553.7 2378.15   3
   5   2  -6 55085.0 1911.31   2
  -5  -2   6 58615.3 1425.81   6
   5   2  -6 58612.4 1975.37   3
   5   2  -5 55187.4 1788.20   2
  -5  -2   5 54550.6 1207.35   6
   5   2  -5 53052.3 1820.67   3
   5   2  -4 51301.6 1618.29   2
  -5  -2   4 51054.8 971.995   6
  -5  -2   4 48407.6 1039.58   5
   5   2  -4 53102.5 1718.78   3
  -5  -2   3 99951.8 1006.93   6
   5   2  -3 100826. 2084.07   2
  -5  -2   3 101859. 1615.49   5
   5   2  -3 98672.0 2124.64   3
  -5  -2   3 102348. 1129.36   0
   5   2  -2 36931.4 1235.42   2
  -5  -2   2 37103.3 800.853   0
  -5  -2   2 39540.8 843.228   4
   5   2  -2 38955.1 1356.78   3
   5   2  -1 25783.4 981.332   2
   5   2  -1 25960.8 1057.33   3
  -5  -2   1 25973.8 770.765   0
  -5  -2   0 16102.9 318.112   6
   5   2   0 15480.9 769.357   2
  -5  -2   0 15516.2 686.074   0
   5   2   1 25399.1 581.735   6
   5   2   1 25239.0 931.194   2
  -5  -2  -1 26449.9 640.750   6
  -5  -2  -2 118619. 1587.86   6
   5   2   2 112135. 1500.03   6
  -5  -2  -2 114893. 1733.64   1
  -5  -2  -3 328781. 3039.84   1
   5   2   3 333958. 2992.07   6
   5   2   4 147836. 2268.68   6
  -5  -2  -4 147494. 2172.81   1
  -5  -2  -5 3679.97 652.505   1
   5   2   5 4488.38 702.153   6
   5   2   6 4092.17 746.670   6
  -5  -2  -6 4371.88 789.816   1
   5   2   7 970.338 695.519   6
  -5  -2  -7 491.563 733.340   1
   5   2   8 26930.3 1520.04   6
  -5  -2  -8 25423.2 1504.50   1
   5   2   9 72818.5 2436.29   6
  -5  -2  -9 68602.9 2472.71   1
   5   2  10 74359.2 2619.96   6
  -5  -2 -10 70440.6 2760.33   1
   5   2  11 11246.4 1331.02   6
  -5  -2 -11 9906.85 1617.54   1
   5   3  -9 41707.5 2176.10   2
   5   3  -9 47113.8 2275.18   3
   5   3  -8 84378.4 2823.68   2
   5   3  -8 84210.7 2722.66   3
   5   3  -7 29086.7 1713.77   2
  -5  -3   7 32833.2 1351.53   6
   5   3  -7 31434.4 1654.20   3
   5   3  -6 1062.09 796.951   2
  -5  -3   6 490.187 524.018   6
   5   3  -6 692.407 809.231   3
  -5  -3   5 167.350 440.996   6
   5   3  -5 215.935 745.254   2
   5   3  -5 11.5217 692.844   3
  -5  -3   4 1819.06 432.254   6
   5   3  -4 2378.22 754.424   2
   5   3  -4 1987.65 722.799   3
  -5  -3   3 34959.2 872.270   6
   5   3  -3 35611.9 1346.55   2
   5   3  -3 33204.8 1342.60   3
   5   3  -2 140195. 2347.23   2
  -5  -3   2 142410. 1140.80   0
   5   3  -2 139768. 2068.47   5
  -5  -3   2 147274. 1167.79   4
  -5  -3   2 141501. 1394.27   6
   5   3  -2 134546. 2463.56   3
  -5  -3   1 80995.1 1121.19   0
   5   3  -1 79109.2 1674.33   2
   5   3  -1 80916.6 1632.44   5
   5   3  -1 80992.5 1829.83   3
  -5  -3   0 22143.0 499.915   6
   5   3   0 23035.4 985.951   5
   5   3   0 21321.6 882.908   2
   5   3   0 22561.6 1008.92   3
  -5  -3  -1 187890. 1639.23   6
   5   3   1 177841. 2213.38   2
   5   3   1 179634. 2571.89   5
   5   3   1 186578. 2410.11   3
  -5  -3  -2 170259. 1860.08   6
   5   3   2 171371. 2120.02   2
   5   3   2 169535. 2558.76   5
   5   3   3 1294.12 373.812   6
  -5  -3  -3 1926.81 472.170   1
  -5  -3  -4 56739.2 1469.10   1
   5   3   4 58024.8 1393.54   6
  -5  -3  -4 55928.3 1231.77   3
   5   3   5 59543.9 1574.97   6
  -5  -3  -5 57563.9 1585.18   1
   5   3   6 107833. 2272.98   6
  -5  -3  -6 109440. 2261.64   1
   5   3   7 117293. 2561.89   6
  -5  -3  -7 117788. 2582.32   1
   5   3   8 49519.3 1885.53   6
  -5  -3  -8 48880.9 1891.49   1
   5   3   9 7924.97 1032.19   6
  -5  -3  -9 8047.80 1180.57   1
   5   3  10 204.339 852.857   6
  -5  -3 -10-35.9986 1034.14   1
   5   3  11 153.042 955.478   6
  -5  -3 -11-11.6808 1196.33   1
  -5  -3 -12 3029.37 1580.81   1
   5   4  -8 5328.21 1226.38   2
   5   4  -8 4330.72 1167.41   3
   5   4  -7 13637.4 1412.28   2
   5   4  -7 14220.4 1355.52   3
   5   4  -6 26733.4 1626.00   2
  -5  -4   6 28086.7 1265.71   6
   5   4  -6 23355.6 1489.83   3
   5   4  -5 49239.7 1900.25   2
  -5  -4   5 53947.5 1560.02   6
   5   4  -5 51036.2 2001.47   3
  -5  -4   4 38787.0 1229.81   6
   5   4  -4 37758.1 1594.93   2
   5   4  -4 41274.8 1157.62   5
   5   4  -4 40740.1 1701.69   3
  -5  -4   3 70539.0 1442.33   6
   5   4  -3 67467.2 1871.38   2
   5   4  -3 69379.7 1532.11   5
   5   4  -3 69770.8 2019.59   3
   5   4  -2 57390.5 1629.42   2
   5   4  -2 58713.0 1455.54   5
   5   4  -2 56163.0 1701.28   3
   5   4  -1 68820.4 1625.83   2
  -5  -4   1 72853.5 896.574   0
   5   4  -1 71092.3 1619.10   5
   5   4  -1 69231.3 1795.27   3
   5   4   0 7157.23 634.889   2
   5   4   0 7909.40 713.655   5
   5   4   0 7258.21 760.914   3
  -5  -4  -1 223306. 2015.03   6
   5   4   1 221073. 2458.24   2
   5   4   1 225425. 2941.01   5
   5   4   1 221377. 2756.02   3
  -5  -4  -2 204052. 2120.93   6
   5   4   2 206103. 2252.61   2
   5   4   2 209017. 2500.66   3
  -5  -4  -3 169591. 1978.78   2
  -5  -4  -3 175767. 2534.09   1
   5   4   3 173650. 2718.47   5
  -5  -4  -4 147712. 2409.20   1
   5   4   4 148617. 2171.99   6
  -5  -4  -4 145161. 1853.55   2
   5   4   4 151359. 2590.23   5
  -5  -4  -4 143913. 1868.42   3
  -5  -4  -5 43436.3 1464.08   1
   5   4   5 44130.7 1356.66   6
   5   4   5 45592.1 1544.18   5
   5   4   6 14768.6 967.826   6
  -5  -4  -6 13890.5 595.561   3
  -5  -4  -6 13701.8 1024.43   1
   5   4   7 2472.61 672.092   6
  -5  -4  -7 2853.85 755.069   1
   5   4   8 16257.0 1179.11   6
  -5  -4  -8 17402.9 1258.90   1
   5   4   9 19972.7 1359.20   6
  -5  -4  -9 20805.0 1506.36   1
   5   4  10 23350.4 1566.93   6
  -5  -4 -10 22229.6 1625.85   1
   5   4  11 40828.7 1990.53   6
  -5  -4 -11 40452.7 2260.41   1
  -5  -4 -12 41446.2 2515.58   1
   5   5  -7 24450.0 1757.99   2
   5   5  -7 28112.0 1892.35   3
   5   5  -6 63169.4 2428.92   2
  -5  -5   6 64799.0 2017.64   6
   5   5  -6 60468.3 2342.65   3
   5   5  -5 8495.46 1048.75   2
  -5  -5   5 8451.01 887.460   6
   5   5  -5 6732.86 979.072   3
  -5  -5   4 6514.99 753.101   6
   5   5  -4 5163.97 602.774   5
   5   5  -4 5647.28 905.701   2
   5   5  -4 6508.14 1000.51   3
  -5  -5   3 327.007 518.613   6
   5   5  -3 154.926 667.618   2
   5   5  -3-22.4892 486.971   5
   5   5  -3 644.056 685.888   3
   5   5  -2 1452.34 562.229   2
   5   5  -2 1464.23 554.835   5
   5   5  -2 950.187 730.945   3
   5   5  -1 109878. 2120.79   2
   5   5  -1 112601. 2145.49   5
   5   5  -1 108450. 2352.86   3
  -5  -5   1 109098. 840.520   0
   5   5   0 271982. 3341.33   5
   5   5   0 267250. 3417.36   3
   5   5   1 207139. 2438.36   2
   5   5   1 201310. 2910.67   5
   5   5   1 210897. 2861.00   3
   5   5   2 59538.0 1237.66   2
   5   5   2 59254.8 1682.82   5
   5   5   2 56728.1 1449.90   3
  -5  -5  -3 11232.2 595.063   2
  -5  -5  -3 11921.4 833.316   1
   5   5   3 13960.4 625.622   2
   5   5   3 11774.2 941.601   5
   5   5   3 11912.5 714.168   3
  -5  -5  -4 276.197 322.804   2
   5   5   4 283.757 484.603   5
  -5  -5  -4 445.146 595.391   1
   5   5   4 263.944 359.816   3
  -5  -5  -5 85865.1 2048.93   1
  -5  -5  -5 79931.5 1293.52   2
   5   5   5 83028.7 2072.17   5
  -5  -5  -5 78116.1 1313.04   3
   5   5   6 158348. 2672.37   6
   5   5   6 161215. 2892.77   5
  -5  -5  -6 159677. 2863.83   1
   5   5   7 54302.2 1745.61   6
   5   5   7 53329.0 1790.01   5
  -5  -5  -7 55926.2 1901.84   1
   5   5   8 26654.1 1391.34   6
  -5  -5  -8 27138.7 1522.95   1
   5   5   9 40813.3 1742.36   6
  -5  -5  -9 45454.4 1996.85   1
   5   5  10 28621.8 1634.17   6
  -5  -5 -10 28411.8 1827.36   1
   5   5  11 555.941 797.311   6
  -5  -5 -11 121.896 1071.46   1
   5   5  12 11774.4 1338.83   6
  -5  -5 -12 13968.1 1774.08   1
   5   6  -6 6573.94 1214.25   2
   5   6  -6 7982.54 1261.31   3
   5   6  -5 32125.0 1843.93   2
  -5  -6   5 34278.8 1578.38   6
   5   6  -5 31350.6 1893.92   3
  -5  -6   4 45905.7 1661.51   6
   5   6  -4 41401.1 1830.52   2
   5   6  -4 41606.4 1989.17   3
   5   6  -3 60919.6 2014.65   2
   5   6  -3 66736.1 1778.31   5
   5   6  -3 63213.1 2188.71   3
   5   6  -2 66929.5 1939.12   2
   5   6  -2 68526.7 1815.44   5
   5   6  -2 66872.6 2144.41   3
   5   6  -1 69193.2 1835.31   5
   5   6  -1 67694.1 2043.42   3
  -5  -6   0 217.252 278.577   0
   5   6   0-137.968 471.812   2
   5   6   0-108.131 546.639   5
   5   6   0 123.746 674.879   3
   5   6   1 41205.7 1195.03   2
   5   6   1 42523.3 1526.88   5
  -5  -6  -1 41497.6 1001.98   0
   5   6   1 41035.9 1453.50   3
   5   6   2 9893.69 611.947   2
   5   6   2 10562.4 899.539   5
   5   6   2 9287.34 764.314   3
   5   6   3 106275. 1523.74   2
   5   6   3 109328. 2387.05   5
   5   6   3 108866. 1953.46   3
  -5  -6  -4 174241. 2890.52   1
   5   6   4 174873. 3007.72   5
   5   6   4 175836. 2243.63   3
  -5  -6  -4 167693. 1741.25   2
  -5  -6  -5 69073.0 1053.04   2
  -5  -6  -5 72706.5 2007.68   1
   5   6   5 72061.0 2010.85   5
   5   6   5 71765.4 1309.68   3
  -5  -6  -6 26429.8 1394.99   1
   5   6   6 26036.4 1337.74   5
   5   6   7 4048.96 750.861   5
  -5  -6  -7 2456.95 778.280   1
  -5  -6  -8 1592.33 822.441   1
   5   6   8 1292.23 625.873   5
   5   6   9 8133.89 990.792   6
   5   6   9 8599.86 995.700   5
  -5  -6  -9 7737.01 1133.38   1
   5   6  10 44368.1 1966.03   6
  -5  -6 -10 44767.8 2132.70   1
   5   6  11 32075.2 1812.35   6
  -5  -6 -11 31973.7 2081.71   1
   5   6  12 20837.6 1679.25   6
  -5  -6 -12 21783.0 1972.64   1
   5   7  -5 22455.3 1702.83   2
  -5  -7   5 22843.6 1486.78   6
   5   7  -5 19014.9 1604.00   3
  -5  -7   4 30793.1 1571.60   6
   5   7  -4 31677.7 1799.98   2
   5   7  -4 32390.6 1923.23   3
   5   7  -3 1082.85 780.710   2
   5   7  -3 530.023 591.707   5
   5   7  -3 900.025 830.971   3
   5   7  -2 44590.7 1730.22   2
   5   7  -2 49346.5 1703.07   5
   5   7  -2 43632.8 1935.55   3
   5   7  -1 82398.9 2107.24   2
   5   7  -1 80932.6 2144.83   5
   5   7  -1 80043.5 2378.04   3
   5   7   0 60322.4 1889.33   5
   5   7   0 58430.9 1950.72   3
   5   7   0 56506.9 1626.51   2
   5   7   1 87884.2 1793.88   2
   5   7   1 88784.4 2276.60   5
   5   7   1 86148.9 2192.86   3
   5   7   2 96450.6 1674.33   2
   5   7   2 103052. 2445.13   5
   5   7   2 100477. 2206.87   3
   5   7   3 16033.3 673.119   2
   5   7   3 15839.8 1143.93   5
   5   7   3 15402.3 924.054   3
   5   7   4 1760.06 723.993   5
   5   7   4 1247.13 289.825   2
  -5  -7  -4 703.253 691.270   1
   5   7   4 1023.88 457.311   3
  -5  -7  -5 6432.71 812.335   1
   5   7   5 5958.87 893.280   5
   5   7   5 6476.96 564.176   3
  -5  -7  -6 16447.3 1213.00   1
   5   7   6 15798.9 1157.22   5
   5   7   6 15972.3 657.909   3
   5   7   7 45787.9 1803.29   5
  -5  -7  -7 46401.1 1867.26   1
   5   7   8 85412.4 2405.50   5
  -5  -7  -8 88415.0 2566.24   1
   5   7   9 58291.6 2099.30   5
  -5  -7  -9 60100.5 2315.60   1
   5   7  10 11039.8 1076.20   5
  -5  -7 -10 12359.2 1416.16   1
  -5  -7 -11-10.5103 1089.25   1
  -5  -7 -12 519.132 1171.98   1
  -5  -8   4 25771.8 1614.12   6
   5   8  -4 29354.0 1880.59   2
   5   8  -4 30948.0 2060.58   3
   5   8  -3 92856.2 2779.48   2
   5   8  -3 96407.6 3133.12   3
   5   8  -2 39713.4 1769.70   2
   5   8  -2 40161.6 1706.01   5
   5   8  -2 39360.2 1989.56   3
   5   8  -1 18094.0 1210.01   2
   5   8  -1 17807.5 1242.02   5
   5   8  -1 17513.0 1397.50   3
   5   8   0 20320.2 1125.58   2
   5   8   0 19529.2 1322.32   5
   5   8   0 20301.0 1395.84   3
   5   8   1 1006.51 484.399   2
   5   8   1 1090.19 746.181   5
   5   8   1 1291.30 664.951   3
   5   8   2 21170.5 901.343   2
   5   8   2 20942.9 1299.25   5
   5   8   2 18383.7 1184.59   3
   5   8   3 60154.8 2069.02   5
   5   8   3 56413.9 1731.20   3
  -5  -8  -4 36334.3 1579.42   1
   5   8   4 37129.1 1645.45   5
   5   8   4 39508.0 1364.31   3
  -5  -8  -5 86535.2 2375.83   1
   5   8   5 87904.8 2451.23   5
   5   8   5 88040.9 1798.56   3
  -5  -8  -6 103307. 2644.72   1
   5   8   6 105221. 2711.79   5
  -5  -8  -7 29324.6 1567.26   1
   5   8   7 29904.4 1608.72   5
   5   8   8 126.075 668.633   5
  -5  -8  -8 286.238 872.198   1
   5   8   9 18126.8 1328.83   5
  -5  -8  -9 20272.7 1599.98   1
   5   8  10 18808.1 1369.76   5
  -5  -8 -10 20967.3 1626.20   1
   5   8  11 14254.6 1287.90   5
  -5  -8 -11 10873.4 1602.56   1
   5   9  -3 39.5483 863.526   2
   5   9  -2 1028.41 840.877   2
   5   9  -2 1576.56 802.723   5
   5   9  -2 69.6531 894.821   3
   5   9  -1 4804.75 898.075   2
   5   9  -1 5740.69 975.160   5
   5   9  -1 3564.53 1046.59   3
   5   9   0 41421.3 1614.05   2
   5   9   0 41260.5 1938.41   3
   5   9   1 64388.8 2297.23   5
   5   9   1 67445.2 2303.14   3
   5   9   2 61109.1 2222.11   5
   5   9   2 60060.6 2065.89   3
   5   9   3 28729.5 1578.65   5
   5   9   3 29434.7 1425.14   3
  -5  -9  -4 14596.2 1150.71   1
   5   9   4 17731.2 1375.25   5
   5   9   4 17605.2 1106.80   3
   5   9   5 3306.94 839.025   5
  -5  -9  -5 3738.96 792.188   1
   5   9   5 4683.78 669.651   3
  -5  -9  -6 8157.81 1029.68   1
   5   9   6 7538.63 1105.65   5
  -5  -9  -7 48496.7 2037.86   1
   5   9   7 48230.4 2015.85   5
   5   9   8 34574.9 1765.55   5
  -5  -9  -8 34048.6 1845.27   1
   5   9   9 18157.7 1451.02   5
  -5  -9  -9 18159.6 1506.92   1
   5   9  10 45947.0 2077.13   5
  -5  -9 -10 47096.6 2327.13   1
   5   9  11 25558.2 1711.58   5
  -5  -9 -11 29133.0 2036.90   1
   5   9  12-72.9790 847.166   5
   5  10  -1 36933.5 2000.25   5
   5  10  -1 37835.7 2150.16   3
   5  10   0 18875.3 1537.82   5
   5  10   0 19047.7 1617.00   3
   5  10   1-105.052 775.015   5
   5  10   1-482.532 890.769   3
   5  10   2 13.7433 777.827   5
   5  10   2 471.027 734.741   3
   5  10   3 863.306 880.885   5
   5  10   3 1269.70 711.548   3
  -5 -10  -4 31708.4 1670.43   1
   5  10   4 35107.1 1925.52   5
   5  10   4 36098.1 1624.86   3
  -5 -10  -5 88415.5 2612.71   1
   5  10   5 101288. 3004.17   5
  -5 -10  -6 49058.7 2080.15   1
   5  10   6 52162.8 2186.38   5
  -5 -10  -7 11130.0 1270.62   1
   5  10   7 10932.1 1287.69   5
   5  10   8 3306.56 853.805   5
  -5 -10  -8 4194.23 981.864   1
   5  10   9 159.413 739.949   5
  -5 -10  -9 477.236 1017.41   1
  -5 -10 -10 1154.68 1015.57   1
   5  10  10 940.356 941.005   5
   5  10  11 10450.5 1305.58   5
   5  10  12 10895.6 1364.62   5
   5  11   0 7281.04 1276.20   5
   5  11   1 21709.8 1716.43   5
   5  11   1 18897.0 1687.91   3
   5  11   2 48173.9 2358.59   5
   5  11   2 46519.1 2246.55   3
   5  11   3 46870.2 2292.66   5
   5  11   3 44044.7 2041.25   3
  -5 -11  -4 19382.5 1424.64   1
   5  11   4 21575.6 1687.49   5
   5  11   4 21823.3 1446.46   3
   5  11   5 1340.79 854.448   5
  -5 -11  -5 2765.62 897.781   1
   5  11   6 1159.77 1006.61   5
  -5 -11  -6 994.989 827.347   1
   5  11   7 5695.71 1226.29   5
  -5 -11  -7 6179.70 1131.01   1
   5  11   8 22923.3 1720.48   5
  -5 -11  -8 18135.3 1615.93   1
   5  11   9 36937.4 2153.27   5
  -5 -11  -9 32110.5 2089.64   1
   5  12   3 4287.25 1074.34   3
  -5 -12  -4 5421.92 1081.65   1
  -5 -12  -5 10558.1 1265.33   1
  -5 -12  -6 23206.3 1697.98   1
  -5 -12  -7 38103.7 2123.65   1
   6  -7  -8 5618.11 1144.56   4
  -6   7   8 5515.11 1095.31   0
  -6   7   7 29096.2 1858.45   0
  -6   7   6 51329.7 2231.62   0
  -6   7   5 33658.5 1842.64   0
  -6   7   4 20979.3 1565.16   0
  -6   7   3 17548.4 1534.60   0
  -6   7   2 882.547 979.782   0
  -6   7   1 12215.0 1357.79   0
  -6   7   0 34469.4 2051.88   0
   6  -6 -10 14423.9 1502.21   4
   6  -6  -9 51328.5 2338.83   4
   6  -6  -8 46964.7 2192.21   4
  -6   6   8 45300.7 2060.05   0
   6  -6  -7 6557.68 1206.11   4
  -6   6   7 7819.29 1075.20   0
  -6   6   6 3900.81 887.768   0
  -6   6   5-300.988 861.070   0
  -6   6   4 16876.3 1310.26   0
  -6   6   3 71380.5 2403.65   0
  -6   6   2 71436.7 2454.97   0
  -6   6   1 15256.3 1317.18   0
  -6   6   0 14627.6 1395.07   0
  -6   6  -1 11616.7 1285.31   0
   6  -6   2 203.379 986.118   6
  -6   6  -2 84.6027 910.592   0
   6  -5 -11 30483.0 1898.43   4
   6  -5 -10 37672.0 1922.82   2
   6  -5 -10 35067.7 1991.19   4
   6  -5  -9 456.553 826.392   2
   6  -5  -9 110.941 910.337   4
   6  -5  -8 21245.6 1435.55   2
   6  -5  -8 17583.7 1402.45   4
  -6   5   8 18500.5 1345.60   0
   6  -5  -7 27846.5 1627.51   4
  -6   5   7 27426.7 1529.09   0
  -6   5   6 47814.9 1941.70   0
  -6   5   5 65776.5 2171.33   0
  -6   5   4 79033.7 2356.04   0
  -6   5   3 11554.3 1188.42   0
  -6   5   2 656.012 744.962   0
  -6   5   1 879.362 857.416   0
  -6   5   0 3346.14 857.103   0
  -6   5  -1 46875.9 2063.56   0
   6  -5   2 79765.5 2588.87   6
  -6   5  -2 73242.7 2524.94   0
   6  -5   3 42923.1 2039.01   6
  -6   5  -3 44216.5 2139.66   0
   6  -5   4 12582.3 1357.67   6
  -6   5  -4 14593.4 1481.72   0
   6  -4 -11 8105.01 1263.25   2
   6  -4 -10 38948.6 1970.62   2
   6  -4 -10 35340.0 1849.16   4
   6  -4  -9 45267.5 1993.30   2
   6  -4  -9 43236.8 1929.60   4
   6  -4  -8 36216.2 1740.49   2
   6  -4  -8 31520.2 1631.98   4
   6  -4  -7 39333.6 1748.93   2
   6  -4  -7 35031.7 1665.72   4
  -6   4   7 35075.1 1595.28   0
   6  -4  -6 17648.2 1238.26   2
  -6   4   6 17352.2 1238.16   0
  -6   4   5 1177.97 724.861   0
  -6   4   4 1140.14 774.360   0
  -6   4   3 7478.94 899.540   0
  -6   4   2 48292.6 1820.46   0
  -6   4   1 74944.1 2262.12   0
  -6   4   0 111204. 2724.06   0
  -6   4  -1 43108.1 1861.40   0
  -6   4  -2 1907.14 797.965   0
   6  -4   2 2859.31 823.578   6
   6  -4   3 447.464 767.019   6
  -6   4  -3-49.3158 775.432   0
   6  -4   4 3547.93 934.001   6
  -6   4  -4 3621.54 1067.61   0
   6  -4   5 29710.4 1849.17   6
  -6   4  -5 31227.0 1938.29   0
  -6   4  -6 52525.4 2422.37   0
   6  -3 -11 24039.4 1745.11   2
   6  -3 -10 12219.7 1327.82   2
   6  -3  -9 8640.38 1086.42   2
   6  -3  -9 12160.7 1166.34   4
   6  -3  -8 2117.10 828.215   2
   6  -3  -8 1233.51 734.394   4
   6  -3  -7 34134.0 1647.30   2
   6  -3  -7 34540.6 1539.53   4
  -6   3   7 30890.4 1422.55   0
   6  -3  -6 104240. 2528.38   2
   6  -3  -6 103886. 2457.79   4
  -6   3   6 104329. 2370.79   0
   6  -3  -5 50182.2 1748.77   2
  -6   3   5 47292.2 1659.70   0
   6  -3  -4 14574.4 1066.80   2
  -6   3   4 15796.8 1121.76   0
  -6   3   3 13468.3 1015.28   0
  -6   3   2 70023.3 2035.37   0
  -6   3   1 41386.6 1613.74   0
  -6   3   0 10510.4 1080.33   0
   6  -3   1 11498.5 943.781   6
  -6   3  -1 8927.64 998.150   0
   6  -3   2 28499.7 1384.44   6
  -6   3  -2 29266.2 1537.80   0
   6  -3   3 143230. 3059.79   6
  -6   3  -3 145302. 3233.94   0
   6  -3   4 116991. 2936.97   6
  -6   3  -4 111082. 2962.04   0
   6  -3   5 16031.5 1402.03   6
  -6   3  -5 13600.6 1388.92   0
   6  -3   6 74.8186 933.956   6
  -6   3  -6 404.688 866.562   0
  -6   3  -7 617.189 1023.88   0
   6  -2 -11 5868.58 1271.95   2
   6  -2 -10 12838.6 1414.53   2
   6  -2  -9 31410.1 1772.07   2
   6  -2  -8 46006.2 1940.72   2
   6  -2  -8 45645.6 1669.68   4
   6  -2  -7 66170.7 2123.04   2
   6  -2  -7 67517.5 1913.64   4
  -6   2   7 63194.0 1765.25   0
   6  -2  -6 23946.3 1316.52   2
  -6   2   6 22650.1 1140.22   0
  -6   2   5 3629.81 691.290   0
   6  -2  -5 4305.66 797.816   2
   6  -2  -4 16966.3 1118.70   2
  -6   2   4 16614.5 1018.94   0
  -6   2   3 206.063 500.392   1
   6  -2  -3-28.3953 634.156   2
  -6   2   3-45.8000 678.514   0
  -6   2   2 87386.5 2104.07   0
  -6   2   2 95401.5 1288.33   1
  -6   2   1 151452. 954.689   1
  -6   2   1 150369. 2746.60   0
  -6   2   0 98065.7 2312.94   0
   6  -2   1 68394.1 1725.68   6
  -6   2  -1 66086.3 1965.38   0
   6  -2   2 71993.8 1908.84   6
  -6   2  -2 70298.7 2136.54   0
   6  -2   3 5768.96 792.913   6
  -6   2  -3 6313.12 984.145   0
   6  -2   4 15101.8 1172.32   6
  -6   2  -4 15469.7 1274.38   0
  -6   2  -5 26752.5 1620.13   0
   6  -2   5 25383.5 1550.57   6
  -6   2  -6 24552.7 1620.02   0
   6  -2   6 25864.1 1626.16   6
  -6   2  -7 29732.0 1841.08   0
   6  -2   7 24570.7 1667.83   6
  -6   2  -8 33774.7 2071.62   0
   6  -1 -10 48894.7 2266.00   2
   6  -1  -9 17227.2 1470.75   2
   6  -1  -8 1924.26 893.694   2
   6  -1  -7 548.037 662.147   2
   6  -1  -7 433.105 541.420   4
   6  -1  -6 3977.85 875.941   2
  -6   1   6 2682.23 572.532   0
   6  -1  -5 29159.7 1394.37   2
  -6   1   5 30722.4 1173.62   0
   6  -1  -4 148887. 2751.03   2
  -6   1   4 151118. 2397.23   0
  -6   1   3 125402. 2252.58   0
   6  -1  -3 127174. 1310.23   6
   6  -1  -3 126220. 2467.61   2
  -6   1   2 83483.4 1881.89   0
   6  -1  -2 84973.2 2024.70   2
  -6   1   1 55249.3 1612.46   0
   6  -1   0 17403.8 773.926   6
  -6   1   0 17728.8 527.149   1
  -6   1   0 17976.1 1083.99   0
   6  -1   1 2453.22 507.304   6
  -6   1  -1 2277.04 714.375   0
  -6   1  -1 2440.65 312.035   1
   6  -1   2 134010. 2323.04   6
  -6   1  -2 129913. 1510.90   1
  -6   1  -2 129492. 2624.77   0
   6  -1   3 112767. 2336.48   6
  -6   1  -3 113493. 2578.22   0
  -6   1  -3 114690. 1681.64   1
   6  -1   4 61652.2 1912.27   6
  -6   1  -4 65635.1 2131.98   0
  -6   1  -4 63891.4 1531.22   1
   6  -1   5 67832.3 2148.13   6
  -6   1  -5 64341.8 2146.65   0
   6  -1   6 31802.3 1658.73   6
  -6   1  -6 24241.4 1536.78   0
   6  -1   7 6375.36 1024.55   6
  -6   1  -7 6943.20 1017.62   0
   6  -1   8 6357.81 1117.25   6
  -6   1  -8 6800.25 1153.38   0
  -6   1  -9 15230.6 1543.48   0
   6   0 -10 3899.06 1075.69   2
   6   0  -9 44864.6 2130.44   2
   6   0  -8 24066.3 1510.30   2
   6   0  -7 23707.1 1395.52   2
   6   0  -6 68633.3 2126.27   2
   6   0  -5 93094.6 2356.03   2
  -6   0   5 89058.2 1664.90   0
   6   0  -4 21986.6 1209.46   2
  -6   0   4 21684.5 926.775   0
   6   0  -3 2440.70 562.452   2
  -6   0   3 2044.07 563.026   0
   6   0  -2 9071.55 807.397   2
  -6   0   2 9155.36 744.660   0
   6   0  -1 44791.2 743.366   6
   6   0  -1 47335.6 1496.89   2
  -6   0   1 45585.5 1396.50   0
   6   0   0 224535. 2052.41   6
  -6   0   0 227830. 3007.97   0
  -6   0  -1 205415. 2974.73   0
   6   0   1 203189. 2311.34   6
  -6   0  -1 196529. 1943.73   1
   6   0   2 46738.6 1301.50   6
  -6   0  -2 45180.0 1535.96   0
  -6   0  -2 45992.9 1019.20   1
   6   0   3 6947.53 721.571   6
  -6   0  -3 6467.54 912.316   0
  -6   0  -3 6681.63 568.862   1
   6   0   4 13609.5 976.230   6
  -6   0  -4 13682.7 1071.28   0
  -6   0  -4 13514.6 817.661   1
   6   0   5 1990.61 692.898   6
  -6   0  -5 1300.74 653.123   1
  -6   0  -5 2056.14 832.635   0
   6   0   6 35735.1 1613.37   6
  -6   0  -6 34400.4 1698.85   0
  -6   0  -6 37317.6 1546.80   1
   6   0   7 77914.8 2451.76   6
  -6   0  -7 75793.6 2274.54   1
  -6   0  -7 70248.0 2430.09   0
   6   0   8 40852.3 1986.80   6
  -6   0  -8 41683.0 1955.92   1
  -6   0  -8 38960.7 1977.06   0
   6   0   9 37239.9 2022.61   6
  -6   0  -9 34386.8 1995.94   0
   6   1 -10 31309.6 1886.68   3
   6   1  -9 19804.7 1646.26   2
   6   1  -9 21590.6 1565.32   3
   6   1  -8 47755.7 2122.34   2
   6   1  -8 50723.7 2070.89   3
   6   1  -7 7848.80 1046.92   2
   6   1  -7 7529.91 1058.04   3
   6   1  -6 8371.82 920.930   2
   6   1  -6 8115.91 964.558   3
   6   1  -5 54863.3 1843.98   2
  -6  -1   5 52776.1 1152.05   0
   6   1  -5 54639.3 1889.87   3
   6   1  -4 131044. 2634.07   2
  -6  -1   4 130153. 1766.08   0
   6   1  -4 130645. 2683.64   3
  -6  -1   3 66501.6 1360.37   0
   6   1  -3 64706.4 1817.23   2
   6   1  -2 105895. 2160.52   2
  -6  -1   2 107081. 1755.25   0
   6   1  -1 132120. 2333.85   2
  -6  -1   1 129693. 2042.21   0
  -6  -1   0 16777.4 886.733   0
   6   1   0 16729.8 434.028   6
   6   1   0 17952.5 939.737   2
  -6  -1  -1 12597.9 872.389   0
   6   1   1 13700.0 591.306   6
  -6  -1  -2 31301.4 951.334   1
   6   1   2 28429.8 955.395   6
  -6  -1  -2 31056.3 1263.00   0
   6   1   3 16810.3 878.334   6
  -6  -1  -3 15569.7 1004.09   0
  -6  -1  -3 16611.1 775.603   1
   6   1   4 138233. 2435.29   6
  -6  -1  -4 141657. 2144.85   1
  -6  -1  -4 140299. 2769.84   0
   6   1   5 135225. 2609.16   6
  -6  -1  -5 140695. 2378.01   1
   6   1   6 27358.4 1374.30   6
  -6  -1  -6 25432.7 1262.38   1
  -6  -1  -7 19624.8 1290.94   1
   6   1   7 19013.0 1337.28   6
   6   1   8 3464.61 911.275   6
  -6  -1  -8 3246.67 1058.82   1
   6   1   9 413.812 815.582   6
  -6  -1  -9 341.485 1044.31   1
   6   1  10 11072.0 1364.73   6
  -6  -1 -10 12548.0 1626.71   1
  -6  -1 -10 13213.5 1445.99   0
   6   2 -10 1324.50 1046.29   3
   6   2  -9 839.841 981.387   2
   6   2  -9 883.281 892.563   3
   6   2  -8 9241.26 1250.07   2
   6   2  -8 9758.87 1259.75   3
   6   2  -7 83298.0 2616.72   2
   6   2  -7 85332.0 2596.58   3
   6   2  -6 123552. 2935.63   2
   6   2  -6 131573. 3046.10   3
   6   2  -5 40399.9 1694.41   2
   6   2  -5 43913.1 1786.26   3
   6   2  -4 22288.9 1230.91   2
  -6  -2   4 21920.3 436.018   6
  -6  -2   4 23135.7 666.914   0
   6   2  -4 22619.1 1245.84   3
  -6  -2   3 32087.8 831.819   0
   6   2  -3 32956.2 1381.91   2
   6   2  -3 33917.6 1487.44   3
   6   2  -2 4478.26 635.332   2
  -6  -2   2 4876.84 484.665   0
  -6  -2   2 4473.40 514.643   4
   6   2  -2 5007.06 706.368   3
   6   2  -1 123233. 2229.51   2
  -6  -2   1 132904. 1878.22   0
  -6  -2   0 65946.8 1441.56   0
   6   2   0 67578.1 1634.37   2
   6   2   1 56500.7 889.819   6
   6   2   1 57517.3 1497.32   2
  -6  -2  -1 54739.1 1416.52   0
  -6  -2  -2 223634. 2261.02   6
   6   2   2 219884. 2185.17   6
  -6  -2  -2 223264. 2565.79   1
  -6  -2  -2 213752. 2888.01   0
  -6  -2  -3 174144. 2355.76   1
   6   2   3 177153. 2316.83   6
   6   2   4 30982.1 1175.57   6
  -6  -2  -4 29239.8 1096.19   1
   6   2   5 1813.66 584.223   6
  -6  -2  -5 2127.23 604.762   1
   6   2   6 38732.3 1552.64   6
  -6  -2  -6 42350.0 1534.25   1
   6   2   7 49901.4 1843.74   6
  -6  -2  -7 44743.5 1703.61   1
   6   2   8 35452.7 1706.42   6
  -6  -2  -8 34220.3 1695.47   1
   6   2   9 50821.9 2124.09   6
  -6  -2  -9 52616.3 2237.02   1
   6   2  10 22688.7 1723.70   6
  -6  -2 -10 20756.8 1794.97   1
  -6  -2 -11 947.115 1292.19   1
   6   3  -9 40143.8 2161.56   3
   6   3  -8 33319.3 1951.90   2
   6   3  -8 29022.5 1802.28   3
   6   3  -7 746.104 872.165   2
   6   3  -7 1595.19 848.258   3
   6   3  -6 1955.17 867.224   2
   6   3  -6 2284.92 803.522   3
   6   3  -5 443.518 630.979   2
   6   3  -5 628.524 768.533   3
   6   3  -4 43658.5 1695.04   2
  -6  -3   4 48037.9 957.064   6
   6   3  -4 46916.6 1800.30   3
  -6  -3   3 92152.6 1003.60   6
   6   3  -3 92373.8 2202.21   2
  -6  -3   3 92379.5 980.049   0
   6   3  -3 93306.6 2319.84   3
   6   3  -2 155648. 2664.51   2
  -6  -3   2 160048. 1597.66   0
  -6  -3   2 160650. 1626.28   4
   6   3  -2 156865. 2839.52   3
   6   3  -1 62611.6 1672.78   2
   6   3  -1 62091.6 1737.80   3
  -6  -3   1 65526.6 1210.52   0
   6   3   0 42962.2 1338.48   2
  -6  -3   0 43276.9 1124.98   0
   6   3   0 45176.3 1442.65   3
  -6  -3  -1 39539.9 794.975   6
   6   3   1 37588.5 1209.71   2
  -6  -3  -2-5.42951 325.039   6
   6   3   2 240.929 435.741   2
  -6  -3  -3 20261.6 965.477   1
   6   3   3 19252.1 787.536   6
  -6  -3  -4 98049.2 1979.16   1
   6   3   4 92902.4 1795.83   6
   6   3   5 89615.0 1969.18   6
  -6  -3  -5 88338.9 1981.62   1
   6   3   6 104680. 2325.11   6
  -6  -3  -6 98871.2 2231.82   1
   6   3   7 103207. 2482.90   6
  -6  -3  -7 100964. 2438.81   1
   6   3   8 6085.03 952.154   6
  -6  -3  -8 7380.72 1048.91   1
   6   3   9 3648.54 876.207   6
  -6  -3  -9 4715.41 1078.39   1
  -6  -3 -10 7669.90 1322.53   1
   6   3  10 8357.62 1219.18   6
   6   3  11 4972.00 1170.45   6
  -6  -3 -11 5880.53 1498.58   1
   6   4  -8 22078.2 1835.51   2
   6   4  -8 21697.4 1752.51   3
   6   4  -7 21958.3 1659.17   2
   6   4  -7 21635.7 1629.12   3
   6   4  -6 33278.4 1799.09   2
   6   4  -6 32760.4 1830.09   3
   6   4  -5 102398. 2739.60   2
   6   4  -5 101517. 2817.47   3
  -6  -4   4 90287.9 1617.73   6
   6   4  -4 87302.1 2487.58   3
  -6  -4   3 928.935 362.504   6
   6   4  -3 1144.82 698.108   2
   6   4  -3 1063.96 771.412   3
  -6  -4   2 2965.84 361.737   6
   6   4  -2 3185.31 714.741   2
   6   4  -2 3232.22 591.021   5
  -6  -4   2 2793.20 220.580   4
  -6  -4   2 2859.30 217.392   0
   6   4  -2 2161.01 763.519   3
   6   4  -1 430.881 530.413   2
   6   4  -1 1156.10 590.645   5
   6   4  -1 1243.12 607.534   3
  -6  -4   1 1097.22 326.523   0
  -6  -4   0 22559.7 593.983   6
   6   4   0 23062.3 1028.30   2
   6   4   0 22340.5 1087.32   5
  -6  -4   0 23174.3 803.095   0
   6   4   0 24369.0 1179.45   3
  -6  -4  -1 153982. 1643.59   6
   6   4   1 160568. 2332.07   2
   6   4   1 157103. 2663.97   5
   6   4   1 156190. 2516.32   3
   6   4   2 137872. 2104.08   2
   6   4   2 133637. 2531.29   5
   6   4   2 135085. 2244.68   3
  -6  -4  -3 61553.8 1620.94   1
   6   4   3 61483.2 1804.85   5
  -6  -4  -4 48113.2 1514.89   1
   6   4   4 45912.8 1284.42   6
  -6  -4  -5 36785.1 1410.32   1
   6   4   5 38735.6 1316.98   6
   6   4   6 1023.99 595.499   6
  -6  -4  -6 146.378 681.600   1
   6   4   7 44013.8 1641.85   6
  -6  -4  -7 45168.7 1713.78   1
   6   4   8 60988.7 2028.03   6
  -6  -4  -8 57260.9 2050.50   1
   6   4   9 17252.4 1320.62   6
  -6  -4  -9 17525.7 1425.90   1
   6   4  10 11043.8 1234.04   6
  -6  -4 -10 9722.51 1286.72   1
   6   4  11 33402.0 1933.82   6
  -6  -4 -11 34546.5 2234.22   1
   6   5  -7 15743.9 1581.29   2
   6   5  -7 13359.6 1467.24   3
   6   5  -6 14798.5 1352.59   2
   6   5  -6 14220.2 1379.66   3
   6   5  -5 425.414 788.111   2
   6   5  -5 830.368 875.713   3
   6   5  -4 17556.9 1292.27   2
   6   5  -4 20110.3 1004.69   5
   6   5  -4 16764.6 1368.11   3
  -6  -5   3 55091.9 1376.76   6
   6   5  -3 51367.4 1845.58   2
   6   5  -3 55477.3 1573.09   5
   6   5  -3 53830.7 2007.46   3
   6   5  -2 70863.7 1972.56   2
   6   5  -2 75817.5 1850.13   5
   6   5  -2 72107.8 2167.24   3
   6   5  -1 79993.7 1932.29   2
   6   5  -1 83167.8 1984.00   5
  -6  -5   1 79601.8 959.246   0
   6   5   0 199736. 2811.15   2
   6   5   0 197929. 3021.13   5
   6   5   0 195512. 3112.32   3
   6   5   1 37515.9 1218.22   2
   6   5   1 37451.7 1443.54   5
   6   5   1 37016.1 1357.41   3
   6   5   2 18276.2 854.932   2
   6   5   2 18825.7 1145.29   5
   6   5   2 17772.5 980.240   3
   6   5   3 3888.02 502.499   2
   6   5   3 3322.58 734.583   5
  -6  -5  -3 2710.43 678.770   1
   6   5   3 3150.69 541.309   3
  -6  -5  -4 18998.8 1095.94   1
   6   5   4 19150.0 1146.66   5
  -6  -5  -5 64604.6 1889.27   1
   6   5   5 61504.3 1948.90   5
   6   5   6 87363.8 2075.32   6
   6   5   6 88014.1 2350.87   5
   6   5   7 61816.4 1897.36   6
  -6  -5  -7 65634.5 2081.92   1
   6   5   8 20230.7 1256.77   6
  -6  -5  -8 22034.6 1435.90   1
   6   5   9 15235.0 1258.85   6
  -6  -5  -9 16802.0 1473.20   1
   6   5  10 710.647 818.213   6
  -6  -5 -10 49.6887 1048.28   1
   6   5  11 8648.98 1236.10   6
  -6  -5 -11 8467.07 1395.92   1
   6   6  -6 51118.1 2404.94   2
   6   6  -6 54450.4 2543.89   3
   6   6  -5 53861.7 2230.46   2
   6   6  -5 52841.9 2358.02   3
   6   6  -4 24322.7 1489.67   2
   6   6  -4 26611.9 1639.70   3
  -6  -6   3 39511.8 1362.61   6
   6   6  -3 39554.7 1737.45   2
   6   6  -3 40603.7 1465.30   5
   6   6  -3 39606.3 1814.88   3
   6   6  -2 20849.4 1237.87   2
   6   6  -2 21932.7 1161.69   5
   6   6  -2 20447.0 1388.68   3
   6   6  -1 5459.88 764.174   5
   6   6  -1 4810.08 716.684   2
   6   6  -1 5475.07 912.175   3
   6   6   0 12751.4 871.818   2
   6   6   0 12636.9 1005.83   5
   6   6   0 14130.1 1069.74   3
   6   6   1 967.170 493.027   2
   6   6   1 927.943 606.316   5
   6   6   1 862.722 577.439   3
   6   6   2 73758.1 1564.04   2
   6   6   2 72967.6 2050.30   5
   6   6   2 71714.4 1836.56   3
   6   6   3 199145. 2361.08   2
   6   6   3 195400. 3303.78   5
   6   6   3 194302. 2745.35   3
   6   6   4 95520.1 2374.93   5
   6   6   4 97278.3 1833.21   3
  -6  -6  -5 45796.9 1680.09   1
   6   6   5 45849.9 1776.49   5
   6   6   6 3416.21 803.456   5
  -6  -6  -6 3090.54 849.382   1
   6   6   7 5273.17 912.186   5
  -6  -6  -7 5385.80 939.108   1
   6   6   8 6110.07 880.313   5
  -6  -6  -8 6626.12 1101.61   1
   6   6   9 33269.0 1660.15   6
  -6  -6  -9 32976.5 1763.89   1
   6   6  10 72338.6 2493.23   6
  -6  -6 -10 69735.3 2625.21   1
   6   6  11 30738.2 1881.17   6
  -6  -6 -11 30590.0 2111.51   1
   6   7  -5 961.715 873.543   2
   6   7  -5 806.989 1126.28   3
   6   7  -4 1299.61 963.114   2
   6   7  -4 490.926 922.357   3
   6   7  -3 12507.8 1191.15   2
   6   7  -3 15116.8 1079.05   5
   6   7  -3 12473.0 1356.79   3
   6   7  -2 87529.2 2402.94   2
   6   7  -2 91581.4 2315.11   5
   6   7  -2 90145.6 2708.32   3
   6   7  -1 52512.8 1769.13   2
   6   7  -1 52912.5 1833.84   5
   6   7  -1 51809.1 2001.87   3
   6   7   0 19818.3 1078.70   2
   6   7   0 19801.1 1217.83   5
   6   7   0 20322.4 1276.34   3
   6   7   1 19787.6 989.949   2
   6   7   1 17877.7 1177.27   5
   6   7   1 20022.6 1214.59   3
   6   7   2 50534.2 1349.65   2
   6   7   2 48832.6 1823.58   5
   6   7   2 50241.6 1662.36   3
   6   7   3 21292.0 853.735   2
   6   7   3 22575.0 1322.33   5
   6   7   3 22653.8 1126.68   3
  -6  -7  -4 19016.5 1227.79   1
   6   7   4 21985.7 795.053   2
   6   7   4 21921.3 1363.20   5
   6   7   4 22208.6 1014.54   3
  -6  -7  -5 27208.9 1450.03   1
   6   7   5 27698.2 1485.53   5
   6   7   5 24859.1 982.434   3
  -6  -7  -6 26160.0 1476.96   1
   6   7   6 25337.8 1466.33   5
   6   7   7 73691.4 2344.12   5
  -6  -7  -7 77159.9 2389.10   1
   6   7   8 103209. 2750.30   5
  -6  -7  -8 101423. 2823.04   1
   6   7   9 31983.1 1697.93   5
  -6  -7  -9 33261.0 1816.45   1
  -6  -7 -10 167.717 879.788   1
  -6  -7 -11 624.200 1233.22   1
   6   8  -4 47784.7 2269.00   2
   6   8  -3 40166.7 1973.01   2
   6   8  -3 38163.9 2152.35   3
   6   8  -2 10301.8 1082.57   2
   6   8  -2 10635.0 1054.10   5
   6   8  -2 10223.1 1258.03   3
   6   8  -1 2584.62 751.634   2
   6   8  -1 2906.87 806.330   5
   6   8  -1 2843.25 951.887   3
   6   8   0-185.547 596.616   2
   6   8   0 89.1204 737.240   5
   6   8   0 139.665 699.603   3
   6   8   1 4488.20 653.894   2
   6   8   1 3787.91 858.205   5
   6   8   1 4331.46 809.697   3
   6   8   2 34673.4 1183.57   2
   6   8   2 35952.6 1659.86   5
   6   8   2 32352.9 1498.94   3
   6   8   3 67397.2 2222.88   5
   6   8   3 67558.9 1928.83   3
  -6  -8  -4 68503.4 2158.72   1
   6   8   4 73023.8 2357.17   5
   6   8   4 74560.6 1888.61   3
  -6  -8  -5 58866.0 2081.08   1
   6   8   5 65555.2 2235.34   5
   6   8   5 63780.5 1620.40   3
  -6  -8  -6 33358.7 1700.75   1
   6   8   6 32061.6 1715.26   5
   6   8   7 5672.92 987.416   5
  -6  -8  -7 4275.32 984.134   1
   6   8   8 17247.6 1393.88   5
  -6  -8  -8 16718.6 1375.77   1
   6   8   9 49996.2 2101.90   5
  -6  -8  -9 46552.5 2156.36   1
   6   8  10 14563.0 1359.07   5
  -6  -8 -10 14895.7 1559.83   1
   6   8  11 19341.5 1483.94   5
  -6  -8 -11 19851.0 1870.88   1
   6   9  -3 1992.74 964.925   2
   6   9  -2 4318.50 995.183   2
   6   9  -2 3438.17 1011.60   3
   6   9  -1 10988.9 1088.57   2
   6   9  -1 11188.7 1169.76   5
   6   9  -1 9427.42 1307.30   3
   6   9   0 79153.2 2547.30   5
   6   9   0 80732.9 2675.40   3
   6   9   1 75166.1 2483.40   5
   6   9   1 79524.0 2543.78   3
   6   9   2 24490.8 1563.05   5
   6   9   2 21746.7 1365.94   3
   6   9   3 8657.32 1036.21   5
   6   9   3 9520.16 991.324   3
   6   9   4 3934.34 947.225   5
  -6  -9  -4 4093.68 874.296   1
   6   9   4 4271.64 739.050   3
   6   9   5 3041.93 939.220   5
  -6  -9  -5 2965.59 792.246   1
  -6  -9  -6 64554.5 2294.36   1
   6   9   6 70997.5 2476.96   5
  -6  -9  -7 71126.3 2460.85   1
   6   9   7 72160.3 2542.59   5
   6   9   8 35189.4 1826.38   5
  -6  -9  -8 34269.8 1870.72   1
   6   9   9 25230.5 1671.60   5
  -6  -9  -9 26928.5 1857.89   1
   6   9  10 11041.8 1311.33   5
  -6  -9 -10 11320.3 1491.47   1
   6   9  11 292.978 910.589   5
   6   9  12 6696.92 1178.03   5
   6  10  -1 27586.8 1776.55   5
   6  10   0 3600.49 1021.97   5
   6  10   0 3251.45 1011.00   3
   6  10   1 44.8049 840.284   5
   6  10   1 471.864 876.388   3
   6  10   2 9754.90 1242.13   5
   6  10   2 9289.60 1135.85   3
   6  10   3 36773.8 1949.27   5
   6  10   3 37855.5 1766.34   3
   6  10   4 53352.8 2274.52   5
   6  10   4 58480.6 1990.83   3
  -6 -10  -5 47804.8 2048.25   1
   6  10   5 55533.4 2367.29   5
  -6 -10  -6 18836.2 1524.55   1
   6  10   6 21510.6 1581.93   5
   6  10   7 1754.29 877.090   5
  -6 -10  -7 2842.16 905.000   1
   6  10   8 545.736 907.991   5
  -6 -10  -8-215.652 994.966   1
   6  10   9 1059.24 975.581   5
  -6 -10  -9-158.096 963.541   1
   6  10  10 17915.3 1583.68   5
   6  11   0 23940.8 1789.71   5
   6  11   1 22077.0 1698.27   5
   6  11   1 22520.2 1829.44   3
   6  11   2 35234.6 2036.50   5
   6  11   2 32118.1 1910.81   3
   6  11   3 29643.6 1934.33   5
   6  11   3 26661.6 1710.71   3
   6  11   4 1692.85 1004.97   5
  -6 -11  -4 648.698 766.219   1
   6  11   5 7407.65 1201.60   5
  -6 -11  -5 6393.01 1121.41   1
  -6 -11  -6 14079.1 1460.43   1
   6  11   6 14305.0 1514.21   5
   6  11   7 9059.74 1242.98   5
  -6 -11  -7 7984.92 1243.45   1
  -6 -11  -8 24187.7 1751.58   1
  -7   6   8 10150.3 1390.60   0
  -7   6   7 1286.02 985.497   0
  -7   6   6 21.5312 819.466   0
  -7   6   5 5554.37 1180.12   0
  -7   6   4 37101.7 2014.24   0
  -7   6   3 67431.4 2578.21   0
  -7   6   2 33472.5 1952.12   0
  -7   6   1 9328.63 1388.78   0
  -7   6   0 6412.41 1220.17   0
   7  -6   1 1819.40 963.529   6
   7  -5 -10 584.694 984.072   2
   7  -5 -10 612.630 991.773   4
   7  -5  -9 8080.74 1202.57   2
   7  -5  -8 30553.3 1784.52   2
  -7   5   8 29852.8 1726.01   0
  -7   5   7 32226.7 1796.18   0
  -7   5   6 34256.3 1756.57   0
  -7   5   5 42356.5 1922.00   0
  -7   5   4 26304.0 1645.81   0
  -7   5   3 361.821 788.227   0
  -7   5   2 10133.3 1228.16   0
  -7   5   1 5716.07 1095.36   0
  -7   5   0 14015.6 1384.35   0
   7  -5   1 64256.4 2319.23   6
  -7   5  -1 69329.8 2630.08   0
   7  -5   2 46249.2 2119.85   6
  -7   5  -2 45631.7 2270.47   0
   7  -5   3 11904.7 1385.14   6
   7  -4 -10 46207.2 2233.12   2
   7  -4  -9 29404.8 1819.61   2
   7  -4  -8 14733.1 1341.17   2
  -7   4   8 13866.3 1258.61   0
   7  -4  -7 25963.9 1612.62   2
  -7   4   7 22076.6 1401.11   0
  -7   4   6 4426.34 891.054   0
   7  -4  -6 5001.48 978.827   2
  -7   4   5 9824.01 1064.85   0
  -7   4   4 38005.0 1755.44   0
  -7   4   3 55432.9 2075.21   0
  -7   4   2 44527.2 1919.97   0
  -7   4   1 84001.9 2576.08   0
  -7   4   0 48994.7 2066.13   0
  -7   4  -1 479.161 793.831   0
   7  -4   1 266.457 676.942   6
  -7   4  -2 2914.67 1050.28   0
   7  -4   2 3494.51 875.579   6
  -7   4  -3 4922.25 1172.91   0
   7  -4   3 5250.81 1031.22   6
   7  -4   4 20129.6 1557.22   6
  -7   4  -4 21077.6 1756.81   0
   7  -3 -10 2000.50 1066.45   2
   7  -3  -9 23.9138 836.399   2
   7  -3  -8 4722.12 1029.24   2
   7  -3  -7 20054.6 1415.39   2
  -7   3   7 19527.4 1282.02   0
   7  -3  -6 85798.9 2520.94   2
  -7   3   6 84422.0 2310.80   0
   7  -3  -5 75988.8 2307.13   2
  -7   3   5 78177.1 2214.25   0
  -7   3   4 13292.1 1151.42   0
  -7   3   3 28591.5 1491.89   0
  -7   3   2 27099.9 1513.56   0
  -7   3   1 6611.48 963.171   0
   7  -3   0 58357.7 1750.14   6
  -7   3   0 62257.9 2138.85   0
   7  -3   1 46978.4 1693.79   6
  -7   3  -1 45489.2 1979.52   0
   7  -3   2 44224.8 1759.87   6
  -7   3  -2 44391.7 2004.99   0
   7  -3   3 60458.2 2153.66   6
  -7   3  -3 61560.6 2384.52   0
   7  -3   4 35898.8 1810.91   6
  -7   3  -4 34575.6 1879.55   0
   7  -3   5 6630.66 1158.00   6
  -7   3  -5 6044.24 1170.30   0
   7  -3   6 2252.81 1013.75   6
   7  -2 -10 9559.34 1293.64   2
   7  -2  -9 48220.7 2213.78   2
   7  -2  -8 63277.1 2365.31   2
   7  -2  -7 31104.6 1677.31   2
  -7   2   7 32778.7 1444.22   0
  -7   2   6 1082.75 617.803   0
   7  -2  -6 1739.29 737.077   2
  -7   2   5 410.684 631.589   0
   7  -2  -5 380.463 753.942   2
  -7   2   4 10236.7 971.997   0
   7  -2  -4 10042.5 1095.34   2
  -7   2   3 82905.3 2169.84   0
  -7   2   2 58417.7 1889.87   0
  -7   2   1 59153.9 1956.68   0
   7  -2   0 44420.8 1374.92   6
  -7   2   0 42163.2 1723.50   0
   7  -2   1 27750.0 1230.65   6
  -7   2  -1 27941.9 1467.56   0
   7  -2   2 17600.2 1109.12   6
  -7   2  -2 19125.1 1354.11   0
   7  -2   3 6172.96 885.363   6
  -7   2  -3 6735.28 1091.95   0
   7  -2   4 39766.4 1770.70   6
  -7   2  -4 37319.3 1919.93   0
   7  -2   5 34757.4 1786.39   6
  -7   2  -5 33491.8 1869.47   0
   7  -2   6 20054.8 1507.46   6
  -7   2  -6 18202.8 1631.81   0
   7  -2   7 23103.1 1703.06   6
  -7   2  -7 23094.2 1789.62   0
   7  -1 -10 18572.2 1650.98   2
   7  -1  -9 5157.43 1161.32   2
   7  -1  -8 1972.41 951.857   2
   7  -1  -7 14306.6 1230.71   2
   7  -1  -6 30070.0 1580.03   2
  -7   1   6 33581.7 1313.72   0
   7  -1  -5 76288.1 2273.74   2
  -7   1   5 74526.9 1862.51   0
  -7   1   4 188890. 2924.00   0
   7  -1  -4 190803. 3371.81   2
  -7   1   3 114140. 2348.95   0
   7  -1  -3 110750. 2540.56   2
   7  -1  -2 4586.95 387.711   6
   7  -1  -2 4635.58 807.694   2
  -7   1   2 4655.26 838.794   0
   7  -1  -1 21046.6 784.550   6
  -7   1   1 22053.7 1245.74   0
   7  -1   0 99.8998 399.456   6
  -7   1   0 933.089 686.974   0
  -7   1   0 370.301 260.870   1
   7  -1   1 27346.7 1078.61   6
  -7   1  -1 26349.0 1421.93   0
  -7   1  -1 28082.8 694.699   1
   7  -1   2 109375. 2227.52   6
  -7   1  -2 106373. 2598.64   0
   7  -1   3 53240.7 1732.41   6
  -7   1  -3 52361.8 1924.52   0
   7  -1   4 22592.4 1305.96   6
  -7   1  -4 24022.9 1450.57   0
   7  -1   5 35897.0 1688.29   6
  -7   1  -5 32832.7 1806.89   0
   7  -1   6 17116.7 1373.11   6
  -7   1  -6 17093.5 1503.09   0
   7  -1   7 1680.52 829.882   6
  -7   1  -7 1291.23 983.541   0
   7  -1   8 24003.6 1812.81   6
   7   0  -9 40989.8 2188.63   2
   7   0  -8 40264.1 1976.10   2
   7   0  -7 49717.5 2078.39   2
   7   0  -6 34067.4 1661.49   2
  -7   0   6 37579.5 1253.21   0
   7   0  -5 19354.6 1305.06   2
  -7   0   5 18903.2 946.031   0
   7   0  -4 5255.14 801.083   2
  -7   0   4 5293.78 685.700   0
  -7   0   3 65182.2 1693.20   0
   7   0  -3 69347.4 2044.73   2
   7   0  -2 37632.0 1541.77   2
  -7   0   2 37005.0 1354.04   0
   7   0  -1 65102.2 918.485   6
   7   0  -1 65518.2 1891.98   2
  -7   0   1 62379.2 1748.74   0
   7   0   0 92359.7 1428.97   6
  -7   0   0 87962.3 2108.63   0
  -7   0  -1 88081.0 1410.34   1
   7   0   1 90172.3 1645.26   6
  -7   0  -1 91680.2 2226.43   0
   7   0   2 33220.8 1186.95   6
  -7   0  -2 31243.3 1469.74   0
  -7   0  -2 30867.6 914.997   1
   7   0   3 380.183 520.105   6
  -7   0  -3 185.777 425.413   1
  -7   0  -3 69.7359 782.656   0
   7   0   4 294.371 587.750   6
  -7   0  -4 727.406 497.267   1
  -7   0  -4 154.174 761.026   0
   7   0   5 22966.7 1307.13   6
  -7   0  -5 25385.3 1528.00   0
  -7   0  -5 24396.3 1170.19   1
   7   0   6 71530.6 2284.91   6
  -7   0  -6 73995.9 2495.95   0
   7   0   7 60765.3 2275.78   6
  -7   0  -7 58699.4 2372.05   0
   7   0   8 32425.8 1871.48   6
  -7   0  -8 31732.4 1976.27   0
   7   1 -10 14864.5 1571.90   3
   7   1  -9 7972.24 1369.53   2
   7   1  -9 7115.47 1244.84   3
   7   1  -8 2956.20 1052.61   2
   7   1  -8 2302.51 1018.14   3
   7   1  -7 428.154 818.244   2
   7   1  -7 1033.14 872.105   3
   7   1  -6 40907.8 1871.49   2
   7   1  -5 101411. 2637.88   2
  -7  -1   5 102148. 1717.63   0
   7   1  -4 53063.4 1886.67   2
  -7  -1   4 49651.8 1283.00   0
  -7  -1   3 36281.5 1188.90   0
   7   1  -3 33654.2 1510.93   2
   7   1  -2 81820.4 2102.54   2
  -7  -1   2 81616.8 1742.06   0
   7   1  -1 18660.9 1060.48   2
  -7  -1   1 18763.1 992.852   0
   7   1   0 19490.7 487.980   6
   7   1   0 18566.4 1113.25   2
  -7  -1   0 18746.9 1026.45   0
   7   1   1 11733.1 587.317   6
  -7  -1  -1 12538.2 924.673   0
  -7  -1  -1 11539.3 665.967   1
   7   1   2 3558.62 507.794   6
  -7  -1  -2 3496.57 506.402   1
  -7  -1  -2 3448.23 785.576   0
   7   1   3 61070.3 1569.01   6
  -7  -1  -3 58191.9 1846.97   0
  -7  -1  -3 60425.9 1402.11   1
   7   1   4 123368. 2411.41   6
  -7  -1  -4 122305. 2788.26   0
  -7  -1  -4 120323. 2065.96   1
   7   1   5 84905.8 2204.30   6
  -7  -1  -5 80831.0 2384.56   0
  -7  -1  -5 86929.5 1950.87   1
   7   1   6 41130.3 1727.14   6
  -7  -1  -6 40132.9 1831.39   0
  -7  -1  -6 43620.9 1581.85   1
   7   1   7 1543.01 739.299   6
  -7  -1  -7 1939.26 845.311   1
  -7  -1  -7 1167.83 917.285   0
   7   1   8 3398.02 965.167   6
  -7  -1  -8 3497.94 1036.72   1
  -7  -1  -8 3378.68 1076.11   0
   7   1   9 11922.6 1383.29   6
  -7  -1  -9 10710.3 1358.74   0
   7   2  -9 4488.28 1184.63   3
   7   2  -8 54349.4 2386.45   2
   7   2  -8 56259.8 2365.20   3
   7   2  -7 133819. 3353.78   2
   7   2  -7 135547. 3380.61   3
   7   2  -6 28376.6 1616.51   2
   7   2  -6 28381.9 1704.78   3
   7   2  -5 415.489 796.097   2
   7   2  -5 1701.14 881.022   3
  -7  -2   4 247.646 354.310   0
   7   2  -4 115.625 693.174   2
   7   2  -4 205.197 799.814   3
   7   2  -3 1134.68 658.988   2
  -7  -2   3 1952.23 439.166   0
   7   2  -3 1512.06 686.460   3
   7   2  -2 14033.8 1054.67   2
  -7  -2   2 15167.8 785.625   0
   7   2  -1 83089.4 2026.48   2
  -7  -2   1 83966.3 1710.31   0
  -7  -2   0 71986.7 1666.85   0
   7   2   0 72448.9 1875.60   2
   7   2   1 100267. 1203.57   6
  -7  -2  -1 94365.5 2006.55   0
   7   2   1 98439.1 2127.57   2
   7   2   2 99905.0 1562.69   6
  -7  -2  -2 98912.3 1840.19   1
  -7  -2  -2 94743.7 2120.85   0
  -7  -2  -3 56779.7 1462.15   1
   7   2   3 59920.6 1434.69   6
  -7  -2  -3 54807.8 1767.30   0
   7   2   4 714.283 503.252   6
  -7  -2  -4 479.003 508.900   1
   7   2   5 87273.3 2125.17   6
  -7  -2  -5 79637.5 1882.66   1
   7   2   6 41390.2 1639.30   6
  -7  -2  -6 39088.1 1504.25   1
   7   2   7 16082.5 1224.09   6
  -7  -2  -7 15120.7 1171.04   1
   7   2   8 64825.6 2297.35   6
  -7  -2  -8 64236.4 2215.14   1
   7   2   9 38823.3 1954.29   6
  -7  -2  -9 37470.4 2001.98   1
   7   2  10 4702.21 1146.91   6
  -7  -2 -10 4971.31 1320.24   1
   7   3  -8 8881.14 1364.93   2
   7   3  -8 10439.7 1414.89   3
   7   3  -7-189.029 944.087   2
   7   3  -7 218.123 799.700   3
   7   3  -6 4084.41 946.469   2
   7   3  -6 6103.16 1049.93   3
   7   3  -5 14542.8 1183.66   2
   7   3  -5 17455.8 1388.71   3
   7   3  -4 50895.2 1893.41   2
   7   3  -4 48483.9 1916.22   3
   7   3  -3 133606. 2825.79   2
   7   3  -3 139003. 2985.87   3
  -7  -3   3 139422. 1566.62   0
   7   3  -2 101062. 2350.66   2
  -7  -3   2 98751.6 1524.24   0
   7   3  -2 98946.4 2452.71   3
   7   3  -1 14050.3 999.018   2
  -7  -3   1 15322.7 763.240   0
   7   3  -1 14793.9 1023.65   3
  -7  -3   0 18882.0 902.430   0
   7   3   0 19898.6 1101.90   2
   7   3   1 5526.64 714.016   2
  -7  -3  -1 5966.39 661.242   0
  -7  -3  -2 38517.8 978.476   6
  -7  -3  -2 42159.2 1334.80   1
  -7  -3  -2 40242.3 1412.06   0
  -7  -3  -3 144817. 2407.03   1
   7   3   3 146130. 2038.39   6
  -7  -3  -4 121447. 2280.59   1
   7   3   4 129010. 2180.37   6
   7   3   5 80751.2 1944.40   6
  -7  -3  -5 80029.7 1957.73   1
   7   3   6 53732.7 1765.87   6
  -7  -3  -6 53901.9 1757.63   1
   7   3   7 11748.3 1061.86   6
  -7  -3  -7 11377.3 1102.94   1
   7   3   8 621.946 665.245   6
  -7  -3  -8 742.481 834.896   1
   7   3   9 19486.7 1467.07   6
  -7  -3  -9 18724.2 1525.31   1
   7   3  10 25725.7 1689.88   6
  -7  -3 -10 22267.5 1762.11   1
  -7  -3 -11 6367.57 1468.90   1
   7   4  -7 20912.6 1673.42   2
   7   4  -7 20917.7 1649.12   3
   7   4  -6 18587.0 1497.69   2
   7   4  -6 16190.4 1522.69   3
   7   4  -5 67996.4 2364.97   2
   7   4  -5 63403.3 2368.44   3
   7   4  -4 33665.7 1678.31   2
   7   4  -4 30560.9 1686.98   3
   7   4  -3 11.8387 658.773   2
   7   4  -3-261.552 787.330   3
  -7  -4   2 4912.18 398.614   0
   7   4  -2 5087.80 750.822   2
   7   4  -2 4674.04 914.130   3
   7   4  -1 20759.0 1169.53   2
  -7  -4   1 20927.5 774.511   0
   7   4  -1 21346.1 1312.38   3
   7   4   0 67409.8 1784.91   2
  -7  -4   0 68377.8 1429.57   0
   7   4   0 70070.1 1967.44   3
   7   4   1 208926. 2933.18   2
  -7  -4  -1 206004. 2655.57   0
  -7  -4  -2 106848. 1589.48   6
   7   4   2 119256. 2205.21   2
  -7  -4  -3 24632.0 1157.38   1
   7   4   4 4461.07 565.686   6
  -7  -4  -4 4348.92 693.205   1
   7   4   5 306.121 494.244   6
  -7  -4  -5 687.066 580.457   1
   7   4   6 8869.42 841.028   6
  -7  -4  -6 7578.11 887.686   1
   7   4   7 74119.1 2133.93   6
  -7  -4  -7 74221.5 2214.44   1
   7   4   8 73398.1 2285.86   6
  -7  -4  -8 70572.5 2318.47   1
   7   4   9 16177.6 1328.72   6
  -7  -4  -9 17070.6 1431.61   1
   7   4  10 19342.7 1553.58   6
  -7  -4 -10 18812.1 1667.83   1
  -7  -4 -11 10547.4 1542.61   1
   7   5  -6 1653.18 1033.82   2
   7   5  -6 2120.09 926.547   3
   7   5  -5 14023.5 1378.89   2
   7   5  -5 15519.5 1476.77   3
   7   5  -4 37524.5 1805.21   2
   7   5  -4 36897.8 1849.94   3
   7   5  -3 48263.1 1849.61   2
   7   5  -3 46398.1 1981.43   3
   7   5  -2 99652.5 2447.71   2
   7   5  -2 98112.2 2582.98   3
   7   5  -1 124463. 2559.39   2
   7   5  -1 130618. 2595.88   5
  -7  -5   1 127136. 1479.03   0
   7   5  -1 121902. 2763.56   3
   7   5   0 24212.2 1176.33   2
   7   5   0 21470.5 1240.47   5
  -7  -5   0 21736.3 820.195   0
   7   5   0 23246.1 1251.91   3
   7   5   1 11119.8 829.298   2
   7   5   1 10327.2 1010.11   5
   7   5   1 9970.08 907.587   3
   7   5   2 18614.4 959.601   2
   7   5   2 18587.2 1169.91   5
   7   5   2 18812.9 1085.86   3
  -7  -5  -3 35444.9 1454.22   1
   7   5   3 37002.4 1613.06   5
  -7  -5  -4 54120.4 1760.95   1
  -7  -5  -5 48636.6 1729.09   1
   7   5   6 65371.8 1849.60   6
  -7  -5  -6 62789.6 2018.70   1
   7   5   7 20671.1 1228.02   6
  -7  -5  -7 20414.0 1324.61   1
   7   5   8 3896.49 819.628   6
  -7  -5  -8 3525.90 944.208   1
   7   5   9 3731.01 931.732   6
  -7  -5  -9 3161.51 984.172   1
   7   5  10 4356.65 980.176   6
  -7  -5 -10 2023.50 1053.97   1
   7   5  11 33825.3 1987.49   6
  -7  -5 -11 30086.7 2144.51   1
   7   6  -5 45837.7 2208.01   2
   7   6  -5 44413.4 2313.35   3
   7   6  -4 14887.7 1314.63   2
   7   6  -4 14316.7 1466.50   3
   7   6  -3 35006.6 1703.91   2
   7   6  -3 37570.1 1494.54   5
   7   6  -3 35282.7 1867.72   3
   7   6  -2 3646.89 766.650   2
   7   6  -2 4783.63 790.142   5
   7   6  -2 3706.96 974.891   3
   7   6  -1 54180.0 1788.29   2
   7   6  -1 51993.8 1797.00   5
   7   6  -1 51693.0 1936.47   3
   7   6   0 107956. 2313.58   2
   7   6   0 112050. 2572.22   5
   7   6   0 106813. 2609.88   3
   7   6   1 103087. 2134.93   2
   7   6   1 106047. 2546.88   5
   7   6   1 101071. 2413.71   3
   7   6   2 32480.4 1200.63   2
   7   6   2 31386.4 1529.04   5
   7   6   2 34212.6 1413.48   3
   7   6   3 37481.5 1238.96   2
   7   6   3 35175.9 1613.61   5
   7   6   3 36727.1 1372.98   3
  -7  -6  -4 44514.3 1720.02   1
   7   6   4 45025.8 1822.92   5
   7   6   5 1333.23 784.618   5
  -7  -6  -5 321.050 614.622   1
  -7  -6  -6 9712.12 1045.75   1
   7   6   6 10199.2 1118.61   5
  -7  -6  -7 1812.62 839.980   1
  -7  -6  -8 12412.1 1226.50   1
   7   6   9 83571.6 2541.75   6
  -7  -6  -9 80299.4 2674.60   1
   7   6  10 69819.4 2498.29   6
  -7  -6 -10 71756.0 2794.84   1
   7   6  11 5475.97 1135.03   6
  -7  -6 -11 3100.01 1243.96   1
   7   7  -5 1672.82 1000.31   2
   7   7  -4 14146.2 1404.44   2
   7   7  -4 13851.2 1465.46   3
   7   7  -3 37040.9 1853.94   2
   7   7  -3 38178.1 2029.09   3
   7   7  -2 61878.5 2130.83   2
   7   7  -2 65099.0 2049.17   5
   7   7  -2 61867.0 2341.67   3
   7   7  -1 53592.5 1858.14   2
   7   7  -1 58404.8 1972.62   5
   7   7  -1 57434.8 2143.90   3
   7   7   0 18497.3 1121.78   2
   7   7   0 16131.8 1207.02   5
   7   7   0 19385.2 1363.80   3
   7   7   1 3690.09 641.367   2
   7   7   1 4269.90 821.280   5
   7   7   1 3975.66 781.319   3
   7   7   2 8646.91 747.158   2
   7   7   2 7819.72 1015.57   5
   7   7   2 7715.09 883.584   3
   7   7   3 4150.77 547.269   2
   7   7   3 4036.19 892.895   5
   7   7   3 4579.42 720.259   3
   7   7   4 46008.8 1885.57   5
   7   7   4 45079.7 1463.12   3
  -7  -7  -5 51550.5 1953.28   1
   7   7   5 53216.0 2055.24   5
  -7  -7  -6 48772.1 1936.87   1
   7   7   6 50911.0 2024.11   5
  -7  -7  -7 43372.6 1940.02   1
   7   7   7 36797.3 1836.38   5
   7   7   8 42610.8 1995.63   5
  -7  -7  -8 37883.2 1905.96   1
  -7  -7  -9 6075.48 1217.12   1
  -7  -7 -10 4510.47 1155.89   1
  -7  -7 -11 11947.3 1660.38   1
   7   8  -4 48903.0 2321.80   2
   7   8  -3 16305.9 1449.21   2
   7   8  -3 15448.3 1648.53   3
   7   8  -2 3011.10 885.030   2
   7   8  -2 2721.14 800.710   5
   7   8  -2 2572.60 1046.78   3
   7   8  -1 3018.72 811.375   2
   7   8  -1 2355.44 831.916   5
   7   8  -1 2836.74 884.746   3
   7   8   0 5224.36 802.109   2
   7   8   0 5614.09 983.140   5
   7   8   0 4781.31 896.182   3
   7   8   1 55269.2 1722.89   2
   7   8   1 53784.3 2058.34   5
   7   8   1 56350.4 2064.70   3
   7   8   2 38720.9 1333.14   2
   7   8   2 35613.8 1769.86   5
   7   8   2 39124.2 1693.41   3
   7   8   3 15144.9 1264.56   5
   7   8   3 17384.3 1154.27   3
  -7  -8  -4 22154.4 1423.20   1
   7   8   4 24869.8 1566.70   5
   7   8   4 23313.9 1202.85   3
  -7  -8  -5 29593.8 1635.14   1
   7   8   5 29089.1 1620.19   5
   7   8   5 32503.5 1280.94   3
  -7  -8  -6 21238.1 1432.09   1
   7   8   6 21833.0 1466.00   5
   7   8   7 4227.25 1053.26   5
  -7  -8  -7 4219.97 979.232   1
   7   8   8 47017.5 2129.17   5
  -7  -8  -8 43121.8 2114.86   1
   7   8   9 37946.3 1978.80   5
  -7  -8  -9 34698.0 1989.64   1
   7   8  10 23225.9 1629.98   5
  -7  -8 -10 20621.5 1751.05   1
   7   9  -3 23013.5 1749.45   2
   7   9  -2 18877.8 1487.31   2
   7   9  -1 25422.9 1625.07   5
   7   9  -1 24963.1 1734.16   3
   7   9   0 45370.1 2039.44   5
   7   9   0 44540.0 2153.61   3
   7   9   1 29943.7 1759.84   5
   7   9   1 27281.2 1655.53   3
   7   9   2 3925.13 986.815   5
   7   9   2 3634.92 864.348   3
   7   9   3 4698.84 906.887   5
   7   9   3 3896.67 829.310   3
   7   9   4 1686.96 794.478   5
  -7  -9  -4 1252.79 787.421   1
   7   9   4 1616.11 649.790   3
  -7  -9  -5 11295.4 1203.46   1
   7   9   5 11897.6 1304.69   5
  -7  -9  -6 82025.5 2675.81   1
   7   9   6 80702.9 2704.53   5
  -7  -9  -7 63515.0 2454.22   1
   7   9   7 65647.6 2526.87   5
   7   9   8 12501.6 1287.61   5
  -7  -9  -8 10985.2 1293.52   1
  -7  -9  -9 2041.00 1086.88   1
   7   9   9 2053.28 971.335   5
   7   9  10 3317.96 953.299   5
   7   9  11 741.135 975.556   5
   7  10   0 3033.49 992.428   5
   7  10   0 2888.61 1001.48   3
   7  10   1 18828.5 1616.58   5
   7  10   1 19924.8 1558.31   3
   7  10   2 26417.3 1797.85   5
   7  10   2 27613.6 1695.44   3
   7  10   3 35737.0 2033.27   5
   7  10   3 38262.2 1829.52   3
  -7 -10  -4 30231.1 1780.55   1
   7  10   4 33451.5 2009.50   5
  -7 -10  -5 27230.5 1742.58   1
   7  10   5 28465.2 1904.42   5
   7  10   6 7776.28 1180.51   5
  -7 -10  -6 6724.95 1092.35   1
   7  10   7 1240.48 816.062   5
  -7 -10  -7 507.756 941.986   1
   7  10   8 1598.36 1004.67   5
  -7 -10  -8 923.037 1061.86   1
   7  10   9 16942.3 1542.62   5
   7  11   2 24969.5 1824.73   5
   7  11   2 23879.6 1773.82   3
   7  11   3 9757.82 1354.23   5
   7  11   3 8347.53 1211.44   3
   7  11   4 5976.35 1256.34   5
  -7 -11  -4 4707.28 1105.46   1
  -7 -11  -5 20769.0 1599.77   1
   7  11   5 25789.5 1947.91   5
  -7 -11  -6 9200.92 1277.54   1
  -8   5   8 32038.2 1896.86   0
  -8   5   7 19383.9 1625.02   0
  -8   5   6 29086.4 1841.78   0
  -8   5   5 22208.3 1663.37   0
  -8   5   4-10.3625 1007.80   0
  -8   5   3 14166.9 1468.67   0
  -8   5   2 13692.4 1458.72   0
  -8   5   1 3442.29 1195.33   0
   8  -5   2 23188.5 1735.87   6
   8  -4  -8 2183.86 982.254   2
  -8   4   8 1879.80 896.982   0
  -8   4   7 157.305 826.741   0
   8  -4  -7 117.341 914.442   2
  -8   4   6 3405.51 913.318   0
  -8   4   5 31748.6 1769.35   0
  -8   4   4 37030.6 1889.22   0
  -8   4   3 18744.3 1406.64   0
  -8   4   2 27356.2 1679.54   0
  -8   4   1 45441.9 2121.05   0
  -8   4   0 10739.8 1241.58   0
   8  -4   1 5189.47 953.216   6
  -8   4  -1 6035.44 1268.05   0
   8  -4   2 17858.9 1437.91   6
  -8   4  -2 18402.7 1654.17   0
   8  -4   3 11999.5 1290.16   6
   8  -4   4 27929.2 1910.05   6
   8  -3  -9 3350.18 1164.09   2
   8  -3  -8 8292.23 1291.45   2
  -8   3   8 6694.81 977.266   0
   8  -3  -7 35203.7 1948.94   2
  -8   3   7 36019.4 1710.67   0
   8  -3  -6 77687.6 2589.03   2
  -8   3   6 71719.9 2298.14   0
  -8   3   5 24682.6 1451.17   0
  -8   3   4 13700.8 1244.68   0
  -8   3   3 8247.60 1065.45   0
  -8   3   2 3792.79 965.896   0
  -8   3   1 38702.0 1831.02   0
  -8   3   0 87516.6 2693.11   0
   8  -3   1 48298.5 1795.06   6
  -8   3  -1 50698.0 2202.05   0
   8  -3   2 26176.1 1491.02   6
  -8   3  -2 26137.3 1761.61   0
   8  -3   3 30285.5 1689.88   6
  -8   3  -3 26135.6 1830.36   0
   8  -3   4 5801.96 1106.33   6
  -8   3  -4 5869.17 1273.91   0
   8  -3   5 1695.94 1013.55   6
   8  -2  -9 31644.0 1977.31   2
   8  -2  -8 28929.5 1847.42   2
   8  -2  -7 3948.34 975.999   2
  -8   2   7 4414.98 833.312   0
  -8   2   6 2723.74 777.417   0
   8  -2  -6 1477.05 892.800   2
  -8   2   5 4557.72 856.732   0
   8  -2  -5 5632.17 1053.56   2
   8  -2  -4 3951.20 918.851   2
  -8   2   4 4517.29 882.164   0
  -8   2   3 53326.3 1940.39   0
  -8   2   2 157014. 3218.19   0
  -8   2   1 66924.7 2197.66   0
  -8   2   0 11024.6 1211.59   0
   8  -2   1 10333.2 890.908   6
  -8   2  -1 8897.58 1126.35   0
   8  -2   2 3720.89 753.183   6
  -8   2  -2 2696.61 968.751   0
   8  -2   3 66736.1 2170.89   6
  -8   2  -3 59329.6 2319.39   0
   8  -2   4 53767.8 2108.77   6
  -8   2  -4 54533.4 2363.61   0
   8  -2   5 18950.0 1470.45   6
  -8   2  -5 19044.1 1614.82   0
   8  -2   6 14643.2 1417.39   6
   8  -1  -8 11264.7 1424.21   2
   8  -1  -7 31223.7 1816.59   2
   8  -1  -6 44000.8 2025.31   2
  -8   1   6 41438.5 1546.36   0
   8  -1  -5 53036.7 2076.14   2
  -8   1   5 53462.2 1756.40   0
  -8   1   4 102394. 2364.19   0
   8  -1  -4 101749. 2712.83   2
  -8   1   3 9039.13 976.709   0
   8  -1  -3 11123.9 1134.68   2
  -8   1   2 14546.8 1167.15   0
  -8   1   1 15146.7 1148.63   0
  -8   1   0 45502.6 1802.55   0
   8  -1   1 62183.3 1655.35   6
  -8   1  -1 60812.7 2092.63   0
   8  -1   2 66610.0 1858.31   6
  -8   1  -2 59043.9 2157.24   0
   8  -1   3 44445.6 1688.52   6
  -8   1  -3 42531.7 1939.44   0
   8  -1   4 5446.19 894.219   6
  -8   1  -4 4888.85 1074.00   0
  -8   1  -5 441.116 877.890   0
   8  -1   5 452.376 767.517   6
  -8   1  -6 259.357 881.014   0
   8  -1   6 110.017 770.347   6
   8  -1   7 3123.37 993.778   6
   8   0  -8 16161.5 1593.29   2
   8   0  -7 30508.0 1785.18   2
   8   0  -6 28308.2 1699.17   2
  -8   0   5 1033.91 579.194   0
   8   0  -5 852.656 762.416   2
   8   0  -4 64246.2 2199.76   2
  -8   0   4 64270.9 1788.37   0
  -8   0   3 80063.3 2021.80   0
   8   0  -3 79847.0 2328.66   2
   8   0  -2 81491.9 2325.90   2
  -8   0   2 81613.3 2083.84   0
  -8   0   1 98495.1 2351.31   0
  -8   0   0 45817.4 1108.27   1
  -8   0   0 45872.1 1749.50   0
   8   0   1 1038.47 425.758   6
  -8   0  -1 1356.42 386.975   1
  -8   0  -1 594.699 641.052   0
   8   0   2 7464.75 700.520   6
  -8   0  -2 7354.82 1011.40   0
   8   0   3 5992.32 735.124   6
  -8   0  -3 5679.67 993.480   0
   8   0   4 7994.35 887.844   6
  -8   0  -4 7237.29 1061.76   0
   8   0   5 40819.8 1747.76   6
  -8   0  -5 34111.8 1887.93   0
   8   0   6 64214.1 2262.72   6
  -8   0  -6 61316.5 2477.74   0
   8   0   7 32593.4 1811.52   6
  -8   0  -7 32590.0 1985.90   0
   8   0   8 4033.04 1036.13   6
   8   1  -8 1186.68 1009.68   2
   8   1  -7 5941.64 1065.94   2
   8   1  -6 61135.2 2371.06   2
   8   1  -5 87634.6 2628.91   2
   8   1  -4 52329.8 2004.16   2
  -8  -1   4 50931.6 1454.48   0
  -8  -1   3 15531.8 948.532   0
   8   1  -3 14906.3 1120.82   2
   8   1  -2 25529.3 1391.84   2
  -8  -1   2 25161.4 1167.35   0
  -8  -1   1 318.921 633.017   0
   8   1  -1 316.155 665.113   2
  -8  -1   0 80214.0 2074.86   0
  -8  -1  -1 79572.9 1587.58   1
  -8  -1  -1 78621.1 2118.59   0
  -8  -1  -2 35454.5 1109.40   1
   8   1   2 38302.3 1172.68   6
  -8  -1  -2 35332.4 1580.31   0
   8   1   3 26232.3 1127.01   6
  -8  -1  -3 25122.0 1013.74   1
   8   1   4 60462.3 1793.07   6
  -8  -1  -4 55031.8 2026.32   0
  -8  -1  -4 58276.9 1528.76   1
   8   1   5 51496.6 1839.81   6
  -8  -1  -5 51020.4 2105.34   0
  -8  -1  -5 57495.8 1664.62   1
   8   1   6 913.965 753.187   6
  -8  -1  -6 583.778 894.122   0
   8   1   7 9495.83 1113.30   6
  -8  -1  -7 7415.03 1181.40   0
   8   1   8 7514.22 1146.10   6
  -8  -1  -8 8233.98 1336.35   0
   8   2  -8 32319.5 2010.22   3
   8   2  -7 34609.3 1935.71   2
   8   2  -7 35948.5 2040.88   3
   8   2  -6 7756.44 1062.64   2
   8   2  -5 295.627 853.993   2
   8   2  -4 3332.05 814.733   2
  -8  -2   3 16470.2 873.775   0
   8   2  -3 17699.2 1259.03   2
   8   2  -2 71606.8 2144.13   2
  -8  -2   2 74826.1 1696.00   0
   8   2  -1 89251.1 2276.90   2
  -8  -2   1 98014.2 2041.86   0
   8   2   0 46115.5 1683.56   2
  -8  -2   0 46613.0 1517.30   0
  -8  -2  -1 20066.0 1135.36   0
  -8  -2  -2 7491.75 686.736   1
   8   2   2 9013.31 572.207   6
  -8  -2  -2 7046.64 844.840   0
   8   2   3 3192.02 512.975   6
  -8  -2  -3 2697.25 817.485   0
  -8  -2  -3 3018.61 582.924   1
   8   2   4 6013.41 677.705   6
  -8  -2  -4 5160.22 670.072   1
  -8  -2  -4 4807.00 843.360   0
   8   2   5 33418.8 1438.47   6
  -8  -2  -5 30690.7 1630.14   0
  -8  -2  -5 33685.4 1346.17   1
   8   2   6 43865.9 1753.72   6
  -8  -2  -6 41547.0 1613.35   1
   8   2   7 58156.7 2129.44   6
  -8  -2  -7 58736.8 1981.52   1
  -8  -2  -7 52306.2 2286.73   0
   8   2   8 44630.8 2037.63   6
  -8  -2  -8 39292.5 2152.48   0
   8   2   9 17634.2 1522.79   6
   8   3  -7 20376.4 1753.51   2
   8   3  -7 20943.1 1781.87   3
   8   3  -6 27288.3 1713.72   2
   8   3  -6 27702.9 1779.65   3
   8   3  -5 16466.9 1398.76   2
   8   3  -5 13936.4 1394.66   3
   8   3  -4 77990.7 2474.94   2
   8   3  -4 78947.0 2504.79   3
   8   3  -3 71546.2 2223.25   2
   8   3  -3 70735.5 2296.85   3
   8   3  -2 8947.41 1013.59   2
  -8  -3   2 8077.99 630.547   0
  -8  -3   1 106.089 481.796   0
   8   3  -1 205.438 629.175   2
   8   3   0 403.019 655.632   2
  -8  -3   0 349.513 500.296   0
  -8  -3  -1 14169.8 943.121   0
   8   3   1 13194.1 969.566   2
  -8  -3  -2 132186. 2386.47   1
  -8  -3  -2 135013. 2615.03   0
  -8  -3  -3 104376. 2164.61   1
   8   3   3 109061. 1826.19   6
  -8  -3  -3 101118. 2391.54   0
  -8  -3  -4 42547.3 1465.20   1
   8   3   4 46182.8 1383.66   6
   8   3   5 13420.2 946.753   6
  -8  -3  -5 12861.7 967.019   1
   8   3   6 4249.51 746.394   6
  -8  -3  -6 3287.23 738.153   1
   8   3   7 7104.51 962.840   6
  -8  -3  -7 6091.75 949.825   1
   8   3   8 5817.60 977.522   6
  -8  -3  -8 7052.15 1083.75   1
   8   3   9 29079.3 1803.28   6
  -8  -3  -9 29926.4 1806.75   1
   8   3  10 10412.2 1297.45   6
  -8  -3 -10 8667.02 1441.35   1
   8   4  -6 30801.7 1850.99   2
   8   4  -6 33679.6 2048.64   3
   8   4  -5 50757.9 2202.43   2
   8   4  -5 47546.5 2228.06   3
   8   4  -4 907.908 800.982   2
   8   4  -4 1125.53 914.550   3
   8   4  -3 17880.0 1351.19   2
   8   4  -3 17532.0 1365.11   3
   8   4  -2 52539.4 1916.37   2
   8   4  -2 54158.9 2057.73   3
   8   4  -1 62372.9 1945.19   2
  -8  -4   1 64488.3 1427.31   0
   8   4  -1 62548.0 2091.66   3
  -8  -4   0 61876.8 1522.11   0
   8   4   0 59584.8 1839.28   2
   8   4   1 84553.1 2093.57   2
  -8  -4  -1 81739.0 1862.76   0
   8   4   2 52759.1 1667.44   2
  -8  -4  -2 47602.2 1556.84   0
  -8  -4  -3 1807.26 572.715   1
  -8  -4  -4 5892.99 788.320   1
   8   4   4 6640.83 639.920   6
   8   4   5 3502.52 600.647   6
  -8  -4  -5 3141.48 708.744   1
   8   4   6 39933.8 1532.16   6
  -8  -4  -6 40211.8 1666.39   1
   8   4   7 122542. 2758.95   6
  -8  -4  -7 117030. 2782.10   1
   8   4   8 34258.7 1685.35   6
  -8  -4  -8 35871.2 1798.53   1
   8   4   9 5979.33 1028.24   6
  -8  -4  -9 4847.36 1110.16   1
   8   4  10 6710.77 1173.61   6
  -8  -4 -10 8052.97 1327.06   1
   8   5  -6 1772.42 1097.57   2
   8   5  -5 20562.5 1589.76   2
   8   5  -5 20691.7 1708.59   3
   8   5  -4 60481.1 2286.68   2
   8   5  -4 58410.7 2368.65   3
   8   5  -3 27479.3 1577.35   2
   8   5  -3 29935.9 1710.63   3
   8   5  -2 47441.4 1878.13   2
   8   5  -2 49919.8 2045.22   3
   8   5  -1 41310.8 1651.67   2
   8   5  -1 42190.2 1798.38   3
  -8  -5   0 1463.77 463.457   0
   8   5   0 1398.05 623.412   2
   8   5   0 1486.51 713.873   3
   8   5   1 19033.0 1103.71   2
  -8  -5  -1 17994.0 929.163   0
   8   5   1 19288.3 1212.69   3
   8   5   2 49713.5 1596.98   2
  -8  -5  -3 26476.4 1301.96   1
  -8  -5  -4 56229.3 1850.76   1
  -8  -5  -5 84791.8 2308.22   1
   8   5   6 25689.1 1272.98   6
  -8  -5  -6 25005.8 1405.57   1
   8   5   7 2088.95 725.939   6
  -8  -5  -7 712.378 775.642   1
   8   5   8 549.493 728.857   6
  -8  -5  -8 40.2492 841.007   1
   8   5   9 1084.60 794.115   6
  -8  -5  -9 1234.27 937.055   1
   8   5  10 17926.2 1504.36   6
  -8  -5 -10 16513.8 1636.71   1
   8   6  -5 13370.8 1472.40   2
   8   6  -4 7643.46 1200.77   2
   8   6  -4 6241.93 1291.59   3
   8   6  -3 911.722 841.374   2
   8   6  -3 295.796 819.651   3
   8   6  -2 13767.3 1180.44   2
   8   6  -2 14534.7 1361.11   3
   8   6  -1 58332.7 1987.38   2
   8   6  -1 62976.2 2227.04   3
   8   6   0 95476.0 2337.11   2
   8   6   0 91129.6 2473.01   5
   8   6   0 92876.9 2576.89   3
   8   6   1 49746.9 1656.48   2
   8   6   1 46001.2 1857.29   5
  -8  -6  -1 45865.2 1316.17   0
   8   6   1 47672.5 1820.88   3
   8   6   2 9845.03 832.689   2
   8   6   2 11373.2 1072.15   5
   8   6   2 9494.47 923.117   3
  -8  -6  -3 21525.9 1309.23   1
   8   6   3 24889.7 1171.64   2
   8   6   3 25344.4 1525.00   5
  -8  -6  -4 7672.76 998.260   1
  -8  -6  -5 6620.07 976.133   1
  -8  -6  -6 24366.0 1487.81   1
  -8  -6  -7 22928.4 1532.85   1
  -8  -6  -8 30315.0 1730.40   1
   8   6   9 57628.2 2228.18   6
  -8  -6  -9 56986.1 2367.17   1
   8   6  10 18617.5 1573.75   6
  -8  -6 -10 20722.1 1762.06   1
   8   7  -4 12122.0 1409.23   2
   8   7  -3 48879.9 2143.50   2
   8   7  -3 49390.2 2319.27   3
   8   7  -2 67648.5 2319.51   2
   8   7  -2 72093.6 2248.92   5
   8   7  -2 66919.4 2584.26   3
   8   7  -1 12006.2 1103.09   2
   8   7  -1 13478.3 1160.46   5
   8   7  -1 12901.4 1299.80   3
   8   7   0 11127.6 1030.51   2
   8   7   0 11452.9 1099.02   5
   8   7   0 12419.2 1233.52   3
   8   7   1 5992.18 809.577   2
   8   7   1 6606.95 1016.48   5
   8   7   1 7183.02 1004.69   3
   8   7   2 20780.2 1102.75   2
   8   7   2 21833.2 1443.59   5
   8   7   2 21940.2 1315.50   3
   8   7   3 66609.0 1732.82   2
   8   7   3 62563.2 2274.23   5
   8   7   3 62185.9 1928.32   3
  -8  -7  -4 74088.7 2322.00   1
   8   7   4 72622.3 2462.14   5
  -8  -7  -5 42570.0 1841.38   1
   8   7   5 39756.8 1877.46   5
  -8  -7  -6 15910.5 1361.03   1
   8   7   6 17474.8 1368.76   5
  -8  -7  -7 19468.9 1473.57   1
  -8  -7  -8 4327.87 990.379   1
  -8  -7  -9 3292.21 1101.46   1
  -8  -7 -10 19215.7 1691.99   1
   8   8  -3 1316.37 936.469   2
   8   8  -2 4272.59 943.773   2
   8   8  -2 3909.99 1142.66   3
   8   8  -1 10683.2 1135.73   2
   8   8  -1 8978.40 1121.35   5
   8   8  -1 9637.28 1346.08   3
   8   8   0 14939.1 1166.33   2
   8   8   0 17034.5 1344.58   5
   8   8   0 15784.6 1353.70   3
   8   8   1 34574.6 1498.01   2
   8   8   1 35196.2 1763.40   3
   8   8   2 95986.4 2838.76   5
   8   8   2 92676.0 2577.38   3
   8   8   3 67401.6 2412.22   5
   8   8   3 67198.4 2121.35   3
   8   8   4-298.891 775.525   5
  -8  -8  -4 458.228 788.111   1
   8   8   4 106.109 613.098   3
   8   8   5 294.202 921.179   5
  -8  -8  -5 52.1450 728.772   1
   8   8   6-63.1237 845.099   5
  -8  -8  -6 210.151 775.457   1
  -8  -8  -7 39649.3 1979.07   1
   8   8   7 43813.7 2141.55   5
   8   8   8 58424.0 2437.35   5
  -8  -8  -8 52890.9 2320.61   1
  -8  -8  -9 16769.0 1609.69   1
   8   9  -1 23551.3 1647.77   5
   8   9  -1 23652.4 1804.46   3
   8   9   0 23051.6 1587.77   5
   8   9   0 26037.0 1780.75   3
   8   9   1 4366.82 1014.78   5
   8   9   1 4196.96 1020.45   3
   8   9   2 4824.23 1038.92   5
   8   9   2 3824.30 911.495   3
   8   9   3 12902.5 1382.87   5
   8   9   3 12737.7 1153.86   3
  -8  -9  -4 24677.7 1614.11   1
   8   9   4 27935.6 1814.80   5
   8   9   4 29286.4 1489.78   3
  -8  -9  -5 34727.1 1830.15   1
   8   9   5 40091.8 2103.84   5
  -8  -9  -6 36366.0 1997.69   1
   8   9   6 38234.2 2076.24   5
  -8  -9  -7 18440.5 1584.11   1
   8   9   7 16776.2 1529.19   5
   8   9   8 2497.49 1060.75   5
  -8  -9  -8 3073.15 1050.24   1
   8   9   9-56.8117 901.163   5
   8  10   0 32609.9 1946.34   5
   8  10   1 44669.9 2248.08   5
   8  10   1 43317.8 2231.65   3
   8  10   2 26111.6 1785.65   5
   8  10   2 24662.1 1672.64   3
   8  10   3 31067.6 1905.38   5
   8  10   3 29316.1 1711.96   3
  -8 -10  -4 16662.4 1434.22   1
   8  10   4 20762.1 1750.33   5
   8  10   5 729.950 1044.12   5
  -8 -10  -5 242.395 900.222   1
  -8 -10  -6 10993.4 1355.93   1
   8  10   6 12525.1 1382.13   5
   8  10   7 6059.70 1239.68   5
  -8 -10  -7 3913.13 1072.97   1
   8  11   2-319.861 919.689   3
  -9   4   7 106.926 948.519   0
  -9   4   6 5585.26 1104.76   0
  -9   4   5 51314.0 2298.51   0
  -9   4   4 47592.9 2200.40   0
  -9   4   3 11561.9 1378.24   0
  -9   4   2 5107.64 1153.53   0
  -9   4   1 6415.53 1313.41   0
   9  -3  -7 28082.9 1952.78   2
  -9   3   7 22339.7 1511.55   0
  -9   3   6 24947.1 1595.52   0
  -9   3   5 3659.09 965.791   0
  -9   3   4 619.770 920.806   0
  -9   3   3 800.227 915.474   0
  -9   3   2 29774.5 1818.68   0
  -9   3   1 72142.8 2650.07   0
  -9   3   0 39951.5 2065.30   0
  -9   3  -1 15004.6 1548.28   0
   9  -2  -7-194.658 963.560   2
   9  -2  -6 10427.8 1268.38   2
  -9   2   6 8680.64 1081.16   0
   9  -2  -5 18090.5 1542.46   2
  -9   2   5 16788.9 1288.05   0
  -9   2   4 28387.9 1617.32   0
  -9   2   3 100375. 2771.08   0
  -9   2   2 46982.0 2008.78   0
  -9   2   1 2676.77 994.929   0
  -9   2   0 290.627 931.053   0
  -9   2  -1 5458.51 1184.50   0
  -9   2  -2 10254.0 1307.82   0
  -9   2  -3 43650.6 2281.95   0
   9  -1  -7 18021.0 1588.64   2
   9  -1  -6 11332.9 1306.58   2
   9  -1  -5 40389.3 2010.24   2
  -9   1   5 33862.8 1568.43   0
  -9   1   4 18695.0 1276.12   0
   9  -1  -4 21694.0 1524.52   2
  -9   1   3 87.6574 767.712   0
  -9   1   2 7925.18 1024.47   0
  -9   1   1 28672.6 1574.94   0
  -9   1   0 53511.7 2142.64   0
  -9   1  -1 61341.4 2300.06   0
  -9   1  -2 56698.4 2292.57   0
  -9   1  -3 10026.3 1322.62   0
  -9   1  -4 845.746 1037.83   0
   9   0  -7 5736.96 1128.28   2
   9   0  -6 615.371 858.300   2
   9   0  -5 20122.1 1504.69   2
  -9   0   5 20400.2 1189.87   0
  -9   0   4 82562.4 2151.50   0
   9   0  -4 79399.2 2549.92   2
  -9   0   3 80364.6 2223.94   0
   9   0  -3 79715.2 2538.52   2
  -9   0   2 7835.01 964.358   0
   9   0  -2 9201.89 1122.46   2
  -9   0   1 14476.8 1204.26   0
  -9   0   0 34171.5 1675.29   0
  -9   0  -1-43.4612 736.591   0
  -9   0  -2 13843.6 1322.89   0
  -9   0  -3 18208.9 1403.48   0
  -9   0  -4 27971.1 1710.91   0
  -9   0  -5 62287.8 2563.61   0
   9   0   6 50897.0 2148.92   6
   9   0   7 3267.89 966.903   6
   9   1  -7 28393.8 1970.58   2
   9   1  -6 65988.9 2531.22   2
   9   1  -5 40231.1 1934.07   2
   9   1  -4 9558.23 1197.49   2
  -9  -1   4 10423.2 883.499   0
  -9  -1   3 7786.25 884.165   0
   9   1  -3 6591.32 972.691   2
   9   1  -2 1489.11 840.580   2
  -9  -1   2 876.920 663.866   0
   9   1  -1 26998.2 1480.19   2
  -9  -1   1 27251.2 1391.05   0
  -9  -1   0 62379.5 2013.71   0
  -9  -1  -1 85687.8 1738.22   1
  -9  -1  -1 83800.0 2395.17   0
  -9  -1  -2 70726.9 2284.55   0
  -9  -1  -3 20038.6 1447.65   0
  -9  -1  -4 10787.6 1250.44   0
  -9  -1  -5 690.809 927.556   0
   9   1   6 19836.7 1393.92   6
  -9  -1  -6 19722.8 1690.54   0
   9   1   7 26684.4 1664.94   6
   9   1   8 16967.7 1518.66   6
   9   2  -6 1801.09 1003.68   2
   9   2  -5 4826.18 1082.99   2
   9   2  -4 3039.95 943.684   2
  -9  -2   3 40962.2 1382.71   0
   9   2  -3 37549.0 1830.81   2
   9   2  -2 90262.4 2565.44   2
  -9  -2   2 90852.6 2053.63   0
   9   2  -1 78404.7 2353.22   2
  -9  -2   1 86146.9 2113.91   0
   9   2   0 21453.5 1359.95   2
  -9  -2   0 19292.0 1189.62   0
  -9  -2  -1 7357.65 740.918   1
  -9  -2  -1 5787.23 866.545   0
  -9  -2  -2 2192.26 806.412   0
  -9  -2  -2 2694.47 609.708   1
  -9  -2  -3 27180.3 1177.89   1
  -9  -2  -3 23246.6 1465.26   0
  -9  -2  -4 80233.6 2504.88   0
  -9  -2  -4 82592.8 1959.81   1
  -9  -2  -5 63122.5 2333.25   0
   9   2   6 26667.7 1465.71   6
  -9  -2  -6 23153.4 1652.18   0
   9   2   7 13823.3 1250.49   6
  -9  -2  -7 14005.7 1408.20   0
   9   2   8 15296.0 1403.90   6
   9   3  -6 12614.7 1388.05   2
   9   3  -5 12214.6 1326.98   2
   9   3  -4 34131.2 1830.92   2
   9   3  -3 26128.0 1554.23   2
   9   3  -2 8785.32 1047.97   2
   9   3  -1 5202.00 899.386   2
  -9  -3   1 5352.89 739.104   0
   9   3   0 28785.9 1464.52   2
  -9  -3   0 29816.8 1319.19   0
  -9  -3  -1 48209.9 1648.77   0
  -9  -3  -2 92211.7 2111.34   1
  -9  -3  -2 87157.5 2269.84   0
  -9  -3  -3 97268.4 2194.02   1
  -9  -3  -3 93013.2 2455.28   0
  -9  -3  -4 10834.2 903.566   1
  -9  -3  -4 9159.10 1117.54   0
  -9  -3  -5 8209.62 1157.31   0
  -9  -3  -5 8371.14 903.110   1
   9   3   6 511.359 634.849   6
  -9  -3  -6 505.259 636.840   1
  -9  -3  -6 432.872 804.953   0
  -9  -3  -7-79.2590 998.247   0
   9   3   7 527.514 723.239   6
  -9  -3  -7 862.267 779.698   1
   9   3   8 25364.6 1613.02   6
  -9  -3  -8 24186.3 1808.29   0
   9   3   9 26839.8 1753.46   6
   9   4  -5 1587.06 1016.01   2
   9   4  -5 943.981 1019.96   3
   9   4  -4 6227.79 1096.44   2
   9   4  -4 4571.41 1130.31   3
   9   4  -3 42034.5 1977.34   2
   9   4  -3 40541.1 1968.05   3
   9   4  -2 49443.8 1989.78   2
   9   4  -1 61162.5 2098.42   2
   9   4   0 65564.6 2069.19   2
  -9  -4   0 66065.1 1743.91   0
  -9  -4  -1 40319.3 1458.08   0
   9   4   1 41762.1 1694.74   2
  -9  -4  -2 101.089 569.932   0
  -9  -4  -2 136.166 557.891   1
  -9  -4  -3 33527.4 1436.01   1
  -9  -4  -3 32427.1 1492.75   0
  -9  -4  -4 21531.0 1216.15   1
  -9  -4  -4 20292.5 1308.26   0
  -9  -4  -5 30247.8 1453.58   1
  -9  -4  -6 31646.3 1547.95   1
   9   4   7 12123.3 1101.72   6
  -9  -4  -7 11582.2 1148.43   1
   9   4   8 10732.6 1165.52   6
  -9  -4  -8 10497.3 1251.85   1
   9   4   9 6750.73 1078.39   6
  -9  -4  -9 6830.15 1213.84   1
   9   5  -5 54220.3 2465.97   2
   9   5  -4 33301.3 1880.63   2
   9   5  -4 31707.8 1904.04   3
   9   5  -3 15933.4 1335.40   2
   9   5  -3 15790.9 1452.62   3
   9   5  -2 24987.3 1567.26   2
   9   5  -2 22627.3 1529.29   3
   9   5  -1 1932.33 747.193   2
   9   5  -1 1605.91 900.405   3
   9   5   0 17246.4 1246.96   2
   9   5   1 62202.9 1969.20   2
  -9  -5  -1 60388.0 1681.43   0
   9   5   2 54774.8 1838.75   2
  -9  -5  -2 48406.2 1620.40   0
  -9  -5  -3 23298.7 1292.97   1
  -9  -5  -3 21143.8 1217.21   0
  -9  -5  -4 43401.8 1736.17   1
  -9  -5  -5 39370.5 1692.71   1
  -9  -5  -6 2418.37 775.337   1
   9   5   7 12853.5 1097.85   6
  -9  -5  -7 10274.8 1166.56   1
   9   5   8 7058.02 1005.94   6
  -9  -5  -8 6773.02 1156.61   1
   9   5   9 3705.95 941.277   6
  -9  -5  -9 4001.22 1191.32   1
   9   5  10 32978.0 1955.70   6
  -9  -5 -10 29575.7 2062.68   1
   9   6  -4 605.182 1014.43   2
   9   6  -3 2102.27 845.735   2
   9   6  -3 1668.79 930.971   3
   9   6  -2 16472.9 1349.57   2
   9   6  -2 16520.5 1539.48   3
   9   6  -1 76781.4 2382.97   2
   9   6  -1 76424.7 2611.06   3
   9   6   0 60103.8 2027.37   2
   9   6   0 59630.1 2200.78   3
   9   6   1 16459.7 1170.05   2
   9   6   1 16946.8 1321.40   3
   9   6   2 2273.12 683.247   2
  -9  -6  -2 2540.56 631.790   0
  -9  -6  -3 2282.27 794.646   1
  -9  -6  -4 123.868 677.712   1
  -9  -6  -5 25377.7 1492.99   1
  -9  -6  -6 27942.8 1638.60   1
  -9  -6  -7 19358.1 1451.66   1
  -9  -6  -8 35521.3 1976.14   1
   9   6   9 29232.5 1699.98   6
  -9  -6  -9 24228.1 1838.14   1
   9   6  10 5529.30 1124.87   6
   9   7  -3 30999.7 1901.60   2
   9   7  -2 22194.8 1583.09   2
   9   7  -2 21862.9 1736.15   3
   9   7  -1 836.366 773.358   2
   9   7  -1 387.494 871.201   3
   9   7   0 2096.61 760.492   2
   9   7   0 2625.89 963.659   3
   9   7   1 8580.12 973.315   2
   9   7   1 9210.60 1087.12   3
   9   7   2 11499.8 980.469   2
   9   7   2 11058.8 1104.71   3
  -9  -7  -3 42905.4 1861.11   1
   9   7   3 47264.6 1650.77   2
  -9  -7  -4 58942.9 2181.76   1
  -9  -7  -5 11503.9 1188.72   1
  -9  -7  -6 12584.5 1277.67   1
  -9  -7  -7 11058.7 1337.30   1
  -9  -7  -8 2913.43 1114.57   1
  -9  -7  -9 27519.1 1978.71   1
   9   8  -3 692.419 885.141   2
   9   8  -2 7702.92 1227.66   2
   9   8  -1 14852.5 1318.31   2
   9   8  -1 17888.7 1438.67   5
   9   8  -1 15247.4 1544.65   3
   9   8   0 23492.2 1445.34   2
   9   8   0 22569.2 1571.63   5
   9   8   0 21162.2 1680.21   3
   9   8   1 67736.5 2509.14   5
   9   8   1 66110.9 2437.70   3
   9   8   2 57707.8 2367.00   5
   9   8   2 58569.1 2194.20   3
   9   8   3 2905.23 1059.37   5
   9   8   3 2720.78 810.881   3
   9   8   4 2224.93 1028.82   5
  -9  -8  -4 1804.29 878.757   1
   9   8   5 8310.27 1252.43   5
  -9  -8  -5 6928.81 1047.71   1
  -9  -8  -6 20760.5 1574.97   1
  -9  -8  -7 39992.3 2117.96   1
  -9  -8  -8 36514.8 2149.71   1
   9   9   0 14096.4 1421.30   5
   9   9   0 11613.6 1464.27   3
   9   9   1 541.373 947.866   5
   9   9   1 956.648 919.640   3
   9   9   2 9664.43 1229.54   5
   9   9   2 9757.90 1187.03   3
   9   9   3 18697.3 1564.71   5
   9   9   3 18292.6 1411.38   3
  -9  -9  -4 37909.2 2012.28   1
   9   9   4 44353.9 2283.05   5
  -9  -9  -5 56345.6 2372.02   1
   9   9   5 57903.4 2553.27   5
  -9  -9  -6 36097.9 2045.78   1
   9   9   6 41317.0 2164.60   5
   9   9   7 488.389 975.750   5
  -9  -9  -7 803.894 1067.12   1
   9  10   0 23300.4 1816.87   5
   9  10   1 44970.4 2326.50   5
   9  10   1 42774.8 2304.59   3
   9  10   2 17967.6 1687.53   5
   9  10   2 16476.8 1535.09   3
   9  10   3 8310.88 1370.93   5
 -10   3   6 2688.26 964.161   0
 -10   3   5 112.355 1007.37   0
 -10   3   4 1193.92 1080.37   0
 -10   3   3 7484.96 1203.89   0
 -10   2   5 14722.1 1335.79   0
 -10   2   4 21633.5 1588.43   0
 -10   2   3 40062.2 2029.38   0
 -10   2   2 12684.6 1445.48   0
 -10   2   1 2365.74 1136.55   0
 -10   2   0 18910.7 1580.41   0
 -10   1   5 4069.69 946.185   0
  10  -1  -5 4241.93 1079.60   2
 -10   1   4 418.493 807.978   0
  10  -1  -4-224.224 977.521   2
 -10   1   3 9694.50 1158.54   0
 -10   1   2 48716.6 2119.57   0
 -10   1   1 36916.1 1886.82   0
 -10   1   0 41035.8 2011.69   0
 -10   1  -1 38586.0 2109.48   0
 -10   1  -2 6069.52 1254.94   0
  10   0  -5 40692.3 2124.38   2
  10   0  -4 51408.5 2328.88   2
 -10   0   4 46530.4 1835.17   0
 -10   0   3 12624.3 1194.71   0
  10   0  -3 11124.6 1297.74   2
 -10   0   2 10893.0 1160.55   0
 -10   0   1 19021.0 1424.69   0
 -10   0   0 674.718 822.306   0
 -10   0  -1 9945.05 1244.71   0
 -10   0  -2 31976.8 1835.74   0
 -10   0  -3 35548.2 2060.09   0
 -10   0  -4 14150.9 1595.19   0
  10   1  -5 4313.47 1017.24   2
  10   1  -4 518.831 990.983   2
  10   1  -3 4838.27 1092.16   2
 -10  -1   3 4433.68 862.724   0
 -10  -1   2 9253.08 1027.54   0
  10   1  -2 9165.93 1163.05   2
 -10  -1   1 12142.7 1138.17   0
 -10  -1   0 46995.1 1948.62   0
 -10  -1  -1 42475.3 1891.63   0
 -10  -1  -2 12728.2 1337.32   0
 -10  -1  -3 16199.7 1508.41   0
 -10  -1  -4 5486.16 1199.16   0
 -10  -1  -5 10426.2 1432.64   0
  10   2  -5 10398.3 1407.47   2
  10   2  -4 18456.4 1509.63   2
  10   2  -3 35911.2 1930.07   2
 -10  -2   2 66858.9 1951.51   0
  10   2  -2 62670.9 2331.58   2
  10   2  -1 40711.5 1906.32   2
 -10  -2   1 40188.9 1651.21   0
 -10  -2   0-27.4871 681.631   0
 -10  -2  -1 3863.72 849.463   0
 -10  -2  -2 3756.06 886.980   0
 -10  -2  -3 28631.1 1661.60   0
 -10  -2  -4 66737.5 2483.72   0
 -10  -2  -5 47132.2 2265.95   0
  10   3  -4 22861.3 1703.91   2
  10   3  -3 3469.04 920.579   2
  10   3  -2 5518.32 1035.93   2
  10   3  -1 15821.4 1270.15   2
 -10  -3   1 14334.1 1053.46   0
  10   3   0 32592.0 1699.38   2
 -10  -3   0 30462.5 1434.71   0
 -10  -3  -1 45848.2 1602.01   1
 -10  -3  -1 47651.1 1800.61   0
 -10  -3  -2 75666.9 2291.42   0
 -10  -3  -2 77114.8 2045.55   1
 -10  -3  -3 43362.7 1606.57   1
 -10  -3  -3 40141.7 1817.81   0
 -10  -3  -4 1110.40 628.102   1
 -10  -3  -4 1046.76 884.878   0
 -10  -3  -5 1754.37 954.631   0
 -10  -3  -6 13457.4 1382.40   0
  10   4  -4 22513.4 1658.08   2
  10   4  -3 40171.6 1996.48   2
  10   4  -2 29740.8 1685.98   2
  10   4  -1 31102.5 1717.48   2
  10   4   0 26681.9 1563.41   2
 -10  -4   0 30711.0 1347.82   0
  10   4   1 5501.03 986.489   2
 -10  -4  -1 7091.99 875.816   0
 -10  -4  -2 21523.6 1250.30   1
 -10  -4  -2 20396.9 1277.00   0
 -10  -4  -3 38346.3 1600.96   1
 -10  -4  -3 38477.2 1725.21   0
 -10  -4  -4 18479.7 1219.67   1
 -10  -4  -4 17110.6 1342.78   0
 -10  -4  -5 25197.3 1652.55   0
 -10  -4  -5 25345.9 1416.78   1
 -10  -4  -6 36381.7 1934.56   0
 -10  -4  -6 37281.0 1734.52   1
 -10  -4  -7 21045.9 1658.71   0
 -10  -4  -7 23698.7 1514.06   1
  10   5  -4 17697.2 1592.31   2
  10   5  -3 247.546 929.655   2
  10   5  -3 380.813 945.447   3
  10   5  -2 1439.87 856.639   2
  10   5  -1 4094.08 962.658   2
  10   5   0 17917.0 1364.78   2
 -10  -5  -1 59056.9 1812.19   0
  10   5   1 60623.8 2130.57   2
 -10  -5  -2 62968.4 2056.76   1
 -10  -5  -2 62532.8 1942.82   0
 -10  -5  -3 16746.7 1204.15   1
 -10  -5  -3 16771.1 1222.41   0
 -10  -5  -4 12746.6 1127.71   1
 -10  -5  -4 11625.9 1103.68   0
 -10  -5  -5 7348.58 986.034   1
 -10  -5  -5 5914.23 1011.29   0
 -10  -5  -6 12441.4 1216.85   1
 -10  -5  -7 30813.3 1744.44   1
 -10  -5  -8 8483.57 1265.19   1
 -10  -5  -9 7810.43 1318.18   1
  10   6  -3 19312.5 1593.65   2
  10   6  -2 30891.9 1804.89   2
  10   6  -2 32698.3 2000.71   3
  10   6  -1 46764.2 2043.65   2
  10   6  -1 51038.8 2332.11   3
  10   6   0 15734.1 1272.47   2
  10   6   1 1768.29 774.222   2
  10   6   2 905.537 698.209   2
 -10  -6  -3 204.054 642.418   0
 -10  -6  -3 31.1096 723.189   1
 -10  -6  -4 33693.0 1690.93   1
 -10  -6  -5 61072.3 2251.66   1
 -10  -6  -6 26793.9 1639.50   1
 -10  -6  -7 28690.7 1785.94   1
 -10  -6  -8 10060.3 1376.30   1
  10   7  -2 209.323 921.657   2
  10   7  -1 4803.60 1030.79   2
  10   7  -1 5276.07 1159.70   3
  10   7   0 8731.50 1123.21   2
  10   7   0 9809.13 1349.74   3
  10   7   1 5572.82 897.533   2
  10   7   2 27601.1 1496.92   2
 -10  -7  -3 52908.1 2133.07   1
 -10  -7  -4 29356.7 1734.10   1
 -10  -7  -5 2312.10 954.223   1
 -10  -7  -6-113.604 963.229   1
 -10  -7  -7 69.9313 978.473   1
 -10  -7  -8 14588.6 1614.07   1
  10   8  -2 25914.3 1805.06   2
  10   8  -1 11955.1 1306.66   2
  10   8   0 12707.6 1521.55   3
  10   8   1 27887.3 1775.54   3
  10   8   2 6627.80 1126.82   3
 -10  -8  -3 858.353 877.712   1
 -10  -8  -4 11661.0 1268.24   1
 -10  -8  -5 19633.5 1596.24   1
 -10  -8  -6 22302.9 1688.19   1
  10   9   1 7305.71 1280.76   5
  10   9   1 6116.79 1275.20   3
  10   9   2 40999.5 2222.07   5
  10   9   2 38669.0 2052.26   3
  10   9   3 38820.7 2193.06   5
  10   9   3 36395.9 1909.23   3
 -11   1   4 12665.2 1343.39   0
 -11   1   3 37154.9 2019.27   0
 -11   1   2 29618.7 1903.37   0
 -11   1   1 12630.0 1469.12   0
 -11   0   3 10102.0 1220.76   0
 -11   0   2 249.812 890.872   0
 -11   0   1 726.563 927.110   0
 -11   0   0 1255.48 942.597   0
 -11   0  -1 33230.0 2033.41   0
 -11  -1   2 4157.80 935.852   0
 -11  -1   1 18524.7 1447.67   0
 -11  -1   0 49771.9 2183.37   0
 -11  -1  -1 16575.1 1513.64   0
 -11  -1  -2 6640.64 1170.88   0
 -11  -1  -3 1584.00 1153.77   0
  11   2  -3 28380.9 1860.57   2
  11   2  -2 13739.1 1415.77   2
 -11  -2   1 267.816 742.434   0
 -11  -2   0 3502.61 947.047   0
 -11  -2  -1 6613.57 1066.81   0
 -11  -2  -2 9928.46 1231.93   0
 -11  -2  -3 38267.7 2004.10   0
 -11  -2  -4 51166.8 2410.73   0
  11   3  -3 581.879 862.122   2
  11   3  -2 21431.7 1609.36   2
  11   3  -1 58838.7 2414.97   2
 -11  -3   0 26727.4 1487.93   0
 -11  -3  -1 15682.4 1269.14   0
 -11  -3  -2 31892.1 1736.29   0
 -11  -3  -3 1022.42 863.844   0
 -11  -3  -4 7067.92 1146.03   0
  11   4  -2 14298.5 1411.43   2
  11   4  -1 7072.26 1157.87   2
  11   4   0 3427.19 961.264   2
 -11  -4  -1 1867.09 692.414   1
 -11  -4  -1 2161.78 759.619   0
 -11  -4  -2 24347.2 1398.84   1
 -11  -4  -2 23879.1 1459.50   0
 -11  -4  -3 34306.8 1620.39   1
 -11  -4  -3 35436.0 1778.43   0
 -11  -4  -4 19509.3 1485.88   0
 -11  -4  -5 16951.4 1570.24   0
  11   5  -2 1894.54 992.795   2
  11   5  -1 10431.5 1305.22   2
  11   5   0 49638.4 2182.21   2
  11   5   1 44606.7 2034.92   2
 -11  -5  -2 5940.96 927.531   0
 -11  -5  -2 6476.13 918.795   1
 -11  -5  -3 2519.71 799.677   1
 -11  -5  -3 2153.89 802.015   0
 -11  -5  -4 7074.98 1047.95   0
 -11  -5  -4 8293.16 1036.16   1
 -11  -5  -5 626.417 744.125   1
 -11  -5  -5 304.535 873.268   0
 -11  -5  -6 8979.31 1349.46   0
 -11  -5  -6 9435.60 1193.01   1
  11   6  -1 16733.9 1518.83   2
  11   6   0 1354.95 809.407   2
  11   6   1 645.133 764.929   2
 -11  -6  -2 419.472 767.281   1
 -11  -6  -3 10530.4 1149.68   1
 -11  -6  -4 36571.3 1873.87   1
 -11  -6  -4 35704.8 1764.55   0
 -11  -6  -5 49855.2 2146.86   1
 -11  -6  -5 46545.6 2097.39   0
 -11  -6  -6 18316.0 1568.80   0
 -11  -6  -6 19952.7 1513.10   1
 -11  -6  -7 483.719 877.601   1
  11   7  -1 20082.4 1658.93   2
  11   7   0 25307.8 1677.81   2
  11   7   1 10356.6 1196.08   2
 -11  -7  -3 28458.5 1736.89   1
 -11  -7  -4 15800.0 1431.40   1
 -11  -7  -5-145.847 804.953   0
 -11  -7  -5 41.8579 927.229   1
 -11  -7  -6 2829.32 1023.72   1
 -12  -1   1 38842.4 2031.61   0
 -12  -1   0 13308.9 1419.38   0
 -12  -2   0 19455.9 1543.25   0
 -12  -2  -1 19539.0 1622.84   0
 -12  -3  -1 5751.89 1085.29   0
 -12  -3  -2 483.940 951.708   0
 -12  -4  -2 33476.9 1821.49   0
 -12  -4  -3 18056.7 1490.08   0
 -12  -5  -1 12420.2 1166.09   1
 -12  -5  -4 552.644 818.856   0
 -12  -6  -2 6588.93 1028.81   1
 -12  -6  -3 13779.6 1325.63   1
 -12  -6  -4 21732.4 1553.97   1
 -12  -6  -5 16522.9 1436.21   1
;
_shelx_hkl_checksum              14251
loop_
_space_group_symop_operation_xyz
'x, y, z'
'-x, -y, -z'
loop_
_atom_site_label
_atom_site_type_symbol
_atom_site_fract_x
_atom_site_fract_y
_atom_site_fract_z
_atom_site_U_iso_or_equiv
_atom_site_adp_type
_atom_site_occupancy
_atom_site_site_symmetry_order
_atom_site_calc_flag
_atom_site_refinement_flags_posn
_atom_site_refinement_flags_adp
Sn1 Sn 0.42391(2) 0.77499(2) 0.43289(2) 0.01608(6) Uani 1 1 d . .
Si1 Si 0.44280(7) 0.55261(7) 0.24760(6) 0.01842(13) Uani 1 1 d . .
O1 O 0.37732(16) 0.62687(18) 0.36249(15) 0.0188(3) Uani 1 1 d . .
C1 C 0.5934(3) 0.3477(3) 0.3410(2) 0.0269(5) Uani 1 1 d . .
H1A H 0.6929 0.3662 0.3231 0.032 Uiso 1 1 calc R U
H1B H 0.5872 0.2743 0.2999 0.032 Uiso 1 1 calc R U
C2 C 0.5279(3) 0.6981(3) 0.0966(2) 0.0336(6) Uani 1 1 d . .
H2A H 0.4564 0.8089 0.0565 0.050 Uiso 1 1 calc R U
H2B H 0.5508 0.6599 0.0235 0.050 Uiso 1 1 calc R U
H2C H 0.6203 0.7006 0.1320 0.050 Uiso 1 1 calc R U
C3 C 0.2809(3) 0.5219(4) 0.1767(3) 0.0410(7) Uani 1 1 d . .
H3A H 0.1985 0.6250 0.1390 0.061 Uiso 1 1 calc R U
H3B H 0.2463 0.4359 0.2530 0.061 Uiso 1 1 calc R U
H3C H 0.3140 0.4889 0.1014 0.061 Uiso 1 1 calc R U
C11 C 0.6401(2) 0.8062(3) 0.3558(2) 0.0201(5) Uani 1 1 d . .
C12 C 0.7733(3) 0.6723(3) 0.3933(2) 0.0256(5) Uani 1 1 d . .
H12A H 0.7706 0.5646 0.4566 0.031 Uiso 1 1 calc R U
C13 C 0.9103(3) 0.6972(3) 0.3372(2) 0.0307(6) Uani 1 1 d . .
H13A H 0.9986 0.6065 0.3622 0.037 Uiso 1 1 calc R U
C14 C 0.9155(3) 0.8579(3) 0.2437(3) 0.0328(6) Uani 1 1 d . .
H14A H 1.0075 0.8751 0.2068 0.039 Uiso 1 1 calc R U
C15 C 0.7845(3) 0.9913(3) 0.2060(3) 0.0306(6) Uani 1 1 d . .
H15A H 0.7878 1.0990 0.1433 0.037 Uiso 1 1 calc R U
C16 C 0.6476(3) 0.9659(3) 0.2610(2) 0.0245(5) Uani 1 1 d . .
H16A H 0.5593 1.0569 0.2342 0.029 Uiso 1 1 calc R U
C21 C 0.2466(2) 1.0061(3) 0.3245(2) 0.0186(4) Uani 1 1 d . .
C22 C 0.1526(3) 1.0843(3) 0.4002(2) 0.0235(5) Uani 1 1 d . .
H22A H 0.1705 1.0388 0.4995 0.028 Uiso 1 1 calc R U
C23 C 0.0327(3) 1.2289(3) 0.3302(3) 0.0283(5) Uani 1 1 d . .
H23A H -0.0291 1.2796 0.3827 0.034 Uiso 1 1 calc R U
C24 C 0.0045(3) 1.2980(3) 0.1835(3) 0.0288(5) Uani 1 1 d . .
H24A H -0.0768 1.3946 0.1369 0.035 Uiso 1 1 calc R U
C25 C 0.0970(3) 1.2240(3) 0.1059(2) 0.0275(5) Uani 1 1 d . .
H25A H 0.0790 1.2714 0.0065 0.033 Uiso 1 1 calc R U
C26 C 0.2165(3) 1.0794(3) 0.1752(2) 0.0232(5) Uani 1 1 d . .
H26A H 0.2780 1.0300 0.1217 0.028 Uiso 1 1 calc R U
loop_
_atom_site_aniso_label
_atom_site_aniso_U_11
_atom_site_aniso_U_22
_atom_site_aniso_U_33
_atom_site_aniso_U_23
_atom_site_aniso_U_13
_atom_site_aniso_U_12
Sn1 0.01573(9) 0.01270(8) 0.01646(8) -0.00422(6) 0.00039(6) -0.00311(6)
Si1 0.0189(3) 0.0188(3) 0.0146(3) -0.0065(2) 0.0004(2) -0.0031(2)
O1 0.0205(8) 0.0184(8) 0.0194(7) -0.0095(6) 0.0032(6) -0.0073(6)
C1 0.0283(13) 0.0245(12) 0.0175(11) -0.0074(10) 0.0017(9) 0.0030(10)
C2 0.0432(15) 0.0301(14) 0.0208(11) -0.0082(11) 0.0098(11) -0.0088(12)
C3 0.0315(15) 0.0607(19) 0.0469(16) -0.0385(15) 0.0001(12) -0.0123(14)
C11 0.0204(11) 0.0206(11) 0.0188(10) -0.0068(9) -0.0004(9) -0.0081(9)
C12 0.0218(12) 0.0241(12) 0.0253(12) -0.0057(10) 0.0019(9) -0.0078(10)
C13 0.0190(12) 0.0346(14) 0.0312(13) -0.0098(11) 0.0014(10) -0.0055(11)
C14 0.0280(14) 0.0483(16) 0.0278(13) -0.0149(12) 0.0099(11) -0.0242(13)
C15 0.0365(15) 0.0285(13) 0.0278(12) -0.0066(11) 0.0035(11) -0.0208(12)
C16 0.0285(13) 0.0211(12) 0.0237(11) -0.0079(10) -0.0017(10) -0.0094(10)
C21 0.0175(11) 0.0145(10) 0.0216(11) -0.0050(9) -0.0003(9) -0.0062(9)
C22 0.0221(12) 0.0218(12) 0.0236(11) -0.0082(10) 0.0004(9) -0.0050(10)
C23 0.0198(12) 0.0237(12) 0.0407(14) -0.0168(11) 0.0014(10) -0.0016(10)
C24 0.0188(12) 0.0173(12) 0.0396(14) -0.0030(11) -0.0067(10) -0.0042(10)
C25 0.0282(13) 0.0246(13) 0.0210(11) -0.0005(10) -0.0046(10) -0.0101(11)
C26 0.0244(12) 0.0206(12) 0.0224(11) -0.0074(10) 0.0017(9) -0.0073(10)
loop_
_atom_type_symbol
_atom_type_description
_atom_type_scat_dispersion_real
_atom_type_scat_dispersion_imag
_atom_type_scat_source
C C 0.0033 0.0016 'International Tables Vol C Tables 4.2.6.8 and 6.1.1.4'
H H 0.0000 0.0000 'International Tables Vol C Tables 4.2.6.8 and 6.1.1.4'
O O 0.0106 0.0060 'International Tables Vol C Tables 4.2.6.8 and 6.1.1.4'
Si Si 0.0817 0.0704 'International Tables Vol C Tables 4.2.6.8 and 6.1.1.4'
Sn Sn -0.6537 1.4246 'International Tables Vol C Tables 4.2.6.8 and 6.1.1.4'
loop_
_geom_angle_atom_site_label_1
_geom_angle_atom_site_label_2
_geom_angle_atom_site_label_3
_geom_angle
_geom_angle_site_symmetry_1
_geom_angle_site_symmetry_3
O1 Sn1 C1 103.71(8) . 2_666
O1 Sn1 C21 102.83(7) . .
C1 Sn1 C21 113.91(8) 2_666 .
O1 Sn1 C11 106.62(7) . .
C1 Sn1 C11 118.33(9) 2_666 .
C21 Sn1 C11 109.76(8) . .
O1 Si1 C3 107.76(10) . .
O1 Si1 C1 109.27(9) . .
C3 Si1 C1 109.81(13) . .
O1 Si1 C2 111.46(10) . .
C3 Si1 C2 109.98(12) . .
C1 Si1 C2 108.55(11) . .
Si1 O1 Sn1 137.52(8) . .
Si1 C1 Sn1 113.86(11) . 2_666
Si1 C1 H1A 108.8 . .
Sn1 C1 H1A 108.8 2_666 .
Si1 C1 H1B 108.8 . .
Sn1 C1 H1B 108.8 2_666 .
H1A C1 H1B 107.7 . .
Si1 C2 H2A 109.5 . .
Si1 C2 H2B 109.5 . .
H2A C2 H2B 109.5 . .
Si1 C2 H2C 109.5 . .
H2A C2 H2C 109.5 . .
H2B C2 H2C 109.5 . .
Si1 C3 H3A 109.5 . .
Si1 C3 H3B 109.5 . .
H3A C3 H3B 109.5 . .
Si1 C3 H3C 109.5 . .
H3A C3 H3C 109.5 . .
H3B C3 H3C 109.5 . .
C12 C11 C16 118.4(2) . .
C12 C11 Sn1 122.53(15) . .
C16 C11 Sn1 119.07(17) . .
C13 C12 C11 120.7(2) . .
C13 C12 H12A 119.6 . .
C11 C12 H12A 119.6 . .
C12 C13 C14 120.0(2) . .
C12 C13 H13A 120.0 . .
C14 C13 H13A 120.0 . .
C15 C14 C13 119.8(2) . .
C15 C14 H14A 120.1 . .
C13 C14 H14A 120.1 . .
C14 C15 C16 120.1(2) . .
C14 C15 H15A 120.0 . .
C16 C15 H15A 120.0 . .
C15 C16 C11 121.0(2) . .
C15 C16 H16A 119.5 . .
C11 C16 H16A 119.5 . .
C22 C21 C26 117.7(2) . .
C22 C21 Sn1 121.30(15) . .
C26 C21 Sn1 120.95(16) . .
C23 C22 C21 121.0(2) . .
C23 C22 H22A 119.5 . .
C21 C22 H22A 119.5 . .
C24 C23 C22 120.3(2) . .
C24 C23 H23A 119.8 . .
C22 C23 H23A 119.8 . .
C25 C24 C23 119.8(2) . .
C25 C24 H24A 120.1 . .
C23 C24 H24A 120.1 . .
C24 C25 C26 120.1(2) . .
C24 C25 H25A 119.9 . .
C26 C25 H25A 119.9 . .
C25 C26 C21 121.0(2) . .
C25 C26 H26A 119.5 . .
C21 C26 H26A 119.5 . .
loop_
_geom_bond_atom_site_label_1
_geom_bond_atom_site_label_2
_geom_bond_distance
_geom_bond_site_symmetry_2
Sn1 O1 1.9815(14) .
Sn1 C1 2.125(2) 2_666
Sn1 C21 2.137(2) .
Sn1 C11 2.137(2) .
Si1 O1 1.6264(15) .
Si1 C3 1.855(2) .
Si1 C1 1.862(2) .
Si1 C2 1.863(2) .
C1 Sn1 2.125(2) 2_666
C1 H1A 0.9700 .
C1 H1B 0.9700 .
C2 H2A 0.9600 .
C2 H2B 0.9600 .
C2 H2C 0.9600 .
C3 H3A 0.9600 .
C3 H3B 0.9600 .
C3 H3C 0.9600 .
C11 C12 1.389(3) .
C11 C16 1.392(3) .
C12 C13 1.386(3) .
C12 H12A 0.9300 .
C13 C14 1.390(3) .
C13 H13A 0.9300 .
C14 C15 1.373(4) .
C14 H14A 0.9300 .
C15 C16 1.383(3) .
C15 H15A 0.9300 .
C16 H16A 0.9300 .
C21 C22 1.388(3) .
C21 C26 1.399(3) .
C22 C23 1.383(3) .
C22 H22A 0.9300 .
C23 C24 1.375(3) .
C23 H23A 0.9300 .
C24 C25 1.375(3) .
C24 H24A 0.9300 .
C25 C26 1.380(3) .
C25 H25A 0.9300 .
C26 H26A 0.9300 .
loop_
_geom_torsion_atom_site_label_1
_geom_torsion_atom_site_label_2
_geom_torsion_atom_site_label_3
_geom_torsion_atom_site_label_4
_geom_torsion
_geom_torsion_site_symmetry_4
C3 Si1 O1 Sn1 -150.01(15) .
C1 Si1 O1 Sn1 90.71(15) .
C2 Si1 O1 Sn1 -29.26(17) .
O1 Si1 C1 Sn1 23.27(15) 2_666
C3 Si1 C1 Sn1 -94.73(14) 2_666
C2 Si1 C1 Sn1 145.01(12) 2_666
C16 C11 C12 C13 -0.1(3) .
Sn1 C11 C12 C13 177.91(17) .
C11 C12 C13 C14 0.7(4) .
C12 C13 C14 C15 -0.7(4) .
C13 C14 C15 C16 0.1(4) .
C14 C15 C16 C11 0.5(4) .
C12 C11 C16 C15 -0.5(3) .
Sn1 C11 C16 C15 -178.59(16) .
C26 C21 C22 C23 0.5(3) .
Sn1 C21 C22 C23 -176.38(16) .
C21 C22 C23 C24 0.0(3) .
C22 C23 C24 C25 -0.7(3) .
C23 C24 C25 C26 0.9(3) .
C24 C25 C26 C21 -0.4(3) .
C22 C21 C26 C25 -0.3(3) .
Sn1 C21 C26 C25 176.59(16) .
