#------------------------------------------------------------------------------
#$Date: 2019-11-24 07:43:58 +0200 (Sun, 24 Nov 2019) $
#$Revision: 237162 $
#$URL: file:///home/coder/svn-repositories/cod/cif/4/08/79/4087969.cif $
#------------------------------------------------------------------------------
#
# This file is available in the Crystallography Open Database (COD),
# http://www.crystallography.net/
#
# All data on this site have been placed in the public domain by the
# contributors.
#
data_4087969
loop_
_publ_author_name
'Baba Haj, Samer'
'Dietz, Christina'
'Lutter, Michael'
'Jurkschat, Klaus'
_publ_section_title
;
 cyclo-Stannasiloxanes Containing both Oxygen Atoms and Methylene Moieties
 within the Ring and Formation of Related Organotin Oxo Clusters
;
_journal_issue                   23
_journal_name_full               Organometallics
_journal_page_first              5555
_journal_paper_doi               10.1021/acs.organomet.5b00768
_journal_volume                  34
_journal_year                    2015
_chemical_formula_moiety         'C22 H52 O2 Si2 Sn2'
_chemical_formula_sum            'C22 H52 O2 Si2 Sn2'
_chemical_formula_weight         642.19
_chemical_melting_point          106.5(10)
_chemical_name_common            cyclo-(t-Bu2SnOMe2SiCH2)2
_space_group_crystal_system      triclinic
_space_group_IT_number           2
_space_group_name_Hall           '-P 1'
_space_group_name_H-M_alt        'P -1'
_atom_sites_solution_hydrogens   geom
_audit_creation_method           SHELXL-2014/7
_cell_angle_alpha                77.908(4)
_cell_angle_beta                 75.147(4)
_cell_angle_gamma                61.593(5)
_cell_formula_units_Z            1
_cell_length_a                   8.8934(4)
_cell_length_b                   9.1366(4)
_cell_length_c                   10.8755(5)
_cell_measurement_reflns_used    9670
_cell_measurement_temperature    173(2)
_cell_measurement_theta_max      29.1915
_cell_measurement_theta_min      2.5428
_cell_volume                     747.32(7)
_computing_cell_refinement
'CrysAlisPro, Oxford Diffraction Ltd., Version 1.171.33.55''
_computing_data_collection
'CrysAlisPro, Oxford Diffraction Ltd., Version 1.171.33.55''
_computing_data_reduction
'CrysAlisPro, Oxford Diffraction Ltd., Version 1.171.33.55''
_computing_molecular_graphics    'SHELXL-2014/7 (Sheldrick, 2014)'
_computing_publication_material  'enCIFer Version 1.5'
_computing_structure_refinement  'SHELXL-2014/7 (Sheldrick, 2014)'
_computing_structure_solution    'SHELXL-2014/7 (Sheldrick, 2014)'
_diffrn_ambient_temperature      173(2)
_diffrn_measured_fraction_theta_full 0.999
_diffrn_measured_fraction_theta_max 0.999
_diffrn_measurement_device       'XcaliburS CCD Diffractometer'
_diffrn_measurement_method       '\w und \y scan'
_diffrn_radiation_type           MoK\a
_diffrn_radiation_wavelength     0.71073
_diffrn_reflns_av_R_equivalents  0.0188
_diffrn_reflns_av_unetI/netI     0.0145
_diffrn_reflns_Laue_measured_fraction_full 0.999
_diffrn_reflns_Laue_measured_fraction_max 0.999
_diffrn_reflns_limit_h_max       10
_diffrn_reflns_limit_h_min       -10
_diffrn_reflns_limit_k_max       11
_diffrn_reflns_limit_k_min       -11
_diffrn_reflns_limit_l_max       13
_diffrn_reflns_limit_l_min       -13
_diffrn_reflns_number            8852
_diffrn_reflns_point_group_measured_fraction_full 0.999
_diffrn_reflns_point_group_measured_fraction_max 0.999
_diffrn_reflns_theta_full        25.242
_diffrn_reflns_theta_max         25.499
_diffrn_reflns_theta_min         2.548
_exptl_absorpt_coefficient_mu    1.765
_exptl_absorpt_correction_T_max  1.00000
_exptl_absorpt_correction_T_min  0.57851
_exptl_absorpt_correction_type   multi-scan
_exptl_absorpt_process_details
;
CrysAlisPro, Oxford Diffraction Ltd.,
Version 1.171.33.55 (release 05-01-2010 CrysAlis171 .NET)
(compiled Jan  5 2010,16:28:46)
Empirical absorption correction using spherical harmonics,
 implemented in SCALE3 ABSPACK scaling algorithm.
;
_exptl_crystal_colour            colourless
_exptl_crystal_density_diffrn    1.427
_exptl_crystal_description       block
_exptl_crystal_F_000             328
_exptl_crystal_size_max          0.500
_exptl_crystal_size_mid          0.500
_exptl_crystal_size_min          0.330
_refine_diff_density_max         0.294
_refine_diff_density_min         -0.655
_refine_diff_density_rms         0.081
_refine_ls_extinction_method     none
_refine_ls_goodness_of_fit_ref   1.348
_refine_ls_hydrogen_treatment    constr
_refine_ls_matrix_type           full
_refine_ls_number_parameters     129
_refine_ls_number_reflns         2773
_refine_ls_number_restraints     0
_refine_ls_restrained_S_all      1.348
_refine_ls_R_factor_all          0.0171
_refine_ls_R_factor_gt           0.0162
_refine_ls_shift/su_max          0.002
_refine_ls_shift/su_mean         0.000
_refine_ls_structure_factor_coef Fsqd
_refine_ls_weighting_details
'w=1/[\s^2^(Fo^2^)+(0.0262P)^2^] where P=(Fo^2^+2Fc^2^)/3'
_refine_ls_weighting_scheme      calc
_refine_ls_wR_factor_gt          0.0460
_refine_ls_wR_factor_ref         0.0462
_reflns_Friedel_coverage         0.000
_reflns_number_gt                2681
_reflns_number_total             2773
_reflns_threshold_expression     'I > 2\s(I)'
_cod_data_source_file            om5b00768_si_002.cif
_cod_data_source_block           comp6
_cod_depositor_comments
;
The following automatic conversions were performed:

data item '_chemical_melting_point' value '105.5-107.5' was changed
to '106.5(10)' -- the average value was taken and precision was
estimated.

Automatic conversion script
Id: cif_fix_values 6909 2019-04-08 15:41:33Z antanas 
;
_cod_database_code               4087969
_shelx_shelxl_version_number     2014/7
_shelx_space_group_comment
;
The symmetry employed for this shelxl refinement is uniquely defined
by the following loop, which should always be used as a source of
symmetry information in preference to the above space-group names.
They are only intended as comments.
;
_shelx_estimated_absorpt_t_min   0.472
_shelx_estimated_absorpt_t_max   0.594
_shelx_res_file
;

    2188.res created by SHELXL-2014/7

TITL 2188 in P1                  New: P-1
CELL  0.71073    8.8934    9.1366   10.8755    77.908    75.147    61.593
ZERR  1           0.0004    0.0004    0.0005     0.004     0.004     0.005
LATT   1
SFAC  C  H  O Si Sn
UNIT    22    52   2   2   2
L.S. 10
FMAP 2
PLAN -10
BOND $H
TEMP -100
SIZE 0.50 0.50 0.33
ACTA
CONF
OMIT 0 51
OMIT 1 0 0

WGHT    0.026200
FVAR       0.83433
SN1   5    0.048810    0.799714    0.179629    11.00000    0.01380    0.01293 =
         0.01309   -0.00106   -0.00358   -0.00496
SI1   4    0.070912    1.178399    0.101668    11.00000    0.01986    0.01450 =
         0.01692   -0.00156   -0.00658   -0.00800
O1    3    0.106902    0.987168    0.109264    11.00000    0.02761    0.01632 =
         0.02459    0.00057   -0.00837   -0.01163
C1    1   -0.069103    1.311878   -0.018316    11.00000    0.02137    0.01538 =
         0.01923   -0.00357   -0.00608   -0.00559
AFIX  23
H1A   2   -0.043180    1.408611   -0.050685    11.00000   -1.20000
H1B   2   -0.191615    1.356447    0.026634    11.00000   -1.20000
AFIX   0
C2    1   -0.035252    1.265778    0.259029    11.00000    0.03663    0.03176 =
         0.02306   -0.00829   -0.00837   -0.01491
AFIX 137
H2A   2    0.035899    1.194729    0.323566    11.00000   -1.50000
H2B   2   -0.150780    1.269230    0.284781    11.00000   -1.50000
H2C   2   -0.046611    1.379248    0.251355    11.00000   -1.50000
AFIX   0
C3    1    0.282844    1.186402    0.058272    11.00000    0.02488    0.02518 =
         0.03801   -0.00785   -0.00781   -0.01231
AFIX 137
H3A   2    0.346131    1.138275   -0.022818    11.00000   -1.50000
H3B   2    0.351450    1.122206    0.125560    11.00000   -1.50000
H3C   2    0.262913    1.302954    0.049148    11.00000   -1.50000
AFIX   0
C11   1    0.264711    0.637951    0.278743    11.00000    0.01626    0.02125 =
         0.01890    0.00146   -0.00703   -0.00568
C12   1    0.279722    0.736648    0.367545    11.00000    0.03022    0.04036 =
         0.03692   -0.00933   -0.01847   -0.01014
AFIX  33
H12A  2    0.296339    0.832207    0.317838    11.00000   -1.50000
H12B  2    0.173175    0.777032    0.431985    11.00000   -1.50000
H12C  2    0.379334    0.664357    0.410079    11.00000   -1.50000
AFIX   0
C13   1    0.238921    0.489389    0.353130    11.00000    0.03630    0.03350 =
         0.03844    0.01594   -0.01978   -0.01580
AFIX  33
H13A  2    0.132438    0.528650    0.417734    11.00000   -1.50000
H13B  2    0.229057    0.427543    0.294497    11.00000   -1.50000
H13C  2    0.338570    0.415774    0.395326    11.00000   -1.50000
AFIX   0
C14   1    0.429544    0.577221    0.178720    11.00000    0.01987    0.04390 =
         0.02925   -0.00290   -0.00478   -0.00425
AFIX  33
H14A  2    0.446214    0.673441    0.130566    11.00000   -1.50000
H14B  2    0.529204    0.503612    0.220905    11.00000   -1.50000
H14C  2    0.419692    0.515381    0.120076    11.00000   -1.50000
AFIX   0
C21   1   -0.209971    0.896196    0.296608    11.00000    0.01700    0.02482 =
         0.01984   -0.00552   -0.00196   -0.00816
C22   1   -0.204355    0.922090    0.429073    11.00000    0.02650    0.04573 =
         0.02134   -0.01357    0.00171   -0.01243
AFIX  33
H22A  2   -0.127607    0.815600    0.470799    11.00000   -1.50000
H22B  2   -0.160095    1.004169    0.420949    11.00000   -1.50000
H22C  2   -0.321754    0.963144    0.480612    11.00000   -1.50000
AFIX   0
C23   1   -0.328843    1.060758    0.230531    11.00000    0.01983    0.02739 =
         0.03452   -0.00837   -0.00589   -0.00354
AFIX  33
H23A  2   -0.331606    1.042860    0.145545    11.00000   -1.50000
H23B  2   -0.446540    1.102145    0.281595    11.00000   -1.50000
H23C  2   -0.284881    1.143170    0.221931    11.00000   -1.50000
AFIX   0
C24   1   -0.277485    0.766732    0.310133    11.00000    0.02604    0.03579 =
         0.03162   -0.00447    0.00219   -0.01874
AFIX  33
H24A  2   -0.200569    0.661120    0.352689    11.00000   -1.50000
H24B  2   -0.395174    0.807611    0.361203    11.00000   -1.50000
H24C  2   -0.279975    0.748506    0.225175    11.00000   -1.50000

AFIX   0
HKLF 4

REM  2188 in P1                  New: P-1
REM R1 =  0.0162 for    2681 Fo > 4sig(Fo)  and  0.0171 for all    2773 data
REM    129 parameters refined using      0 restraints

END

WGHT      0.0248      0.2379

REM Highest difference peak  0.294,  deepest hole -0.655,  1-sigma level  0.081
Q1    1   0.0298  0.7480 -0.0379  11.00000  0.05    0.29
Q2    1   0.0034  1.2277  0.1859  11.00000  0.05    0.28
Q3    1   0.0065  0.9031  0.4226  11.00000  0.05    0.23
Q4    1   0.2372  1.3361 -0.0179  11.00000  0.05    0.22
Q5    1   0.3050  1.2198  0.1204  11.00000  0.05    0.22
Q6    1  -0.0370  1.0203  0.4641  11.00000  0.05    0.21
Q7    1  -0.1696  0.6470  0.1538  11.00000  0.05    0.21
Q8    1  -0.0643  1.3752  0.0884  11.00000  0.05    0.21
Q9    1   0.1490  1.4158 -0.0395  11.00000  0.05    0.20
Q10   1  -0.3006  0.7019  0.1476  11.00000  0.05    0.20
;
_shelx_res_checksum              37748
_shelx_hkl_file
;
   0   0   2 4276.89   61.70
   0   0  -2 3857.67   57.57
   0   0   2 3806.84   58.78
   0   0  -2 3949.53   14.95
   0   0   2 3755.76   65.88
   0   0  -2 4183.34   64.72
   0   0  -2 4016.68   17.57
   0   0   2 4067.14   62.69
   0   0   2 3896.02   49.75
   0   0   3 2219.51   15.65
   0   0   3 2318.56   11.68
   0   0  -3 2424.40   15.20
   0   0  -3 2430.76   16.83
   0   0   3 2329.15   14.79
   0   0  -3 2296.71   13.63
   0   0   3 2426.24   14.48
   0   0  -3 2310.40   14.12
   0   0  -4  520.13    8.05
   0   0   4  512.86    8.94
   0   0  -4  567.47    8.69
   0   0   4  518.85    6.26
   0   0  -4  582.68    9.65
   0   0   4  527.28    8.55
   0   0  -4  525.86    7.67
   0   0   5  728.80    8.00
   0   0   5  712.17   11.01
   0   0  -5  762.23   10.17
   0   0  -5  725.72   10.53
   0   0   5  677.62   11.34
   0   0   6 1081.67   14.79
   0   0  -6 1062.10   14.03
   0   0   6 1074.86   10.24
   0   0   6 1049.72   15.03
   0   0   7    2.80    1.81
   0   0  -7    3.69    3.80
   0   0   7    0.90    4.24
   0   0   7    8.32    3.60
   0   0   8 1237.48   18.87
   0   0   8 1228.86   18.84
   0   0  -8 1248.52   17.89
   0   0   8 1204.22   11.75
   0   0  -9  404.98   11.62
   0   0   9  401.48   12.27
   0   0   9  422.41   12.14
   0   0 -10  390.21   12.34
   0   0  10  380.35   12.90
   0   0 -11 1475.98   23.81
   0   0  11 1541.92   25.70
   0   0  12  240.69   11.86
   0   0 -12  222.06   11.32
   0   0  13  305.19   14.50
   0   0 -13  317.57   13.58
   0   0 -14  571.05   18.87
   0   1 -14   54.92    8.18
   0  -1  13  357.99   15.72
   0   1 -13  327.37   13.87
   0   1 -12  222.51   10.99
   0  -1  12  223.98   12.02
   0   1 -11   90.41    7.45
   0  -1  11  102.59    8.84
   0  -1  10 1649.20   23.39
   0  -1  10 1613.22   24.69
   0   1 -10 1608.99   23.20
   0   1  -9  561.56   13.33
   0  -1   9  582.04   13.61
   0  -1   9  562.07   10.20
   0  -1   9  559.95   14.07
   0  -1   8 1498.14   16.07
   0  -1   8 1476.32   20.53
   0  -1   8 1476.58   19.95
   0   1  -8 1506.98   19.37
   0  -1   7 3408.88   28.33
   0   1  -7 3386.18   26.35
   0  -1   7 3464.50   23.79
   0  -1   6  787.39   11.29
   0  -1   6  770.50   12.60
   0  -1   6  808.23   12.97
   0   1  -6  766.04   11.87
   0  -1   5 1489.61   14.61
   0  -1   5 1499.73   15.76
   0  -1   5 1482.01   15.64
   0   1  -5 1458.45   14.41
   0   1  -4 2805.91   17.67
   0   1  -4 3065.16   15.07
   0  -1   4 2878.35   19.28
   0  -1   4 3156.42   18.52
   0  -1   4 2824.66   19.39
   0  -1   3  115.85    4.52
   0  -1   3  127.43    3.90
   0  -1   3  110.14    3.98
   0   1  -3  110.04    2.85
   0   1  -3  117.91    3.76
   0  -1   3  119.83    3.56
   0  -1   2  486.69    5.47
   0   1  -2  469.03    6.75
   0   1  -2  464.23    4.81
   0   1  -2  497.60    5.65
   0  -1   2  453.39    6.83
   0  -1   2  470.16    4.79
   0   1  -1 2506.21   10.20
   0   1  -1 2661.75   10.08
   0  -1   1 2615.72   12.59
   0  -1   1 2545.32   10.11
   0  -1   1 2733.99   40.16
   0   1  -1 2430.77   12.27
   0   1   0 1958.55    8.83
   0  -1   0 1929.18    9.36
   0   1   1 6459.77   73.95
   0  -1  -1 6621.19   75.10
   0  -1  -2   83.62    3.02
   0  -1  -2   83.44    2.79
   0  -1  -2   81.75    1.69
   0  -1  -2   86.15    2.72
   0   1   2   80.74    2.97
   0  -1  -2   84.30    2.89
   0   1   2   84.55    3.08
   0   1   2   78.51    3.07
   0   1   3 3179.37   17.91
   0   1   3 3111.47   38.49
   0  -1  -3 3146.71   39.17
   0   1   3 3242.39   18.56
   0  -1  -3 3366.65   18.15
   0   1   3 3048.73   19.01
   0  -1  -3 3091.70   48.29
   0  -1  -3 3297.95   19.58
   0  -1  -3 3430.53   19.16
   0  -1  -4 5828.75   27.62
   0  -1  -4 5808.67   29.82
   0   1   4 5311.57   28.73
   0  -1  -4 5719.89   63.79
   0   1   4 5574.59   27.09
   0   1   4 5316.40   56.50
   0  -1  -4 5449.32   20.05
   0  -1  -4 5871.99   28.32
   0   1   4 5483.51   27.67
   0   1   5 2028.34    9.82
   0   1   5 1990.62   19.63
   0  -1  -5 2063.75   18.45
   0   1   5 2011.59   18.78
   0  -1  -5 2069.74   14.31
   0   1   6  605.53    5.95
   0  -1  -6  612.89   11.30
   0   1   6  616.47   11.64
   0  -1  -6  626.58    9.01
   0   1   6  631.79   12.36
   0   1   7 4015.91   30.91
   0   1   7 3991.78   16.06
   0  -1  -8  269.88    9.67
   0   1   8  285.60    4.69
   0   1   8  280.78    9.78
   0   1   9  501.25   13.52
   0  -1  -9  499.16   12.87
   0  -1 -10  472.66   13.49
   0   1  10  439.08   13.52
   0  -1 -11   15.49    5.31
   0   1  11   16.89    6.76
   0  -1 -12  526.10   15.93
   0   1  12  562.51   17.53
   0   1  13  141.18   11.00
   0  -1 -13  108.11    9.09
   0  -1 -14   60.39    8.33
   0   2 -13   -1.87    6.50
   0  -2  12  378.06   14.78
   0   2 -12  377.01   13.97
   0  -2  11  392.24   14.26
   0   2 -11  395.89   13.57
   0  -2  10   32.92    4.67
   0   2 -10   35.02    6.34
   0  -2  10   26.45    6.42
   0   2  -9 1406.61   20.54
   0  -2   9 1412.03   19.86
   0  -2   9 1365.19   18.30
   0  -2   9 1384.69   21.49
   0  -2   8  184.61    8.43
   0  -2   8  190.76    7.52
   0   2  -8  198.28    8.31
   0  -2   8  189.97    7.41
   0  -2   7  982.31   15.81
   0  -2   7  980.60   14.72
   0   2  -7  975.16   14.95
   0  -2   6 1996.02   20.16
   0   2  -6 1961.65   19.00
   0  -2   6 1959.73   18.98
   0  -2   5   69.35    3.84
   0  -2   5   58.69    4.26
   0   2  -5   61.64    3.02
   0   2  -5   60.80    4.22
   0  -2   4 1711.05   18.14
   0   2  -4 1667.54   14.37
   0   2  -3 2263.05   15.13
   0  -2   3 2277.56   18.77
   0  -2   3 2463.97   15.42
   0  -2   3 2271.91   13.85
   0   2  -3 2413.68   14.32
   0  -2   2  997.90    8.87
   0   2  -2  956.48   11.31
   0  -2   2  956.06   11.04
   0   2  -2  980.33    9.43
   0  -2   2 1045.64    9.26
   0   2  -2 1071.37    9.10
   0  -2   2  966.06   11.15
   0   2  -1 2765.17   16.51
   0  -2   1 2782.02   16.22
   0  -2   1 2943.10   14.57
   0   2  -1 3050.91   14.68
   0  -2   1 2839.54   17.46
   0  -2   1 2933.74   14.74
   0   2  -1 2743.65   15.00
   0  -2   0 4542.60   68.14
   0  -2   0 4753.17   18.51
   0   2   0 4734.33   19.36
   0   2   0 4585.31   70.62
   0  -2   0 4650.13   20.89
   0  -2  -1  199.10    4.61
   0   2   1  212.67    4.26
   0   2   1  210.12    4.31
   0   2   1  202.18    2.97
   0  -2  -1  193.23    4.20
   0  -2  -1  182.55    4.28
   0   2   1  200.66    4.96
   0  -2  -1  222.03    3.07
   0  -2  -2 1085.86   10.23
   0  -2  -2 1143.26    9.68
   0   2   2 1112.94    9.78
   0   2   2 1069.19    9.39
   0   2   2 1097.95    8.57
   0  -2  -2 1061.49    9.71
   0  -2  -2 1109.13    8.60
   0   2   2 1023.15   10.75
   0  -2  -2 1155.70   11.35
   0  -2  -3  185.62    3.53
   0   2   3  169.48    5.43
   0   2   3  172.55    3.31
   0   2   3  166.71    4.88
   0  -2  -3  172.53    4.87
   0  -2  -3  173.65    5.30
   0  -2  -3  164.38    4.62
   0  -2  -3  173.95    4.87
   0  -2  -4 1488.60    7.89
   0   2   4 1510.63   15.69
   0   2   4 1589.80    9.01
   0   2   4 1555.59   14.97
   0  -2  -4 1557.70    9.03
   0  -2  -4 1519.96   14.05
   0   2   5 2448.79   10.87
   0   2   5 2473.01   20.92
   0  -2  -5 2527.57   19.27
   0  -2  -5 2559.85   12.87
   0  -2  -5 2542.62   11.13
   0   2   5 2500.62   21.89
   0  -2  -6  573.36   10.16
   0   2   6  589.50   11.89
   0  -2  -6  590.73    5.61
   0   2   6  583.20   11.43
   0   2   6  564.93    5.17
   0  -2  -7 1405.79   16.53
   0  -2  -7 1414.11   12.80
   0  -2  -7 1401.18   19.07
   0   2   7 1424.59   18.99
   0   2   8 2001.66   23.95
   0  -2  -8 1988.88   20.61
   0  -2  -9   75.89    5.24
   0   2   9   82.77    7.31
   0  -2  -9   92.20    7.38
   0   2  10  752.35   17.66
   0  -2 -10  783.04   17.51
   0  -2 -10  803.73   14.40
   0  -2 -11 1187.41   22.34
   0   2  11 1205.81   23.18
   0  -2 -12   32.83    6.69
   0   2  12   33.16    7.45
   0  -2 -13  270.00   13.16
   0   2  13  279.85   14.22
   0   3 -13  374.79   15.46
   0   3 -12   13.08    6.40
   0  -3  12   20.85    7.51
   0   3 -11  660.50   16.89
   0  -3  11  687.22   18.44
   0  -3  10  600.49   16.06
   0  -3  10  631.92   14.56
   0   3 -10  604.89   15.29
   0   3  -9   59.24    6.30
   0  -3   9   63.08    5.06
   0  -3   9   71.19    5.92
   0  -3   9   64.27    6.65
   0  -3   8 1289.86   17.38
   0  -3   8 1293.05   19.75
   0  -3   8 1278.01   19.81
   0   3  -8 1271.81   18.63
   0  -3   7 1345.56   16.65
   0   3  -7 1327.47   17.76
   0  -3   7 1350.09   18.64
   0   3  -6   71.69    5.36
   0  -3   6   73.49    5.20
   0   3  -5 2066.88   18.86
   0  -3   4   73.44    3.67
   0   3  -4   72.21    4.51
   0  -3   3 1122.66   11.63
   0  -3   3 1130.69   14.87
   0   3  -3 1109.71   12.50
   0  -3   2 2160.11   18.47
   0  -3   2 2389.86   16.30
   0   3  -2 2466.97   16.53
   0  -3   2 2190.91   15.80
   0   3  -2 2232.50   16.89
   0   3  -1   22.86    3.04
   0   3  -1   20.34    1.91
   0  -3   1   18.51    2.94
   0  -3   1   16.79    2.73
   0   3  -1   23.75    2.11
   0  -3   1   26.64    2.81
   0   3  -1   18.17    2.97
   0   3   0 3342.58   41.68
   0   3   0 3371.83   19.12
   0  -3   0 3287.50   17.81
   0   3   0 3333.58   20.31
   0  -3   0 3321.88   19.15
   0  -3  -1 2890.39   19.32
   0  -3  -1 2663.14   13.48
   0   3   1 2723.68   14.07
   0   3   1 2737.04   18.99
   0  -3  -1 2786.69   18.69
   0  -3  -1 2700.06   17.54
   0   3   1 2973.72   18.18
   0   3   1 2660.50   18.16
   0   3   2  144.18    2.60
   0  -3  -2  157.39    2.68
   0   3   2  146.85    4.43
   0  -3  -2  146.24    4.86
   0  -3  -2  156.11    4.57
   0   3   2  148.53    5.71
   0   3   3 3363.55   23.89
   0   3   3 3391.01   18.17
   0  -3  -3 3360.61   21.44
   0  -3  -4 3044.34   21.80
   0  -3  -4 3172.02   16.96
   0   3   4 3178.60   16.80
   0   3   4 3170.44   21.92
   0   3   4 3074.77   24.35
   0  -3  -5   29.18    2.02
   0   3   5   23.01    3.82
   0  -3  -5   18.72    3.35
   0   3   5   23.82    4.51
   0   3   5   30.97    2.15
   0  -3  -6 3038.86   12.30
   0  -3  -6 3060.53   14.31
   0  -3  -6 2976.68   24.43
   0   3   6 3003.15   14.33
   0   3   6 2953.23   27.28
   0   3   6 3006.32   25.73
   0   3   7  265.53    9.68
   0  -3  -7  291.72    4.87
   0  -3  -7  284.32    8.63
   0  -3  -7  272.07    4.09
   0   3   7  277.85    9.47
   0   3   7  277.86    4.01
   0  -3  -8  966.04   15.63
   0   3   8  960.84   17.94
   0   3   8  951.53   17.45
   0   3   9  752.09   16.80
   0  -3  -9  712.49   13.97
   0  -3  -9  727.23   16.68
   0   3  10   11.17    5.22
   0  -3 -10   11.33    5.55
   0  -3 -10   11.85    3.88
   0  -3 -11  650.54   14.51
   0  -3 -11  607.99   17.13
   0   3  11  623.19   17.69
   0   3  12  408.92   15.75
   0  -3 -12  415.52   15.42
   0  -3 -13    6.35    6.19
   0   3  13    1.89    6.35
   0   4 -12  229.30   12.49
   0  -4  12  263.27   13.30
   0  -4  11    3.59    5.59
   0   4 -11    2.03    5.74
   0  -4  10  822.53   18.85
   0   4 -10  795.54   18.22
   0   4  -9  426.02   12.91
   0  -4   9  434.81   13.18
   0   4  -8  140.83    7.96
   0  -4   8  133.73    7.65
   0  -4   7 1440.82   19.79
   0  -4   7 1471.74   16.73
   0   4  -7 1429.09   19.78
   0  -4   6 1490.90   15.59
   0  -4   6 1521.70   18.85
   0   4  -5  238.32    8.21
   0  -4   5  243.94    6.92
   0   4  -4 4693.34   30.06
   0  -4   4 4750.93   27.84
   0   4  -3 2408.33   21.01
   0  -4   3 2420.40   19.65
   0  -4   3 2425.44   23.43
   0  -4   2  442.22    8.59
   0   4  -2  449.73    7.70
   0   4  -1 2087.64   12.61
   0   4  -1 2105.26   19.00
   0  -4   1 2109.45   17.97
   0  -4   1 2087.82   18.25
   0   4   0  727.24   11.42
   0  -4   0  722.78   10.64
   0   4   0  725.31    5.44
   0  -4   0  714.21    9.76
   0  -4  -1 1280.87   14.25
   0   4   1 1363.40   15.66
   0   4   1 1394.64   12.37
   0  -4  -1 1305.00   11.37
   0  -4  -2 2001.50   11.69
   0   4   2 2051.03   12.06
   0  -4  -2 1992.79   18.08
   0   4   2 2002.89   19.68
   0   4   3  599.59    4.74
   0   4   3  619.80    9.64
   0   4   3  642.40   12.01
   0  -4  -3  593.43   10.59
   0  -4  -3  678.21    9.98
   0  -4  -3  634.48    9.89
   0  -4  -4 2582.49   18.52
   0   4   4 2598.54   24.57
   0   4   4 2616.21   18.55
   0  -4  -4 2567.40   22.14
   0   4   5 1889.37   22.16
   0  -4  -5 1829.38   19.71
   0   4   5 1848.76   14.73
   0   4   5 1815.19   19.00
   0  -4  -5 1832.58   15.15
   0   4   6  203.83    8.04
   0   4   6  197.09    4.85
   0  -4  -6  219.50    5.20
   0   4   6  195.18    8.91
   0  -4  -6  209.39    7.83
   0   4   7 2937.43   30.77
   0  -4  -7 2873.44   26.90
   0   4   7 2891.60   27.97
   0   4   8  556.75   14.84
   0  -4  -8  544.99   12.84
   0   4   8  561.79   14.04
   0   4   9  161.35    8.89
   0  -4  -9  154.89    7.78
   0   4   9  179.75   10.05
   0  -4 -10  890.90   20.02
   0   4  10  873.14   19.34
   0  -4 -11  311.27   13.42
   0   4  11  322.93   13.32
   0  -4 -11  347.21   11.64
   0  -4 -12   59.05    8.01
   0   4  12   34.48    7.90
   0  -4 -13  410.89   16.59
   0   5 -11  518.62   19.22
   0  -5  11  527.19   17.15
   0   5 -11  537.00   17.37
   0  -5  10  159.32   10.09
   0   5 -10  158.56   10.18
   0  -5  10  161.33    9.94
   0  -5   9  159.16    9.68
   0   5  -9  157.84    9.28
   0  -5   9  158.37    8.84
   0   5  -8  546.77   14.48
   0  -5   8  573.74   14.27
   0  -5   7    6.34    3.99
   0   5  -7    8.20    4.80
   0   5  -6  777.10   15.22
   0  -5   6  779.24   14.27
   0   5  -5  592.35   13.19
   0  -5   5  589.30   11.55
   0  -5   4  434.67    9.97
   0   5  -4  452.30   11.17
   0   5  -4  452.08   10.86
   0  -5   3 5119.56   32.03
   0   5  -3 4873.07   29.26
   0  -5   2 1179.36   15.57
   0   5  -2 1189.89   16.79
   0  -5   1 1095.56   14.89
   0  -5   1 1117.95   14.90
   0   5  -1 1114.00   15.83
   0   5  -1 1147.53    9.62
   0  -5   0 3266.01   22.89
   0   5   0 3296.39   26.66
   0  -5   0 3280.67   25.30
   0   5   0 3350.90   12.07
   0   5   1 1691.27   15.48
   0   5   1 1603.95   19.19
   0   5   2  373.26    6.37
   0  -5  -2  356.29    9.13
   0   5   2  358.35   10.05
   0   5   3 1701.94   10.55
   0   5   3 1643.56   20.61
   0   5   4  425.38   11.50
   0  -5  -4  407.64   10.56
   0   5   5  205.95    9.18
   0  -5  -5  188.34    7.72
   0   5   6  696.32   15.60
   0  -5  -6  654.75   13.93
   0  -5  -7   75.06    6.22
   0   5   7   74.24    7.40
   0   5   8 1553.02   25.02
   0  -5  -8 1522.12   22.41
   0   5   8 1511.38   22.32
   0   5   9  728.85   18.32
   0  -5  -9  726.70   16.41
   0   5   9  743.23   17.11
   0   5  10  233.22   11.13
   0  -5 -10  240.06   10.62
   0   5  10  235.57   12.54
   0   5  11 1019.76   23.32
   0   5  11 1063.94   22.78
   0  -5 -11 1081.97   20.90
   0  -5 -11 1004.84   23.24
   0   5  12  303.29   14.06
   0  -5 -12  274.92   13.87
   0  -6  11  230.59   12.35
   0  -6  10  907.59   20.70
   0   6 -10  889.61   21.74
   0   6 -10  866.05   23.59
   0  -6  10  923.37   23.24
   0   6  -9  270.34   12.50
   0   6  -9  272.72   13.58
   0  -6   9  263.27   11.36
   0  -6   9  289.25   13.59
   0   6  -8  191.85   10.97
   0  -6   8  211.73    9.72
   0   6  -8  213.89   10.77
   0   6  -7 1086.95   20.51
   0  -6   7 1118.61   18.96
   0   6  -6   60.55    6.81
   0  -6   6   58.95    5.18
   0  -6   6   60.53    5.35
   0   6  -6   66.62    6.62
   0   6  -5  405.25   11.92
   0  -6   5  387.85   10.62
   0   6  -5  387.15   11.32
   0   6  -4  566.37   11.82
   0  -6   4  559.41   12.42
   0   6  -4  554.49   13.94
   0   6  -3    2.94    2.71
   0   6  -3    9.14    5.53
   0  -6   3    5.58    3.68
   0   6  -2  499.96    8.14
   0   6  -2  482.83   12.37
   0  -6   2  463.37   11.17
   0   6  -1  228.03    9.01
   0  -6   1  246.00    8.34
   0   6  -1  249.62    4.80
   0   6   0  456.61    4.18
   0  -6   0  457.06   10.95
   0  -6  -1 3242.04   28.25
   0   6   1 3392.15   30.68
   0  -6  -2  877.59   15.41
   0   6   2  900.37   11.10
   0   6   2  916.04   16.94
   0   6   3  888.09    9.24
   0   6   3  876.55   17.10
   0   6   4 2842.46   30.31
   0  -6  -4 2693.14   27.78
   0   6   5  643.18   15.81
   0  -6  -5  620.29   14.52
   0  -6  -6  275.28   10.72
   0   6   6  280.28   11.67
   0  -6  -7  819.82   17.44
   0   6   7  839.78   18.93
   0   6   8  141.70    9.87
   0  -6  -8  143.55    8.99
   0   6   9  344.87   14.16
   0  -6  -9  322.47   12.44
   0  -6 -10  306.04   12.77
   0   6  10  291.28   13.45
   0  -6 -11   21.70    5.95
   0   6  11   35.88    8.12
   0   7  -9  380.08   15.51
   0  -7   9  394.51   16.61
   0   7  -9  354.06   15.42
   0   7  -8   95.32    8.86
   0   7  -8  101.07    9.05
   0  -7   7  330.91   11.28
   0   7  -7  330.00   12.98
   0   7  -6 1076.22   20.17
   0  -7   6 1081.89   18.00
   0   7  -5  108.40    8.46
   0  -7   5  110.09    7.09
   0   7  -5  119.16    7.09
   0   7  -4  783.42   17.74
   0  -7   4  777.69   15.82
   0   7  -3 1320.96   21.82
   0  -7   3 1231.15   19.60
   0  -7   2   92.69    6.47
   0   7  -2  102.50    7.88
   0   7  -1  338.22   11.55
   0  -7   1  309.04   10.11
   0   7   0 1077.96   19.35
   0  -7   0 1039.40   17.81
   0   7   1   11.08    5.56
   0  -7  -1    7.60    4.39
   0  -7  -2 1160.16   19.20
   0   7   2 1283.76   21.59
   0  -7  -3  154.56    8.46
   0   7   3  173.63    9.59
   0   7   4  659.14   16.47
   0  -7  -4  624.45   15.10
   0   7   5 1081.42   21.15
   0  -7  -5 1071.23   19.91
   0   7   6   92.10    8.46
   0  -7  -6   81.98    7.18
   0   7   7  499.77   16.07
   0  -7  -7  451.23   14.51
   0   7   8 1518.19   27.35
   0  -7  -8 1435.62   25.38
   0   7   9  153.81   11.46
   0  -7  -9  154.35   10.06
   0   7  10  326.48   14.86
   0  -7 -10  307.02   13.50
   0  -7 -11  417.51   15.91
   0   8  -8  547.01   19.58
   0   8  -7  239.14   13.15
   0  -8   6  137.04    8.51
   0   8  -6  149.05   10.60
   0   8  -5  599.49   17.64
   0  -8   5  608.15   15.78
   0   8  -4   67.75    7.81
   0  -8   4   63.35    6.29
   0  -8   3  474.58   13.81
   0   8  -3  485.36   15.20
   0   8  -2  570.19   15.91
   0  -8   2  523.77   14.29
   0  -8   1    2.69    4.80
   0   8  -1    3.68    5.63
   0  -8   0  967.71   18.98
   0   8   0 1023.91   20.71
   0  -8  -1 1705.47   24.89
   0   8   1 1874.56   27.86
   0   8   2   35.40    7.50
   0  -8  -2   26.44    5.48
   0  -8  -3 1165.35   21.59
   0   8   3 1278.10   23.71
   0  -8  -4  423.71   13.86
   0   8   4  465.64   15.26
   0   8   5  192.62   11.25
   0  -8  -5  177.68    9.72
   0   8   6  381.00   14.99
   0  -8  -6  344.69   13.56
   0  -8  -7  110.88    9.21
   0   8   7  113.00   10.13
   0   8   8  151.86   10.92
   0  -8  -8  147.27   10.45
   0   8   9  500.70   18.61
   0  -8  -9  462.98   16.96
   0  -8 -10   29.99    6.52
   0   9  -6  622.20   20.19
   0  -9   6  572.18   16.72
   0  -9   5   34.66    6.08
   0   9  -5   42.24    8.20
   0   9  -4  693.10   19.83
   0  -9   4  670.28   17.75
   0  -9   3  270.05   11.77
   0   9  -3  281.25   13.19
   0  -9   2   70.92    7.17
   0   9  -2   77.39    8.27
   0   9  -1  448.41   15.56
   0  -9   1  454.02   14.59
   0   9   0   19.16    6.28
   0  -9   0   20.27    5.63
   0  -9  -1  321.51   12.73
   0   9   1  373.21   14.65
   0   9   2  490.34   16.52
   0  -9  -2  445.15   15.01
   0   9   3   15.54    6.54
   0  -9  -3   19.82    6.12
   0  -9  -4  980.97   22.15
   0   9   4 1006.41   23.27
   0  -9  -5  448.12   15.79
   0   9   5  510.25   17.84
   0  -9  -6    1.92    6.56
   0   9   6    9.39    6.25
   0  -9  -7  589.73   19.42
   0   9   7  626.86   20.59
   0  -9  -8  533.95   18.96
   0 -10   3  640.71   18.66
   0 -10   2  352.72   14.30
   0  10  -2  380.07   16.42
   0  10  -1   63.03    9.14
   0 -10   1   47.55    7.90
   0 -10   0  737.27   20.05
   0  10   0  798.50   22.10
   0  10   1  439.09   16.97
   0 -10  -1  427.13   15.79
   0  10   2   10.07    6.86
   0 -10  -2   12.04    6.42
   0  10   3  347.74   15.73
   0 -10  -3  319.07   14.40
   0  10   4    6.38    7.32
   1  -9  -6   84.93    9.04
  -1   9   5  889.53   23.66
   1  -9  -5  778.84   21.19
  -1   9   4  322.17   14.76
   1  -9  -4  301.68   13.99
  -1   9   3   44.24    7.91
   1  -9  -3   33.23    7.26
   1  -9  -2  401.19   14.74
  -1   9   2  437.16   16.34
   1  -9  -1  243.37   12.21
  -1   9   1  245.76   12.66
   1  -9   0   77.46    7.79
  -1   9   0   61.14    8.53
   1  -9   1  513.79   16.63
  -1   9  -1  541.53   17.81
  -1   9  -2    0.70    6.73
   1  -9   2   -2.39    5.82
  -1   9  -3  360.14   14.72
   1  -9   3  344.81   14.05
  -1   9  -4  216.74   12.63
   1  -9   4  205.80   11.51
   1  -9   5   41.73    7.06
  -1   9  -5   53.16    8.88
   1  -8  -9  386.50   16.05
   1  -8  -8   29.81    7.02
   1  -8  -7  419.79   15.83
  -1   8   7  432.75   16.95
  -1   8   6  536.06   18.08
   1  -8  -6  478.76   16.19
   1  -8  -5    3.06    5.72
  -1   8   5    3.86    6.74
  -1   8   4  702.90   19.13
   1  -8  -4  631.54   17.38
  -1   8   3  261.34   12.15
   1  -8  -3  248.71   11.69
  -1   8   2  291.56   12.72
   1  -8  -2  286.48   11.66
  -1   8   1 1167.47   23.03
   1  -8  -1 1052.07   20.98
   1  -8   0  561.07   15.71
  -1   8   0  604.54   16.93
   1  -8   1  164.92    9.55
  -1   8  -1  196.53   10.94
  -1   8  -2  981.58   20.80
   1  -8   2  969.38   20.00
  -1   8  -3  123.00    9.00
   1  -8   3  103.58    7.65
   1  -8   4  133.61    8.74
  -1   8  -4  122.73    9.11
   1  -8   5  411.79   13.96
  -1   8  -5  385.36   14.84
  -1   8  -6   32.01    7.73
   1  -8   6   25.95    5.80
  -1   8  -7  377.46   15.73
   1  -7 -10  111.18    9.06
  -1   7   9  302.80   15.12
   1  -7  -9  281.53   12.86
  -1   7   8 1264.25   26.66
   1  -7  -8 1226.15   24.24
  -1   7   7  111.91    9.35
   1  -7  -7  100.53    8.32
   1  -7  -6  441.68   14.13
  -1   7   6  511.49   16.60
  -1   7   5 1062.82   22.08
   1  -7  -5  964.96   19.61
  -1   7   4  165.72    9.68
   1  -7  -4  147.26    8.54
  -1   7   3  603.50   16.31
   1  -7  -3  561.33   14.76
   1  -7  -2  758.66   16.50
  -1   7   2  824.89   18.27
   1  -7  -1    7.56    4.19
  -1   7   1    2.81    5.21
   1  -7   0  836.09   14.68
  -1   7   0  808.69   17.40
  -1   7  -1  343.02   12.06
   1  -7   1  323.22   11.25
   1  -7   2  344.23   11.79
  -1   7  -2  343.24   12.05
  -1   7  -3 1388.01   22.78
   1  -7   3 1317.77   21.43
   1  -7   4  279.78   10.99
  -1   7  -4  277.37   11.39
   1  -7   5  496.79   14.17
  -1   7  -5  516.11   15.36
   1  -7   6 1352.69   22.54
  -1   7  -6 1226.21   23.40
  -1   7  -7  219.66   11.62
  -1   7  -8  348.00   14.84
  -1   6  10  253.44   13.16
   1  -6 -10  244.39   11.43
  -1   6   9  175.34   11.83
   1  -6  -9  157.09    9.28
   1  -6  -8  162.95    9.56
  -1   6   8  169.87   10.75
  -1   6   7  612.11   17.30
   1  -6  -7  570.61   15.06
   1  -6  -6   95.24    6.86
  -1   6   6  105.22    8.30
  -1   6   5  475.50   14.43
  -1   6   5  445.47   11.21
   1  -6  -5  457.48   12.80
  -1   6   4 1981.41   23.12
   1  -6  -4 1951.69   24.54
  -1   6   3  165.36    7.75
   1  -6  -3  162.88    8.09
   1  -6  -3  171.57    5.02
  -1   6   3  154.42    8.47
   1  -6  -2 1799.13   16.67
  -1   6   2 1816.40   24.37
  -1   6   1 3442.86   32.46
   1  -6  -1 3443.16   25.05
   1  -6   0  142.96    7.71
   1  -6   0  138.13    6.47
  -1   6   0  144.94    8.16
  -1   6  -1 1189.86   18.83
   1  -6   1 1210.90   17.53
   1  -6   1 1153.37   18.14
   1  -6   2  475.87   12.29
   1  -6   2  502.40   12.54
  -1   6  -2  485.43   12.79
  -1   6  -2  491.56    8.37
   1  -6   3   28.47    4.69
  -1   6  -3   23.45    5.19
   1  -6   3   18.60    4.52
  -1   6  -3   21.78    3.34
  -1   6  -4  439.06   12.60
   1  -6   4  420.08   11.85
   1  -6   4  445.26   13.32
  -1   6  -4  437.31   10.22
  -1   6  -5  175.77    9.27
  -1   6  -5  191.65    8.14
   1  -6   5  178.74    8.23
   1  -6   5  188.40    7.00
  -1   6  -6  209.50    9.45
   1  -6   6  192.93    7.68
   1  -6   7  958.61   16.79
  -1   6  -7  900.06   19.60
  -1   6  -8   43.66    6.77
  -1   6  -8   39.21    7.24
   1  -6   8   57.45    5.91
  -1   6  -9  628.78   17.56
  -1   6  -9  552.44   18.49
  -1   6 -10  697.01   21.64
  -1   5  12  415.56   16.10
  -1   5  11  703.10   19.13
   1  -5 -11  713.45   20.97
  -1   5  10   53.72    7.10
  -1   5  10   51.03    8.01
   1  -5 -10   45.08    6.14
  -1   5   9  983.46   19.72
   1  -5  -9  943.75   18.65
  -1   5   9 1010.66   22.27
  -1   5   8  967.73   18.40
  -1   5   8 1030.65   21.74
   1  -5  -8  986.29   18.50
  -1   5   7    4.02    2.59
   1  -5  -7   13.37    4.27
  -1   5   7    2.52    4.08
  -1   5   7   10.64    5.27
  -1   5   6  470.94   13.66
  -1   5   6  487.36   10.05
  -1   5   5  282.69    8.09
   1  -5  -5  280.43    9.30
  -1   5   4  478.83   12.78
   1  -5  -4  491.78    5.57
   1  -5  -4  505.04    7.08
  -1   5   4  499.42   10.75
   1  -5  -3 1236.57    9.34
  -1   5   3 1171.51   16.46
   1  -5  -3 1181.23   10.65
  -1   5   3 1208.76   10.69
   1  -5  -3 1127.56   16.59
  -1   5   3 1174.02   18.63
   1  -5  -2    2.51    1.13
  -1   5   2    6.27    3.33
   1  -5  -2    7.54    3.96
  -1   5   2    0.59    4.37
   1  -5  -2    5.47    2.21
  -1   5   2    0.90    1.98
   1  -5  -2    1.55    2.25
   1  -5  -1 1721.09   19.84
  -1   5   1 1835.22   21.43
   1  -5  -1 1757.95   16.42
   1  -5  -1 1817.92   13.64
  -1   5   1 1825.93   21.50
   1  -5   0 2143.48   22.11
  -1   5   0 2178.86   22.85
   1  -5   0 2245.45   20.03
  -1   5   0 2269.29   12.41
  -1   5  -1    8.58    2.07
  -1   5  -1   10.41    4.16
   1  -5   1    8.89    3.78
   1  -5   1   13.70    3.84
   1  -5   2 2757.95   25.44
  -1   5  -2 2828.26   19.26
  -1   5  -2 2768.78   25.48
   1  -5   3 2453.02   26.08
  -1   5  -3 2438.33   20.15
   1  -5   3 2459.35   24.40
  -1   5  -3 2432.17   24.43
  -1   5  -4   50.03    5.89
   1  -5   4   43.24    5.68
  -1   5  -4   46.67    4.63
   1  -5   4   35.74    4.81
   1  -5   5  449.24    9.66
  -1   5  -5  454.89   11.64
   1  -5   5  428.76   11.12
   1  -5   5  455.77   13.46
   1  -5   6  983.72   19.95
   1  -5   6  952.38   14.98
  -1   5  -6  951.74   16.77
  -1   5  -6  936.40   18.05
   1  -5   7    4.74    3.86
  -1   5  -7    3.70    5.43
  -1   5  -7    2.29    4.52
   1  -5   8  598.55   14.14
  -1   5  -8  617.59   15.27
  -1   5  -9   10.12    5.20
  -1   5  -9    6.88    5.79
   1  -5   9   10.73    4.80
  -1   5 -10  304.09   12.73
   1  -5  10  282.40   11.95
  -1   5 -10  273.13   14.26
   1  -5  11  400.36   14.78
  -1   5 -11  366.70   17.19
   1  -5  12    4.03    6.06
  -1   4  12    3.38    7.50
   1  -4 -12   -3.50    7.93
   1  -4 -11  566.07   18.23
  -1   4  11  596.48   17.69
   1  -4 -10  811.61   20.23
   1  -4 -10  836.80   16.72
  -1   4   9    7.35    5.59
   1  -4  -9   19.41    4.52
  -1   4   9   11.53    5.69
  -1   4   8 1718.72   26.15
   1  -4  -8 1654.71   21.63
  -1   4   8 1707.71   23.30
  -1   4   7  998.16   19.19
   1  -4  -7  960.84   16.14
  -1   4   7  951.09   16.55
  -1   4   6   61.83    6.48
  -1   4   6   54.93    3.67
   1  -4  -6   50.47    4.95
  -1   4   6   50.43    5.31
  -1   4   5 1776.05   22.78
  -1   4   5 1807.79   18.93
  -1   4   5 1810.28   17.17
   1  -4  -5 1775.88   19.81
  -1   4   4 1485.10   19.86
  -1   4   4 1476.55   15.94
   1  -4  -4 1499.73    8.79
   1  -4  -4 1443.73   17.20
  -1   4   3   35.64    4.79
   1  -4  -3   33.49    2.29
  -1   4   3   30.73    3.52
   1  -4  -3   41.85    4.15
   1  -4  -3   37.91    3.14
   1  -4  -3   34.94    2.12
   1  -4  -2 1946.79   18.97
   1  -4  -2 1964.35   13.64
   1  -4  -2 2065.91   11.41
  -1   4   2 2019.64   20.95
  -1   4   2 1982.17   19.41
   1  -4  -2 2117.72   14.83
  -1   4   2 2049.42   14.15
  -1   4   1  431.86    9.69
   1  -4  -1  454.17    5.34
   1  -4  -1  415.03    9.13
   1  -4  -1  434.59    7.48
  -1   4   1  434.37    9.76
  -1   4   1  442.31    7.63
   1  -4   0  493.58    9.85
  -1   4   0  512.15   10.86
  -1   4   0  490.04   10.15
   1  -4   0  501.87    8.88
  -1   4   0  505.13    5.89
  -1   4  -1  847.20   12.71
  -1   4  -1  848.82    8.80
   1  -4   2    1.16    3.01
  -1   4  -2    4.26    3.26
  -1   4  -2    5.05    2.21
   1  -4   2    8.46    3.64
  -1   4  -3 3626.23   24.13
   1  -4   3 3585.83   26.32
   1  -4   4 1946.24   19.97
  -1   4  -4 1978.10   19.60
  -1   4  -4 1937.37   20.20
   1  -4   4 1921.23   23.01
   1  -4   5  137.28    5.79
   1  -4   5  142.99    7.88
  -1   4  -5  135.32    7.13
  -1   4  -5  143.86    6.80
   1  -4   5  130.32    6.00
  -1   4  -6 1487.09   21.82
  -1   4  -6 1528.20   19.06
   1  -4   6 1484.25   18.06
  -1   4  -7 1674.33   20.80
   1  -4   7 1697.00   20.71
   1  -4   8    1.26    3.92
   1  -4   8   11.39    3.27
  -1   4  -8    2.64    4.31
  -1   4  -8    3.77    5.23
  -1   4  -9 1027.46   22.47
   1  -4   9 1045.82   19.40
  -1   4  -9 1074.02   19.11
  -1   4 -10  528.95   14.96
  -1   4 -10  518.34   17.74
   1  -4  10  569.88   15.84
   1  -4  10  517.43   15.02
   1  -4  11   38.07    7.11
  -1   4 -11   43.57    7.93
  -1   4 -11   34.77    6.51
   1  -4  12  287.82   13.43
   1  -3 -12  634.95   19.12
  -1   3  12  657.06   19.50
  -1   3  11  149.66    9.80
   1  -3 -11  125.46   10.19
   1  -3 -10  195.06    7.94
   1  -3 -10  182.47   10.66
   1  -3  -9  885.93   15.10
  -1   3   9  862.88   18.05
   1  -3  -9  877.74   19.15
   1  -3  -8  167.77    6.91
  -1   3   8  165.27    8.38
  -1   3   8  169.82    8.86
   1  -3  -7  892.53   13.95
  -1   3   7  945.14   10.64
  -1   3   7  935.39   16.07
  -1   3   7  954.41   17.93
   1  -3  -7  857.76   10.21
   1  -3  -7  914.15    8.88
   1  -3  -6 1872.06   18.99
  -1   3   6 1924.29   15.45
  -1   3   6 1901.41   23.51
   1  -3  -6 1853.51   15.04
  -1   3   6 1846.51   20.49
   1  -3  -6 1941.12   11.46
   1  -3  -5  310.85    4.45
  -1   3   5  302.07    9.58
  -1   3   5  300.37    8.21
  -1   3   5  319.25    6.69
   1  -3  -5  315.76    7.93
   1  -3  -5  309.25    6.60
  -1   3   4 3255.07   20.57
   1  -3  -4 3262.90   22.67
   1  -3  -4 3222.73   13.18
   1  -3  -4 3285.38   21.05
  -1   3   4 3213.64   26.48
  -1   3   4 3195.31   21.98
   1  -3  -3 1956.29   10.62
  -1   3   3 1887.74   15.07
  -1   3   3 1947.78   16.14
   1  -3  -3 1918.75   16.79
   1  -3  -3 2027.53   16.83
   1  -3  -3 2045.43   15.64
  -1   3   3 1942.12   19.50
   1  -3  -2  171.75    3.84
  -1   3   2  170.60    5.44
   1  -3  -2  166.20    5.34
  -1   3   2  170.68    6.23
   1  -3  -2  180.29    3.61
  -1   3   2  171.78    3.75
  -1   3   1 3675.95   23.87
   1  -3  -1 3677.10   22.50
   1  -3  -1 3678.35   18.32
  -1   3   1 3743.76   18.77
  -1   3   1 3693.09   23.69
  -1   3   0 1397.90   15.41
  -1   3   0 1399.81    9.21
   1  -3   0 1365.78   13.93
  -1   3   0 1398.69   14.21
   1  -3   0 1427.50    9.53
   1  -3   0 1405.35   12.70
  -1   3  -1   84.27    4.41
  -1   3  -1   87.72    3.08
   1  -3   1   76.11    3.91
   1  -3   1   90.79    4.45
   1  -3   1   92.91    4.40
   1  -3   2 4721.81   28.06
  -1   3  -2 4786.15   29.82
  -1   3  -2 4663.18   22.73
   1  -3   2 4883.66   24.07
   1  -3   2 4811.21   26.45
  -1   3  -2 4704.25   25.49
   1  -3   3 1748.81   16.55
  -1   3  -3 1777.09   15.83
  -1   3  -3 1748.70   16.40
   1  -3   4 1237.67   14.22
   1  -3   4 1253.54   17.20
  -1   3  -4 1288.32   13.93
  -1   3  -4 1332.20   16.39
   1  -3   4 1289.72   13.14
   1  -3   5 1508.36   15.78
  -1   3  -5 1497.83   19.52
  -1   3  -5 1462.61   15.73
   1  -3   6  107.99    5.71
   1  -3   6  128.94    7.87
  -1   3  -6  128.58    5.94
   1  -3   7 2056.85   22.30
  -1   3  -7 2015.91   20.83
   1  -3   8  794.99   14.48
   1  -3   8  763.59   15.12
  -1   3  -8  791.87   14.41
  -1   3  -9   65.43    6.02
   1  -3   9   59.69    5.33
   1  -3   9   60.90    6.21
  -1   3 -10 1198.79   20.13
   1  -3  10 1284.43   21.02
   1  -3  10 1245.12   21.97
   1  -3  10 1281.55   20.30
  -1   3 -10 1198.41   24.82
  -1   3 -11  564.57   15.41
  -1   3 -11  584.13   18.78
   1  -3  11  588.65   17.00
  -1   3 -12   52.70    9.06
   1  -3  12   61.22    7.90
  -1   3 -12   47.90    6.92
   1  -2 -13  186.28   12.34
   1  -2 -12  235.97   12.41
  -1   2  12  245.59   13.01
   1  -2 -11 1060.96   22.12
  -1   2  11 1080.20   22.32
  -1   2  10  323.57   12.57
   1  -2 -10  338.32   12.92
   1  -2  -9  232.15   10.11
   1  -2  -9  235.88    7.57
   1  -2  -8 1428.11   21.80
   1  -2  -8 1412.82   16.40
  -1   2   8 1387.17   20.46
   1  -2  -7 1012.34   13.28
   1  -2  -7  967.73   10.97
  -1   2   7 1022.23   16.50
  -1   2   7 1016.14   10.24
   1  -2  -7  983.55   10.37
   1  -2  -7 1018.50   17.40
  -1   2   6 1340.54   17.13
  -1   2   6 1358.36   18.83
   1  -2  -6 1323.50   14.22
   1  -2  -6 1345.14   11.81
  -1   2   6 1375.68   11.79
   1  -2  -6 1357.90   11.73
  -1   2   5 4252.87   27.41
   1  -2  -5 4355.05   24.10
  -1   2   5 4321.43   30.72
   1  -2  -5 4398.22   20.78
  -1   2   5 4306.81   20.76
   1  -2  -4  449.53    7.53
  -1   2   4  445.27    8.33
  -1   2   4  442.28    6.81
  -1   2   4  456.00    9.81
   1  -2  -3 1616.65   12.94
  -1   2   3 1725.04   13.46
   1  -2  -3 1560.57   13.05
  -1   2   3 1556.08   12.56
  -1   2   3 1548.33   15.87
   1  -2  -3 1689.20   13.71
   1  -2  -3 1568.68    9.47
  -1   2   3 1537.91   13.05
  -1   2   2 3006.66   20.12
  -1   2   2 2917.87   15.22
   1  -2  -2 3100.77   20.48
  -1   2   2 2980.97   17.49
   1  -2  -2 3014.61   17.23
   1  -2  -2 3019.12   13.01
   1  -2  -2 3025.43   17.97
  -1   2   1   43.07    2.59
  -1   2   1   45.30    3.08
   1  -2  -1   39.49    1.90
   1  -2  -1   41.94    1.86
   1  -2  -1   42.77    3.04
  -1   2   1   36.59    2.20
   1  -2  -1   35.61    2.96
   1  -2  -1   37.27    3.10
   1  -2  -1   37.66    2.26
  -1   2   1   39.92    3.22
  -1   2   0 2470.29   15.63
   1  -2   0 2441.35   14.35
  -1   2   0 2424.76   16.74
   1  -2   0 2465.98   15.67
   1  -2   0 2513.77   15.24
  -1   2   0 2459.29   11.34
   1  -2   0 2529.28   11.76
  -1   2   0 2319.38   14.37
  -1   2   0 2668.52   15.88
   1  -2   0 2495.47   17.36
  -1   2  -1 3309.30   15.17
   1  -2   1 3239.65   16.75
  -1   2  -1 3381.01   20.74
   1  -2   1 3461.52   21.02
   1  -2   1 3357.36   15.35
   1  -2   1 3275.94   18.85
  -1   2  -1 3302.38   19.42
   1  -2   1 3399.34   18.72
  -1   2  -1 3249.95   17.41
  -1   2  -2 1862.81   14.14
  -1   2  -2 1811.24   16.22
  -1   2  -2 1698.71   15.57
   1  -2   2 1697.08   15.18
   1  -2   2 1725.07   13.71
   1  -2   2 1769.31   15.96
  -1   2  -2 1697.57   13.08
   1  -2   2 1777.73   11.96
   1  -2   3 7641.93   30.07
  -1   2  -3 7052.62  124.45
  -1   2  -3 7429.45   26.61
   1  -2   3 7879.39  105.87
   1  -2   3 7595.17   34.91
   1  -2   3 8182.45  105.50
   1  -2   4  769.27   12.65
  -1   2  -4  776.77    9.42
   1  -2   4  802.82    9.39
   1  -2   4  742.92    9.82
   1  -2   5  992.28   12.62
   1  -2   5 1020.00   15.57
  -1   2  -6 2276.45   18.87
   1  -2   6 2252.23   20.70
   1  -2   7  176.70    6.90
  -1   2  -7  204.59    7.02
   1  -2   7  186.74    7.66
   1  -2   7  201.25    8.99
   1  -2   8  354.22   10.18
  -1   2  -8  353.45    9.61
   1  -2   8  339.17   10.26
   1  -2   9  771.06   15.42
  -1   2  -9  789.92   14.79
   1  -2   9  781.78   14.62
   1  -2   9  813.97   16.52
   1  -2  10   32.71    6.22
   1  -2  10   32.03    4.36
   1  -2  10   34.60    4.85
  -1   2 -10   26.50    5.16
   1  -2  11  483.13   13.66
  -1   2 -11  449.72   13.48
   1  -2  11  453.93   14.87
  -1   2 -12  404.21   13.72
   1  -2  12  422.76   15.65
  -1   2 -12  398.61   16.14
   1  -2  13   57.37    8.52
   1  -1 -13  275.95   13.51
  -1   1  12  322.13   14.29
   1  -1 -12  276.17   12.87
   1  -1 -11    9.57    5.51
  -1   1  11    8.95    6.58
   1  -1 -10  341.86   12.26
  -1   1  10  378.18   13.20
  -1   1   9  196.49    9.60
   1  -1  -9  188.20    9.02
   1  -1  -9  204.72    6.52
  -1   1   8  110.13    7.27
   1  -1  -8  103.15    6.98
  -1   1   8  113.64    4.02
   1  -1  -8   96.83    4.65
  -1   1   7 2674.70   16.85
   1  -1  -7 2706.03   19.45
  -1   1   7 2682.80   25.83
   1  -1  -7 2657.06   26.47
  -1   1   6  577.65    7.73
   1  -1  -6  590.09    8.18
   1  -1  -6  564.07    8.72
  -1   1   6  560.63   11.39
   1  -1  -6  570.52   11.86
   1  -1  -6  573.55    8.56
  -1   1   5 3116.95   16.90
   1  -1  -5 3119.75   17.89
   1  -1  -5 3072.62   24.40
  -1   1   5 3097.47   23.03
   1  -1  -4 6195.00   22.71
  -1   1   4 5946.83   31.39
  -1   1   4 6163.33   28.76
  -1   1   4 6037.50   90.47
   1  -1  -4 6315.28   91.25
   1  -1  -3  412.37    6.79
  -1   1   3  379.48    6.61
   1  -1  -3  387.56    5.69
  -1   1   3  408.15    5.84
  -1   1   3  390.46    5.43
   1  -1  -3  381.83    5.37
  -1   1   3  409.23    7.82
   1  -1  -3  416.69    7.75
   1  -1  -2 6012.05   81.91
  -1   1   2 5567.05   78.84
  -1   1   2 6237.16   77.25
   1  -1  -2 5675.33   24.45
  -1   1   2 5450.46   20.23
   1  -1  -2 5557.16   80.84
   1  -1  -2 5945.34   75.85
  -1   1   2 5453.74   93.23
   1  -1  -1 1255.53    8.03
  -1   1   1 1236.38    9.57
   1  -1  -1 1327.45   10.14
   1  -1  -1 1338.57    8.98
  -1   1   1 1272.39    7.90
   1  -1  -1 1258.99    9.90
   1  -1  -1 1310.17    7.25
  -1   1   1 1291.58   10.14
  -1   1   1 1398.23    9.03
  -1   1   1 1274.45    7.15
  -1   1   0  727.00    7.54
  -1   1   0  759.22    6.87
  -1   1   0  709.23    5.69
   1  -1   0  713.71    7.51
  -1   1   0  717.71    6.59
  -1   1   0  681.87    6.61
   1  -1   0  742.49    5.83
   1  -1   0  711.99    6.75
   1  -1   0  700.27    6.49
   1  -1   0  722.29    6.38
   1  -1   1   20.49    2.48
   1  -1   1   14.78    2.11
  -1   1  -1   15.89    1.88
   1  -1   1   21.66    1.68
  -1   1  -1   14.64    1.87
  -1   1  -1   14.30    1.86
  -1   1  -1   14.23    2.12
   1  -1   1   21.27    1.85
   1  -1   1   16.35    2.09
  -1   1  -2 3892.36   17.59
  -1   1  -2 3802.75   19.93
   1  -1   2 3752.10   18.59
   1  -1   2 3851.70   52.49
   1  -1   2 3829.20   17.22
  -1   1  -2 3766.46   18.81
  -1   1  -2 3648.35   53.29
   1  -1   2 3719.56   19.42
  -1   1  -2 3745.22   18.09
   1  -1   2 3692.55   56.00
   1  -1   3   48.42    2.25
  -1   1  -3   47.19    3.07
   1  -1   3   45.78    2.90
  -1   1  -3   46.46    2.40
  -1   1  -3   52.72    2.86
  -1   1  -3   51.93    3.72
   1  -1   3   44.75    3.03
  -1   1  -3   47.04    3.69
   1  -1   4 1400.05   15.02
   1  -1   4 1364.51   12.83
  -1   1  -4 1472.18   11.39
  -1   1  -4 1491.75   12.70
   1  -1   4 1463.48   11.34
   1  -1   4 1365.97   12.77
   1  -1   5  150.33    4.81
  -1   1  -5  140.50    4.53
   1  -1   5  138.50    5.43
   1  -1   5  148.07    4.50
   1  -1   5  142.59    5.96
  -1   1  -6 1485.99   14.81
   1  -1   6 1507.90   17.23
   1  -1   6 1499.18   16.99
   1  -1   6 1535.70   18.72
   1  -1   7 2799.62   25.37
  -1   1  -7 2778.54   22.25
   1  -1   7 2790.33   25.91
   1  -1   8  703.72   14.14
  -1   1  -8  723.82   12.73
   1  -1   8  707.73   14.37
   1  -1   8  707.35   11.73
   1  -1   9  845.18   13.08
   1  -1   9  870.62   17.11
   1  -1   9  890.75   16.80
  -1   1  -9  873.49   15.17
   1  -1  10 1566.19   24.22
   1  -1  10 1527.08   23.05
  -1   1 -10 1588.16   21.81
   1  -1  11   29.34    5.13
   1  -1  11   28.23    6.56
  -1   1 -11   22.70    5.41
   1  -1  12  281.67   11.56
  -1   1 -12  274.79   11.66
   1  -1  12  261.47   12.86
  -1   1 -13  505.25   16.20
   1  -1  13  477.77   17.65
   1   0 -13   51.00    7.90
  -1   0  12  834.36   21.17
   1   0 -12  869.29   21.00
  -1   0  11 1254.77   24.06
   1   0 -11 1170.41   22.39
   1   0 -10    3.45    5.29
  -1   0  10    4.87    4.94
  -1   0   9  400.23    7.77
   1   0  -9  378.38   11.97
  -1   0   9  392.52   12.32
   1   0  -9  410.89    8.13
   1   0  -8  777.75   15.28
  -1   0   8  781.63   15.53
   1   0  -8  814.21   10.82
  -1   0   8  775.84   10.27
  -1   0   7   62.51    5.71
  -1   0   7   59.15    3.35
   1   0  -7   71.95    3.63
   1   0  -7   64.95    5.76
  -1   0   6 1633.31   18.46
   1   0  -6 1670.43   13.21
  -1   0   6 1653.83   13.65
   1   0  -6 1663.99   18.72
   1   0  -5   24.07    3.93
  -1   0   5   22.95    2.19
   1   0  -5   27.53    2.53
  -1   0   5   23.99    3.34
   1   0  -5   24.27    2.06
   1   0  -4  464.48    8.59
   1   0  -4  502.56    7.30
   1   0  -4  492.61    8.40
  -1   0   4  475.59    6.64
  -1   0   4  478.00    8.45
   1   0  -4  494.10    5.62
  -1   0   3 1010.57   10.44
   1   0  -3 1053.88    9.38
   1   0  -3  992.69   10.89
   1   0  -3 1029.34    6.40
   1   0  -3 1051.70   10.31
   1   0  -3 1090.48   11.45
  -1   0   3  990.24    8.70
  -1   0   2   74.24    2.65
   1   0  -2   84.18    3.38
   1   0  -2   78.73    1.63
  -1   0   2   74.20    1.64
   1   0  -2   71.33    3.21
   1   0  -2   74.29    2.62
  -1   0   1 5029.48   65.39
   1   0  -1 5308.78   68.64
  -1   0   1 5251.88   66.30
   1   0  -1 5462.10   68.24
   1   0  -1 4912.25   63.85
   1   0  -1 5385.20   44.99
  -1   0   0 6957.68   67.27
   1   0   0 6705.36   70.57
   1   0   1  523.25    4.94
  -1   0  -1  529.37    4.07
  -1   0  -1  516.56    4.89
  -1   0  -1  546.49    5.14
   1   0   1  533.52    4.07
  -1   0  -1  521.75    5.26
  -1   0  -2 3874.81   16.86
  -1   0  -2 3999.52   41.96
  -1   0  -2 3931.21   60.27
   1   0   2 3860.54   59.84
   1   0   2 4053.04   43.52
  -1   0  -2 3868.20   54.54
  -1   0  -2 3819.86   16.46
   1   0   2 3851.38   55.23
   1   0   2 3791.79   16.29
  -1   0  -3 6805.56   77.57
   1   0   3 6494.50   97.96
  -1   0  -3 6619.60   78.40
  -1   0  -3 6686.70  100.24
   1   0   3 6460.03   24.26
  -1   0  -3 6779.58   97.10
   1   0   3 6767.61   79.57
  -1   0  -4  244.60    5.00
   1   0   4  245.06    5.94
  -1   0  -4  254.84    5.89
   1   0   4  260.15    5.00
  -1   0  -4  249.36    5.71
   1   0   4  242.76    4.22
   1   0   4  256.47    6.24
   1   0   5 2238.18   13.26
   1   0   5 2115.15   18.51
   1   0   5 2125.80   19.42
  -1   0  -5 2204.16   15.93
   1   0   5 2222.74   18.62
   1   0   6  311.25    8.22
   1   0   6  329.83    5.58
  -1   0  -6  316.85    7.32
   1   0   6  308.78    8.30
   1   0   6  320.38    8.82
   1   0   7   27.49    3.98
   1   0   7   26.72    2.52
   1   0   7   28.55    4.23
   1   0   7   41.60    2.59
  -1   0  -7   28.93    3.90
   1   0   7   27.67    4.31
   1   0   8  900.63   16.24
   1   0   8  859.53   15.77
   1   0   8  860.84   10.30
  -1   0  -8  883.70   14.21
  -1   0  -9  170.83    7.78
   1   0   9  183.72    5.13
   1   0   9  174.52    8.49
   1   0   9  173.15    8.72
   1   0  10 1209.45   20.80
  -1   0 -10 1240.27   19.25
   1   0  10 1213.36   21.39
   1   0  11 1141.21   21.98
  -1   0 -11 1171.56   20.30
   1   0  11 1139.88   21.29
   1   0  12    6.43    5.47
   1   0  12    3.77    4.58
  -1   0 -12    9.00    4.95
  -1   0 -13  620.37   17.60
   1   0  13  647.32   19.56
  -1   0 -14  523.88   17.06
   1   1 -13  413.24   16.07
   1   1 -12   20.23    7.24
  -1  -1  12   29.00    7.37
   1   1 -11  856.14   19.48
  -1  -1  11  863.14   20.02
   1   1 -10  916.86   18.78
  -1  -1  10  895.10   19.17
  -1  -1   9    1.61    2.48
   1   1  -9    3.12    4.37
  -1  -1   9    4.77    5.18
  -1  -1   8 1581.05   21.73
  -1  -1   8 1570.95   16.38
   1   1  -8 1572.58   21.08
  -1  -1   7 2820.83   21.27
  -1  -1   7 2802.73   26.44
   1   1  -7 2775.08   25.67
   1   1  -6   34.46    4.02
  -1  -1   6   28.44    2.99
  -1  -1   6   24.25    4.13
   1   1  -5 2444.50   20.42
  -1  -1   5 2481.95   18.64
  -1  -1   5 2517.05   20.92
  -1  -1   4 1822.31   15.21
   1   1  -4 1862.65    8.75
  -1  -1   3  717.10    8.92
   1   1  -3  702.19    8.18
   1   1  -3  667.99    4.20
  -1  -1   3  664.85    8.80
   1   1  -3  697.02    8.93
   1   1  -2 1828.53    9.92
  -1  -1   2 1859.70   12.26
   1   1  -2 1808.08   12.03
   1   1  -2 1839.85   13.67
  -1  -1   1 1760.84    9.68
   1   1  -1 1692.58   11.59
  -1  -1   1 1645.22   11.21
   1   1  -1 1715.92    9.63
   1   1   0 2616.56   12.21
   1   1   0 2796.94   38.78
  -1  -1  -1 5593.62   55.91
   1   1   1 5619.38   57.20
   1   1   2 1050.39    8.74
  -1  -1  -2 1002.19    7.46
  -1  -1  -2 1009.29    7.87
   1   1   2 1029.10    7.52
   1   1   2 1003.29    6.53
  -1  -1  -2 1052.38    8.76
  -1  -1  -2 1014.01    6.61
   1   1   3 6454.58   91.49
  -1  -1  -3 6549.08   25.36
   1   1   3 6437.89  100.70
   1   1   3 6453.25  112.54
   1   1   3 6465.43   80.30
  -1  -1  -3 6322.46   78.17
   1   1   4 6497.83   96.92
  -1  -1  -4 7059.87   27.73
   1   1   4 6647.65   27.26
   1   1   4 6579.61   29.42
  -1  -1  -4 7042.71   29.96
   1   1   4 6634.69   32.88
  -1  -1  -4 6616.88   23.82
   1   1   5  123.13    2.16
   1   1   5  119.66    2.01
  -1  -1  -5  137.02    4.34
   1   1   5  128.20    5.60
  -1  -1  -5  134.58    4.86
   1   1   5  129.93    5.93
  -1  -1  -6 3368.88   21.39
   1   1   6 3234.13   25.24
   1   1   6 3328.51   22.44
   1   1   6 3250.90   27.50
   1   1   6 3058.32   11.06
   1   1   6 3152.57   11.47
  -1  -1  -6 3282.85   23.06
   1   1   7 3419.15   28.22
  -1  -1  -7 3419.82   25.81
   1   1   7 3489.06   30.28
   1   1   7 3332.48   12.73
   1   1   7 3300.10   12.52
   1   1   8  158.32    7.81
  -1  -1  -8  143.95    7.03
   1   1   8  151.02    2.96
   1   1   8  137.08    2.93
   1   1   8  141.63    7.74
   1   1   9 1187.26   19.75
   1   1   9 1255.84   20.62
  -1  -1  -9 1233.91   18.33
  -1  -1 -10  299.34   10.54
   1   1  10  321.77   11.63
   1   1  10  288.52   11.58
   1   1  11  321.12   13.23
   1   1  11  328.33   12.32
  -1  -1 -11  307.13   11.54
  -1  -1 -12  490.57   14.90
   1   1  12  529.94   16.47
   1   1  13   -6.65    7.62
  -1  -1 -13    5.75    5.33
  -1  -1 -14  226.40   12.09
   1   2 -13    4.63    6.87
   1   2 -12  564.83   17.75
  -1  -2  12  557.06   18.20
   1   2 -11  255.29   11.64
  -1  -2  11  275.27   12.67
   1   2 -10  236.77   10.59
  -1  -2  10  232.46   11.03
  -1  -2   9 1165.83   20.41
  -1  -2   9 1209.95   16.75
   1   2  -9 1189.74   19.84
  -1  -2   8   13.03    3.57
  -1  -2   8   16.63    4.98
   1   2  -7 1883.03   21.35
  -1  -2   7 1858.96   21.95
  -1  -2   6 1947.13   17.78
  -1  -2   6 1991.41   20.38
   1   2  -6 1935.22   19.94
  -1  -2   6 1933.67   20.55
  -1  -2   5    6.45    2.09
   1   2  -5    5.94    3.14
   1   2  -5    5.86    1.33
  -1  -2   4 3191.54   24.07
   1   2  -4 3220.32   21.48
  -1  -2   3 2524.49   20.38
   1   2  -3 2542.78   17.33
   1   2  -3 2692.39   11.79
  -1  -2   3 2482.49   11.39
  -1  -2   3 2463.19   12.32
  -1  -2   3 2768.53   17.89
  -1  -2   2  105.20    2.48
   1   2  -2  101.47    3.87
  -1  -2   2  120.23    3.84
  -1  -2   2  127.94    5.00
   1   2  -2  113.66    2.53
  -1  -2   1 7260.84   91.61
   1   2  -1 6861.07   91.41
   1   2  -1 7011.11   73.85
  -1  -2   1 7238.25   74.01
   1   2   0 7998.29   86.32
  -1  -2   0 7900.97   83.95
   1   2   0 8048.16   94.55
  -1  -2   0 8074.33   93.13
   1   2   1  668.93    7.11
   1   2   1  674.06    6.87
  -1  -2  -1  663.72    7.21
  -1  -2  -1  685.21    7.31
  -1  -2  -1  673.43    4.12
  -1  -2  -2 4386.08   19.61
  -1  -2  -2 4481.47   21.15
  -1  -2  -2 4435.55   21.93
   1   2   2 4391.96   19.63
  -1  -2  -2 4439.18   19.60
  -1  -2  -2 4365.87   55.38
  -1  -2  -3  166.66    2.33
  -1  -2  -3  167.61    4.96
  -1  -2  -3  157.98    4.75
   1   2   3  145.59    4.62
   1   2   3  157.10    2.41
  -1  -2  -3  175.34    2.65
   1   2   3  144.79    5.46
  -1  -2  -3  146.35    2.36
  -1  -2  -3  167.15    5.44
   1   2   3  151.36    4.88
  -1  -2  -4 5038.37   64.09
   1   2   4 5205.66   68.44
   1   2   4 5150.08   26.85
   1   2   4 5012.97   25.86
   1   2   4 5100.09   30.40
   1   2   5 1096.17   15.70
   1   2   5 1116.85    9.87
  -1  -2  -5 1150.17    9.31
   1   2   5 1106.29   14.38
   1   2   5 1142.72   13.89
   1   2   6   65.47    4.86
   1   2   6   62.12    5.16
   1   2   6   66.13    5.20
  -1  -2  -6   67.14    3.15
  -1  -2  -7 1250.90   12.71
   1   2   7 1258.67   17.84
   1   2   7 1271.15   19.20
  -1  -2  -7 1251.56   16.82
   1   2   8 2160.79   24.89
   1   2   8 2178.50   26.40
  -1  -2  -8 2174.14   23.53
   1   2   9   13.49    4.97
   1   2   9   21.47    5.18
   1   2  10 1916.90   27.04
   1   2  10 1923.55   27.46
   1   2  11 1336.43   24.43
  -1  -2 -11 1357.75   20.02
   1   2  12   19.54    7.53
  -1  -2 -12   17.17    5.61
   1   2  13  546.42   18.31
  -1  -2 -13  562.20   16.79
  -1  -2 -14  178.94   11.15
  -1  -3  12   62.36    9.10
   1   3 -12   49.62    7.58
   1   3 -11  771.70   19.05
  -1  -3  11  764.67   19.51
  -1  -3  10  493.61   14.82
   1   3 -10  483.20   14.58
  -1  -3  10  521.81   13.03
  -1  -3   9  172.56    9.42
  -1  -3   9  188.82    8.14
   1   3  -9  173.17    9.29
  -1  -3   8 2070.84   24.30
   1   3  -8 2034.96   24.52
  -1  -3   8 2037.87   25.18
   1   3  -7  625.88   13.28
   1   3  -7  663.63    9.00
  -1  -3   7  652.19   14.00
  -1  -3   7  654.47   13.83
  -1  -3   7  621.56   10.58
   1   3  -6  686.02   12.85
  -1  -3   6  690.62   10.13
  -1  -3   6  717.92   14.29
   1   3  -5 2036.29   19.64
  -1  -3   5 2059.17   15.16
   1   3  -4    4.26    1.49
  -1  -3   4    8.32    1.55
   1   3  -4    1.51    2.81
  -1  -3   4    1.33    1.56
  -1  -3   3 1439.27    8.73
   1   3  -3 1463.75   14.45
  -1  -3   3 1473.30   11.42
  -1  -3   2 2190.09   13.78
   1   3  -2 2216.73   16.83
  -1  -3   1    3.47    1.71
   1   3  -1    2.69    2.96
   1   3  -1    5.63    1.74
  -1  -3   0 3515.55   17.88
   1   3   0 3689.26   20.39
   1   3   0 3810.03   18.76
  -1  -3   0 3762.94   20.19
  -1  -3   0 3578.69   51.83
   1   3   0 3529.21   19.13
   1   3   1  155.92    5.05
  -1  -3  -1  163.65    4.59
   1   3   1  159.60    4.31
  -1  -3  -2  219.12    4.86
   1   3   2  211.52    5.85
  -1  -3  -2  217.47    5.57
  -1  -3  -2  216.78    2.65
  -1  -3  -2  219.26    5.32
   1   3   2  226.46    5.41
   1   3   3 5098.91   27.57
  -1  -3  -3 5023.29   26.88
  -1  -3  -3 5333.97   26.05
  -1  -3  -3 5381.12   28.19
   1   3   3 5024.05   26.72
  -1  -3  -3 5139.01   69.88
  -1  -3  -3 5027.91   19.65
  -1  -3  -3 5441.46   27.75
   1   3   4 2708.08   22.88
   1   3   4 2720.14   20.56
  -1  -3  -4 2736.72   21.34
   1   3   4 2710.52   21.32
   1   3   5  459.74   10.88
   1   3   5  468.00    9.95
  -1  -3  -5  450.45    9.88
  -1  -3  -5  457.46    4.09
  -1  -3  -5  435.15    3.88
   1   3   5  474.85    9.93
  -1  -3  -6 1848.70   10.42
   1   3   6 1849.52   20.44
   1   3   6 1821.96   20.05
   1   3   6 1852.34   22.33
  -1  -3  -7  519.31   11.65
   1   3   7  514.32   12.06
   1   3   7  512.42   12.02
   1   3   7  525.94   13.10
  -1  -3  -7  526.56    6.79
  -1  -3  -8  465.99   11.57
   1   3   8  478.81   12.45
   1   3   8  495.24   13.63
   1   3   8  492.09   12.66
  -1  -3  -9 1082.99   17.67
   1   3   9 1103.62   19.74
  -1  -3  -9 1060.24   18.70
  -1  -3 -10    5.12    5.35
  -1  -3 -10    1.50    4.00
   1   3  10    8.04    6.26
  -1  -3 -11 1419.31   21.15
   1   3  11 1372.23   24.50
  -1  -3 -11 1359.06   23.38
  -1  -3 -12  461.85   15.07
   1   3  12  444.23   15.96
   1   3  13   83.00   10.02
  -1  -3 -13   71.76    8.65
  -1  -3 -14  448.39   16.60
  -1  -3 -14  408.88   15.99
   1   4 -12  205.40   12.05
   1   4 -11   39.94    7.42
  -1  -4  11   38.95    7.20
  -1  -4  10  776.89   18.87
   1   4 -10  761.04   18.26
   1   4  -9  173.69    9.40
  -1  -4   9  164.23    9.38
  -1  -4   9  191.00    9.30
   1   4  -8  461.05   12.90
  -1  -4   8  480.09   13.21
  -1  -4   8  471.22   13.77
  -1  -4   7 1552.66   15.24
  -1  -4   7 1533.25   23.13
  -1  -4   7 1537.65   21.14
  -1  -4   6  508.95    8.03
   1   4  -6  518.96   12.07
  -1  -4   6  521.97   13.54
  -1  -4   5 1395.73   13.73
  -1  -4   5 1417.44   11.65
   1   4  -5 1422.68   17.89
  -1  -4   4 2917.35   14.38
  -1  -4   4 2902.01   19.50
   1   4  -4 2874.38   23.78
  -1  -4   3  151.49    4.87
   1   4  -3  157.64    6.37
  -1  -4   2  484.93    8.07
   1   4  -2  496.01    9.51
   1   4  -1 3264.69   22.77
  -1  -4   1 3349.14   20.32
  -1  -4   0  791.57    7.37
  -1  -4   0  802.73   10.30
   1   4   0  788.41   10.88
   1   4   0  768.68   11.32
  -1  -4  -1  610.93    7.72
   1   4   1  607.81    8.38
  -1  -4  -1  593.61    9.29
   1   4   1  600.65   10.26
   1   4   2  900.62    8.29
   1   4   2  883.46   12.44
  -1  -4  -2  912.16   10.86
  -1  -4  -2  907.06   11.48
   1   4   3  224.60    2.79
   1   4   3  234.96    7.31
  -1  -4  -3  238.22    5.68
  -1  -4  -3  218.49    6.79
  -1  -4  -3  231.27    3.15
  -1  -4  -4 3279.12   25.37
   1   4   4 3278.98   25.73
  -1  -4  -4 3345.12   18.48
  -1  -4  -4 3280.19   15.97
  -1  -4  -5  766.49    8.15
  -1  -4  -5  789.41   13.40
   1   4   5  773.71   13.77
  -1  -4  -6 1472.52    9.74
   1   4   6 1437.86   19.33
  -1  -4  -6 1425.99   18.83
   1   4   6 1477.57   18.67
   1   4   7 2713.58   26.99
   1   4   7 2753.09   28.19
  -1  -4  -7 2656.51   26.59
   1   4   8  137.65    8.40
   1   4   8  125.26    8.12
  -1  -4  -8  126.24    7.17
   1   4   9  370.40   12.44
   1   4   9  363.78   12.49
  -1  -4  -9  374.46   11.48
   1   4  10 1242.11   22.57
   1   4  10 1171.68   21.90
  -1  -4 -10 1213.72   20.24
   1   4  11  154.72   10.34
  -1  -4 -11  152.49   10.08
  -1  -4 -11  171.13    8.95
  -1  -4 -12  271.36   10.79
   1   4  12  230.71   12.32
  -1  -4 -12  251.06   11.93
  -1  -4 -13  205.40   11.66
   1   4  13  210.29   12.97
  -1  -4 -14   -0.11    5.64
  -1  -5  11  548.46   17.61
   1   5 -11  501.73   17.14
   1   5 -10   10.32    6.21
  -1  -5  10    9.16    5.08
  -1  -5  10   14.18    6.24
  -1  -5   9  402.54   13.71
  -1  -5   9  421.17   14.46
   1   5  -9  390.22   13.63
  -1  -5   8  150.49    8.63
   1   5  -8  138.95    8.48
  -1  -5   8  144.88    9.32
   1   5  -7    4.31    5.18
  -1  -5   7    3.76    4.41
  -1  -5   7    8.70    4.13
   1   5  -6  590.93   13.85
  -1  -5   5  400.17    5.67
   1   5  -5  390.98   11.17
  -1  -5   5  376.34    8.49
  -1  -5   4 1415.41   15.73
   1   5  -4 1411.58   18.82
  -1  -5   4 1441.18    9.60
   1   5  -3 4100.10   30.37
  -1  -5   3 4150.68   26.51
   1   5  -2  115.97    5.95
  -1  -5   2  123.66    5.36
  -1  -5   1 3201.45   23.04
   1   5  -1 3206.19   25.88
  -1  -5   0 3613.10   24.67
   1   5   0 3600.63   12.91
   1   5   1  289.34    8.34
  -1  -5  -1  276.84    7.53
  -1  -5  -1  280.52    6.07
  -1  -5  -2 1770.36   18.50
   1   5   2 1807.91   19.80
  -1  -5  -3 2606.75   23.29
   1   5   3 2641.67   24.71
  -1  -5  -4  266.95    8.57
  -1  -5  -4  276.45    3.92
   1   5   4  273.43    9.08
  -1  -5  -5  544.61    7.20
  -1  -5  -5  516.34   11.87
  -1  -5  -5  507.18    8.47
   1   5   5  509.36   12.41
  -1  -5  -6  414.58    7.19
  -1  -5  -6  441.62   11.62
   1   5   6  443.61   12.20
   1   5   7  832.91   17.03
  -1  -5  -7  836.84   16.28
   1   5   8 1232.08   21.27
  -1  -5  -8 1215.74   20.21
   1   5   9   37.44    6.01
  -1  -5  -9   52.55    6.04
   1   5   9   37.05    6.37
   1   5  10  650.08   17.16
  -1  -5 -10  676.38   16.31
   1   5  11 1109.08   23.04
  -1  -5 -11 1134.74   21.27
   1   5  11 1145.53   23.59
  -1  -5 -12   37.13    6.00
  -1  -5 -12   45.80    6.10
  -1  -5 -12   44.11    7.25
   1   5  12   33.99    7.27
  -1  -5 -13  261.00   11.88
  -1  -5 -13  292.91   14.23
   1   6 -11  504.94   18.27
  -1  -6  10 1042.20   24.12
   1   6 -10  976.90   22.97
  -1  -6  10  999.78   22.52
   1   6  -9   19.90    6.73
  -1  -6   9   26.35    6.13
  -1  -6   9   36.07    6.90
   1   6  -8  524.75   15.59
  -1  -6   8  544.71   14.89
  -1  -6   8  552.46   17.32
   1   6  -7  883.49   18.76
  -1  -6   7  913.10   21.38
   1   6  -6   28.97    6.04
  -1  -6   6   34.45    3.98
   1   6  -5  896.06   17.41
  -1  -6   5  837.54   13.88
   1   6  -4  958.36   17.12
  -1  -6   4  976.98   14.81
  -1  -6   3  121.53    6.07
  -1  -6   2 1601.10   18.64
   1   6  -2 1615.30   21.21
  -1  -6   1    3.46    1.57
  -1  -6   1    3.99    3.46
   1   6  -1    2.89    1.70
   1   6   0 1614.53   20.54
   1   6   0 1612.37    7.83
   1   6   1 1919.89   22.31
  -1  -6  -1 1781.94   19.94
   1   6   2   25.11    2.89
  -1  -6  -2   22.27    4.77
   1   6   2   26.81    5.20
   1   6   3 2425.33   14.59
   1   6   3 2460.23   26.33
  -1  -6  -4 3458.54   30.64
   1   6   4 3580.39   32.35
  -1  -6  -5  195.62    3.52
  -1  -6  -5  194.26    9.00
   1   6   5  198.97    9.35
   1   6   6 1667.43   24.13
  -1  -6  -6 1651.02   23.27
  -1  -6  -7 1040.77   19.45
  -1  -6  -7 1086.84   12.59
   1   6   7 1086.44   20.59
  -1  -6  -8    1.44    4.99
  -1  -6  -8    2.37    2.86
   1   6   9  311.13   12.98
  -1  -6  -9  308.85    8.97
  -1  -6  -9  298.81   11.84
  -1  -6 -10  194.89   10.20
   1   6  10  217.31   11.66
   1   6  11  123.38    9.84
  -1  -6 -11  118.46    9.17
  -1  -6 -12  362.17   13.80
   1   6  12  347.38   15.54
   1   7 -10  281.83   15.47
  -1  -7  10  311.86   15.17
   1   7 -10  289.02   14.54
  -1  -7  10  292.82   13.66
  -1  -7   9  398.24   16.96
   1   7  -9  371.48   15.53
  -1  -7   9  353.97   13.99
   1   7  -9  367.44   15.96
  -1  -7   8    4.81    5.60
  -1  -7   8    0.72    4.95
   1   7  -8    0.95    5.97
   1   7  -7  468.15   15.57
  -1  -7   7  459.39   16.84
   1   7  -6 1044.86   20.94
  -1  -7   6 1040.41   17.22
  -1  -7   5   11.61    3.82
   1   7  -5   13.49    6.11
   1   7  -4 1416.17   23.00
  -1  -7   4 1361.42   19.24
   1   7  -4 1399.58   19.20
   1   7  -3 1578.79   23.49
   1   7  -3 1600.97   17.72
   1   7  -2   26.20    2.99
   1   7  -2   29.88    6.49
  -1  -7   2   27.02    4.30
   1   7  -1 1223.72    9.90
   1   7  -1 1216.46   20.05
  -1  -7   0  526.25   12.33
   1   7   0  527.81   13.83
  -1  -7  -1  188.98    8.10
   1   7   1  197.97    9.35
  -1  -7  -2  787.71   15.35
   1   7   2  801.39   16.54
   1   7   3   52.07    6.68
  -1  -7  -3   40.59    4.96
  -1  -7  -4  365.90   11.75
   1   7   4  388.14   12.69
   1   7   5 1108.91   20.48
  -1  -7  -5 1092.56   19.80
  -1  -7  -6    3.27    5.77
   1   7   6    4.87    4.92
   1   7   7 1645.76   26.51
  -1  -7  -7 1563.93   25.20
   1   7   8 1336.27   24.86
  -1  -7  -8 1373.77   24.36
  -1  -7  -9   62.00    7.32
   1   7   9   60.29    8.11
   1   7  10  694.02   19.91
  -1  -7 -10  689.08   18.80
  -1  -7 -11  624.77   18.41
   1   7  11  646.94   20.18
  -1  -7 -12   15.53    6.56
   1   8  -8  361.80   15.74
  -1  -8   8  372.89   16.86
  -1  -8   7   33.30    5.76
  -1  -8   7   44.72    7.93
  -1  -8   6  195.42    9.02
   1   8  -6  209.57   12.25
  -1  -8   5  643.20   15.04
   1   8  -5  617.22   17.88
  -1  -8   4   31.29    4.85
   1   8  -4   23.02    7.16
   1   8  -3  650.47   16.95
  -1  -8   3  653.68   14.95
   1   8  -2  297.53   12.06
  -1  -8   2  282.68   10.22
   1   8  -1   53.11    6.81
  -1  -8   1   59.49    5.95
   1   8   0 1091.32   20.58
  -1  -8   0  989.56   18.01
   1   8   1 1305.23   22.49
  -1  -8  -1 1230.44   20.29
   1   8   2   59.23    8.03
  -1  -8  -2   58.81    6.54
  -1  -8  -3 1388.06   22.52
   1   8   3 1428.19   24.30
  -1  -8  -4  543.90   15.02
   1   8   4  585.07   16.48
   1   8   5  199.55   10.84
  -1  -8  -5  184.86    9.84
  -1  -8  -6  696.27   18.21
   1   8   6  735.59   18.90
   1   8   7   11.98    5.73
  -1  -8  -7    8.21    5.75
   1   8   8  354.32   14.67
  -1  -8  -8  336.54   14.27
   1   8   9  330.25   14.26
  -1  -8  -9  310.26   13.79
   1   8  10   13.41    7.23
  -1  -8 -10    7.96    5.73
  -1  -8 -11  448.44   17.27
   1   9  -6  194.26   12.99
   1   9  -5  113.31   10.26
  -1  -9   5  103.37    7.55
   1   9  -4  876.85   21.83
  -1  -9   4  861.61   18.65
   1   9  -3  147.58   10.24
  -1  -9   3  166.85    9.33
   1   9  -2  340.46   14.24
  -1  -9   2  324.46   12.11
  -1  -9   1  432.03   13.56
   1   9  -1  450.56   15.46
  -1  -9   0   12.59    5.30
   1   9   0   10.40    5.47
  -1  -9  -1  472.42   14.28
   1   9   1  539.62   16.56
   1   9   2  367.02   14.46
  -1  -9  -2  359.34   13.02
  -1  -9  -3  224.88   10.85
   1   9   3  259.62   12.89
   1   9   4 1289.64   25.37
  -1  -9  -4 1231.22   23.77
   1   9   5  132.72   10.54
  -1  -9  -5  148.21   10.10
   1   9   6  381.00   15.47
  -1  -9  -6  350.79   14.19
  -1  -9  -7  756.24   20.39
   1   9   7  790.49   21.54
   1   9   8  267.85   13.87
  -1  -9  -8  272.31   13.61
  -1  -9  -9   58.33    8.84
  -1 -10   4  308.96   12.92
   1  10  -3  790.56   22.18
  -1 -10   3  746.26   19.13
   1  10  -2   51.19    8.72
  -1 -10   2   45.92    6.71
   1  10  -1  426.76   16.64
  -1 -10   1  389.01   14.37
  -1 -10   0  914.37   21.09
   1  10   0  988.05   23.79
   1  10   1  223.92   13.13
  -1 -10  -1  184.96   11.18
   1  10   2  150.84   11.22
  -1 -10  -2  148.55   10.24
  -1 -10  -3  427.59   15.32
   1  10   3  463.66   17.05
   1  10   4    6.92    7.63
  -1 -10  -4    6.45    5.23
   1  10   5  425.45   16.91
  -1 -10  -5  417.72   15.91
  -1 -10  -6   61.28    9.00
  -2   9   3   78.08    9.24
  -2   9   2  506.50   18.05
  -2   9   1  115.69   10.55
  -2   9   0  229.85   13.22
  -2   9  -1  427.05   16.80
  -2   9  -2   -1.91    6.86
  -2   9  -3  392.64   15.88
  -2   9  -4  127.59   10.30
   2  -8  -8    3.68    6.01
   2  -8  -7  323.67   14.73
   2  -8  -6  397.69   15.70
  -2   8   6  437.67   17.75
  -2   8   5  120.94   10.08
   2  -8  -5  109.78    9.71
  -2   8   4  677.65   19.79
   2  -8  -4  568.52   17.11
   2  -8  -3   63.06    7.72
  -2   8   3   52.91    7.16
  -2   8   2  310.07   13.67
   2  -8  -2  291.14   12.70
   2  -8  -1  836.46   19.93
  -2   8   1  906.43   21.23
  -2   8   0  218.79   11.64
   2  -8   0  158.00    9.90
   2  -8   1  489.42   13.96
  -2   8  -1  506.31   16.28
  -2   8  -2  896.62   21.02
   2  -8   2  936.30   19.66
   2  -8   3    4.19    5.49
  -2   8  -3    1.28    5.98
  -2   8  -4  361.62   14.44
   2  -8   4  322.12   13.57
  -2   8  -5  279.10   13.01
   2  -8   5  256.69   12.45
  -2   8  -6   13.56    6.22
  -2   8  -7  200.65   12.32
   2  -7  -9  414.45   15.61
   2  -7  -8  763.91   20.18
  -2   7   8  867.25   23.53
  -2   7   7   27.23    7.29
   2  -7  -7   30.33    6.83
  -2   7   6  960.58   22.95
   2  -7  -6  846.86   20.02
  -2   7   5  700.84   19.31
  -2   7   5  698.79   16.21
  -2   7   4   70.58    7.76
  -2   7   4   75.62    6.77
   2  -7  -4   59.58    6.65
   2  -7  -3  696.00   16.93
  -2   7   3  766.50   18.69
  -2   7   2  143.12    9.02
   2  -7  -2  127.72    8.55
  -2   7   1   93.83    8.00
   2  -7  -1   88.64    5.70
   2  -7  -1   80.85    6.74
   2  -7   0  494.88   12.35
  -2   7   0  483.65   14.49
   2  -7   1  179.07    9.64
  -2   7  -1  191.45    9.96
   2  -7   1  191.24    8.77
   2  -7   2  424.87   13.12
   2  -7   2  395.12   12.94
  -2   7  -2  427.38   13.74
   2  -7   3  772.11   17.94
   2  -7   3  779.28   17.97
  -2   7  -3  782.60   17.95
   2  -7   4    0.89    4.37
  -2   7  -4    2.84    5.19
   2  -7   4    3.13    5.28
   2  -7   5  915.90   21.42
   2  -7   5  899.76   19.62
  -2   7  -5  894.60   19.86
  -2   7  -6  801.95   19.40
  -2   7  -7    6.32    6.16
  -2   7  -8  329.37   14.48
  -2   6   9    7.13    6.90
   2  -6  -9    8.96    5.18
   2  -6  -8  286.13   12.02
  -2   6   8  328.48   14.75
   2  -6  -7  606.87   16.03
  -2   6   7  603.95   18.15
  -2   6   6    1.04    5.41
  -2   6   6    6.22    3.81
   2  -6  -6    1.74    5.06
  -2   6   5  969.71   17.17
  -2   6   5  924.65   20.23
  -2   6   4 1031.07   20.60
  -2   6   4  987.89   17.84
  -2   6   3   70.84    7.57
  -2   6   3   73.58    6.58
   2  -6  -3   87.23    4.41
   2  -6  -3   70.77    6.53
  -2   6   2 1927.24   25.96
   2  -6  -2 1899.72   18.72
  -2   6   2 1929.53   25.23
  -2   6   1 1412.22   22.37
   2  -6  -1 1433.02   17.62
  -2   6   1 1384.43   22.05
  -2   6   0    7.70    4.66
  -2   6   0    8.46    4.49
   2  -6   0    6.20    4.88
   2  -6   0    6.46    3.73
   2  -6   1 1403.86   19.69
  -2   6  -1 1384.91   21.26
   2  -6   2  560.35   13.62
   2  -6   2  512.66   13.51
  -2   6  -2  559.75    9.69
  -2   6  -2  530.19   13.53
   2  -6   3  106.55    7.37
  -2   6  -3   96.50    7.27
  -2   6  -3   93.69    5.01
   2  -6   3   94.77    7.05
  -2   6  -4  878.68   14.66
  -2   6  -4  845.04   17.11
   2  -6   4  867.53   18.55
  -2   6  -5   63.69    5.70
   2  -6   5   64.39    7.32
  -2   6  -5   55.80    6.63
   2  -6   5   48.00    6.25
   2  -6   6  597.77   17.36
  -2   6  -6  591.43   15.59
  -2   6  -6  605.80   14.88
   2  -6   7  427.68   15.57
  -2   6  -7  430.42   13.93
  -2   6  -7  410.85   13.79
  -2   6  -8   18.04    6.34
  -2   6  -8   13.26    5.89
  -2   6  -9  890.52   22.92
  -2   6 -10  487.31   19.19
  -2   5  11  438.58   15.88
  -2   5  10   66.74    9.49
  -2   5  10   72.28    7.97
   2  -5 -10   68.80    9.03
  -2   5   9  933.46   19.60
   2  -5  -9  943.22   19.13
  -2   5   9  959.85   23.15
  -2   5   8  643.31   18.29
  -2   5   8  663.17   15.67
   2  -5  -8  605.92   15.11
  -2   5   7   20.51    4.68
  -2   5   7   23.01    6.61
   2  -5  -7   25.58    4.97
  -2   5   6  573.40   15.73
   2  -5  -6  551.40   13.55
  -2   5   6  583.35   12.38
   2  -5  -5  186.67    8.22
  -2   5   5  207.45   10.00
  -2   5   5  210.72    8.01
  -2   5   4  720.98   14.21
   2  -5  -4  736.71    9.03
   2  -5  -3  998.76   16.84
  -2   5   3 1062.13   17.27
   2  -5  -3 1085.68   12.14
  -2   5   3 1021.38   18.46
   2  -5  -3 1049.09   11.80
   2  -5  -2   57.03    2.87
   2  -5  -2   52.49    3.93
   2  -5  -2   50.80    5.55
  -2   5   2   51.74    5.86
   2  -5  -2   51.08    3.13
  -2   5   2   48.89    5.40
   2  -5  -1 1758.17   10.50
  -2   5   1 1703.95   22.03
   2  -5  -1 1817.29   13.60
   2  -5  -1 1623.90   20.62
   2  -5  -1 1710.59   17.74
  -2   5   1 1758.27   22.55
  -2   5   0 1512.88   20.28
  -2   5   0 1478.30   21.21
  -2   5   0 1550.12   12.60
   2  -5   0 1457.38   19.86
   2  -5   0 1539.84    8.09
   2  -5   0 1494.13   17.74
   2  -5   1  395.42   10.33
   2  -5   1  397.48    4.34
  -2   5  -1  417.58   11.08
   2  -5   1  380.37   10.85
  -2   5  -1  402.02    7.44
  -2   5  -1  426.85   12.37
  -2   5  -2 2919.40   27.14
   2  -5   2 2973.53   13.90
   2  -5   2 2871.79   27.95
  -2   5  -2 3009.70   31.65
  -2   5  -2 2919.89   20.96
   2  -5   2 2939.54   27.85
   2  -5   3 1243.55   18.95
  -2   5  -3 1223.37   18.11
   2  -5   3 1261.80   19.66
   2  -5   3 1288.46   11.20
  -2   5  -3 1255.98   15.37
  -2   5  -4   36.37    5.38
  -2   5  -4   27.31    4.16
   2  -5   4   33.72    3.06
   2  -5   4   34.42    5.47
   2  -5   4   30.10    4.79
   2  -5   5 2049.90   27.69
  -2   5  -5 1898.28   23.53
   2  -5   5 1900.46   23.85
   2  -5   5 2007.88   18.35
  -2   5  -5 1976.85   23.11
   2  -5   6  937.46   14.04
  -2   5  -6  874.90   16.89
  -2   5  -6  904.59   17.56
   2  -5   6  929.55   19.96
   2  -5   7  157.87    9.77
   2  -5   7  137.97    6.84
  -2   5  -7  137.11    8.87
  -2   5  -8  452.93   15.21
   2  -5   8  476.37   12.46
   2  -5   8  471.19   16.32
  -2   5  -9    1.77    5.64
  -2   5 -10  353.18   16.16
  -2   5 -11  253.22   14.61
  -2   4  12    1.28    6.59
   2  -4 -11  488.32   18.14
  -2   4  11  522.24   17.03
   2  -4 -10  411.76   15.72
  -2   4  10  407.43   14.43
   2  -4  -9  184.17    8.44
  -2   4   9  211.31   10.60
   2  -4  -9  184.01   10.82
  -2   4   9  196.98   11.23
  -2   4   8 1692.68   27.17
  -2   4   8 1637.95   23.27
   2  -4  -8 1631.64   21.59
  -2   4   7  419.19    9.43
  -2   4   7  407.78   13.78
  -2   4   7  388.17   11.31
   2  -4  -7  416.95   11.01
  -2   4   6   47.97    4.87
  -2   4   6   54.17    6.76
  -2   4   6   44.29    4.15
   2  -4  -6   49.94    2.57
   2  -4  -6   47.25    4.75
  -2   4   5 1722.23   23.67
  -2   4   5 1737.49   18.83
  -2   4   5 1760.21   19.29
   2  -4  -5 1695.98   20.18
   2  -4  -4 1319.41   17.45
  -2   4   4 1305.23   14.70
  -2   4   4 1311.68   19.96
  -2   4   4 1343.81   17.17
   2  -4  -3  509.41    8.08
  -2   4   3  490.83   10.81
   2  -4  -3  492.35    7.83
  -2   4   3  476.63   11.95
   2  -4  -3  526.57    8.27
   2  -4  -3  445.33   10.37
  -2   4   2 2043.55   21.52
   2  -4  -2 1975.26   16.25
  -2   4   2 1949.41   21.96
   2  -4  -2 2109.92   13.49
   2  -4  -2 2105.82   15.08
  -2   4   2 1975.58   16.28
   2  -4  -2 1832.40   19.89
   2  -4  -1  247.60    7.88
   2  -4  -1  274.74    6.94
  -2   4   1  260.12    8.46
   2  -4  -1  274.19    3.94
  -2   4   1  265.24    8.64
  -2   4   0 1011.33   14.87
  -2   4   0  997.25   10.10
  -2   4   0 1024.26   16.23
   2  -4   0 1021.76   13.59
   2  -4   1  792.40    4.90
  -2   4  -1  867.82   15.43
  -2   4  -1  839.56   13.42
  -2   4  -1  882.56   10.44
   2  -4   1  799.57   13.54
   2  -4   1  899.67   10.64
   2  -4   1  861.84   13.24
   2  -4   2  488.10    5.35
  -2   4  -2  511.43   12.23
  -2   4  -2  493.39   10.49
   2  -4   2  528.15   11.41
   2  -4   2  463.80   10.61
  -2   4  -2  470.39    8.43
  -2   4  -3 2090.13   20.87
   2  -4   3 2078.58   23.20
  -2   4  -3 2120.27   19.37
   2  -4   3 2126.35   22.31
  -2   4  -3 2213.60   25.07
   2  -4   3 2172.36   13.84
   2  -4   4  434.97    7.65
  -2   4  -4  432.67   10.03
   2  -4   4  460.51   12.11
  -2   4  -4  439.38   10.32
   2  -4   4  424.31   10.66
   2  -4   5  345.36   11.34
  -2   4  -5  363.64   10.48
   2  -4   5  367.21    8.03
   2  -4   6 1650.78   18.20
   2  -4   6 1670.80   24.74
  -2   4  -6 1639.87   22.86
   2  -4   7  995.94   15.69
  -2   4  -7  990.43   19.49
  -2   4  -7 1006.32   16.32
   2  -4   7 1025.49   20.33
   2  -4   8  261.17   11.61
   2  -4   8  244.10    9.20
  -2   4  -8  243.05    9.33
  -2   4  -8  228.34   11.21
   2  -4   9 1328.22   25.39
   2  -4   9 1317.73   21.08
  -2   4  -9 1270.99   20.63
   2  -4  10  369.38   12.92
  -2   4 -10  340.72   14.78
  -2   4 -11   44.08    8.11
   2  -4  11   39.67    6.58
   2  -4  12  279.31   13.09
  -2   3  12  612.49   19.51
  -2   3  11   98.74    9.29
   2  -3 -11   97.82    9.65
   2  -3 -10  334.92   13.92
  -2   3  10  351.78   13.19
   2  -3  -9  898.61   15.05
   2  -3  -9  884.18   20.43
  -2   3   9  888.10   18.55
  -2   3   8   96.94    8.00
   2  -3  -8   73.74    5.11
   2  -3  -8   85.14    7.54
  -2   3   8   82.83    7.13
   2  -3  -7  898.80   13.97
  -2   3   7  885.93   18.28
  -2   3   7  869.95   15.82
  -2   3   7  919.64   12.79
  -2   3   6  265.94   10.10
  -2   3   6  259.39    8.51
  -2   3   6  269.21    7.41
   2  -3  -6  270.99    5.95
   2  -3  -6  253.02    7.71
   2  -3  -5  402.02    6.78
  -2   3   5  387.42    9.24
   2  -3  -5  375.19    8.83
  -2   3   5  412.64   11.71
  -2   3   5  389.42    8.74
   2  -3  -4 3079.44   23.23
  -2   3   4 3136.99   23.69
  -2   3   4 3126.18   22.14
   2  -3  -3  836.30    9.50
  -2   3   3  820.99   13.89
  -2   3   3  831.21   10.11
   2  -3  -3  826.81   12.11
  -2   3   3  850.73   12.74
   2  -3  -2  922.59   10.30
  -2   3   2  941.55   13.32
  -2   3   2  900.10   13.68
   2  -3  -2 1000.23   10.28
  -2   3   2  967.55   10.38
   2  -3  -2  873.21   12.33
   2  -3  -1 2527.85   20.56
  -2   3   1 2503.55   21.83
   2  -3  -1 2647.79   18.33
  -2   3   1 2553.97   21.49
  -2   3   1 2628.36   18.58
   2  -3   0   71.01    4.09
  -2   3   0   70.12    4.39
  -2   3   0   72.20    4.76
  -2   3   0   67.99    3.04
   2  -3   0   72.92    3.19
   2  -3   0   62.04    4.07
  -2   3  -1  921.26   12.10
   2  -3   1  934.67   12.67
  -2   3  -1  939.60   14.23
  -2   3  -1  917.54   10.20
   2  -3   2 1657.38   17.76
  -2   3  -2 1631.54   19.28
  -2   3  -2 1635.30   14.73
  -2   3  -2 1628.94   15.68
   2  -3   2 1618.23    8.84
   2  -3   2 1611.19   17.17
   2  -3   3  355.98    9.36
   2  -3   3  363.73    5.70
  -2   3  -3  351.65    7.93
  -2   3  -3  340.54    7.81
   2  -3   3  353.44    8.72
  -2   3  -3  363.59    9.59
   2  -3   4  814.22   13.02
  -2   3  -4  832.70   14.53
   2  -3   4  812.93    9.94
  -2   3  -4  820.13   13.07
   2  -3   4  848.14   14.90
   2  -3   5  595.63    9.90
  -2   3  -5  608.14   12.65
  -2   3  -5  611.31   10.40
   2  -3   5  615.03   13.65
  -2   3  -6   81.82    5.13
   2  -3   6   74.69    4.95
   2  -3   6   72.57    6.14
  -2   3  -6   80.61    6.56
   2  -3   7 1326.24   17.64
   2  -3   7 1326.35   21.98
  -2   3  -7 1261.17   21.37
  -2   3  -7 1287.14   16.66
   2  -3   8  353.77   10.66
  -2   3  -8  336.34   12.74
   2  -3   8  332.68   12.28
  -2   3  -8  356.84    9.92
   2  -3   9  540.98   16.10
   2  -3   9  544.80   13.93
  -2   3  -9  494.17   15.83
   2  -3   9  530.99   13.12
  -2   3  -9  552.22   12.78
   2  -3  10 1411.01   23.11
   2  -3  10 1385.86   22.12
  -2   3 -10 1402.40   21.08
   2  -3  11  246.94   11.56
  -2   3 -11  225.12   12.80
  -2   3 -12  308.09   15.56
   2  -3  12  337.51   13.80
   2  -2 -12  456.79   17.12
  -2   2  12  444.72   16.92
  -2   2  11 1022.90   22.25
   2  -2 -11  999.90   22.93
  -2   2  10   81.09    7.77
   2  -2 -10   78.32    8.40
  -2   2   9 1201.02   21.03
   2  -2  -9 1225.62   22.46
  -2   2   8 1089.97   18.63
   2  -2  -8 1114.87   20.57
   2  -2  -8 1127.26   14.15
   2  -2  -7   11.61    4.92
  -2   2   7    7.09    4.22
   2  -2  -7    5.93    2.53
  -2   2   7    6.19    2.52
   2  -2  -6 1104.69   13.06
  -2   2   6 1102.35   16.09
  -2   2   6 1100.55   18.13
  -2   2   6 1150.81   13.51
  -2   2   5 1540.15   17.09
  -2   2   5 1578.57   20.00
   2  -2  -5 1548.77   14.73
  -2   2   5 1568.90   15.52
   2  -2  -4   56.52    3.17
   2  -2  -4   56.74    3.46
  -2   2   4   63.80    3.93
  -2   2   4   62.18    4.05
   2  -2  -3 1825.50   15.27
   2  -2  -3 1859.86   13.85
  -2   2   3 1838.74   16.57
  -2   2   3 1779.07   18.10
  -2   2   3 1806.22   14.50
   2  -2  -2 1361.49   13.25
  -2   2   2 1411.01   15.11
  -2   2   2 1369.02   14.39
  -2   2   2 1340.40   10.42
   2  -2  -2 1387.91   11.94
   2  -2  -1  495.94    7.51
  -2   2   1  513.56    9.15
  -2   2   1  495.98    4.83
   2  -2  -1  514.41    8.58
  -2   2   1  501.24    8.59
   2  -2  -1  484.56    8.10
  -2   2   1  519.99    7.66
   2  -2   0 2695.93   17.87
   2  -2   0 2732.31   17.60
  -2   2   0 2814.09   15.62
  -2   2   0 2759.73   18.27
   2  -2   0 2691.16   19.01
  -2   2   0 2677.82   20.69
  -2   2   0 2787.82   18.48
  -2   2  -1  476.72    7.42
   2  -2   1  492.80    7.17
   2  -2   1  454.94    8.26
  -2   2  -1  455.76    8.89
  -2   2  -1  467.87    7.11
   2  -2   1  458.63    8.23
   2  -2   1  498.71    7.20
  -2   2  -2 1734.97   17.15
   2  -2   2 1695.30   16.43
   2  -2   2 1800.66   14.57
  -2   2  -2 1698.75   13.45
  -2   2  -2 1701.40   14.43
   2  -2   2 1720.97    8.89
   2  -2   2 1796.43   12.48
   2  -2   2 1658.00   15.65
   2  -2   3 5175.82   81.50
   2  -2   3 5028.74   27.74
   2  -2   3 5059.68   30.17
  -2   2  -3 4948.36   27.08
   2  -2   3 5355.81   20.87
  -2   2  -3 5259.59   30.63
   2  -2   4  126.88    5.94
   2  -2   4  138.60    4.49
  -2   2  -4  129.25    5.69
  -2   2  -4  126.48    5.66
   2  -2   4  135.37    3.88
  -2   2  -4  137.16    4.40
   2  -2   5 2498.30   24.43
   2  -2   5 2571.77   16.72
   2  -2   5 2443.39   19.30
  -2   2  -5 2396.06   17.21
  -2   2  -5 2488.17   23.90
   2  -2   6 2569.89   22.05
  -2   2  -6 2507.88   18.88
   2  -2   6 2553.84   26.40
  -2   2  -6 2472.74   26.14
  -2   2  -7   24.11    3.62
  -2   2  -7   27.97    5.66
   2  -2   7   23.75    4.32
   2  -2   7   23.67    5.16
   2  -2   8 1072.13   17.30
   2  -2   8 1068.72   19.54
  -2   2  -8 1002.35   14.38
  -2   2  -8 1006.52   19.80
   2  -2   9  353.30   12.59
   2  -2   9  362.44   11.48
   2  -2   9  374.21   11.14
  -2   2  -9  325.22   12.52
  -2   2  -9  355.57    9.91
   2  -2  10    7.21    4.70
  -2   2 -10   -0.11    4.36
   2  -2  10    7.75    3.85
  -2   2 -10    0.96    5.72
  -2   2 -11  610.11   14.76
   2  -2  11  625.95   15.77
  -2   2 -11  607.01   18.77
   2  -2  11  620.70   16.46
   2  -2  12  127.91    9.67
  -2   2 -12  113.31   10.79
   2  -2  13  436.43   16.48
   2  -1 -12  186.84   11.77
  -2   1  12  182.95   11.71
  -2   1  11   21.29    6.23
   2  -1 -11   29.45    6.42
   2  -1 -10  523.38   15.64
  -2   1  10  519.89   15.27
  -2   1   9   42.81    6.31
   2  -1  -9   30.85    6.13
  -2   1   8  719.35   15.36
   2  -1  -8  706.55   16.05
   2  -1  -8  748.52   10.06
  -2   1   8  741.86   11.21
   2  -1  -7 1255.89   12.34
   2  -1  -7 1217.26   19.35
  -2   1   7 1252.99   14.16
   2  -1  -6  129.39    7.22
  -2   1   6  135.91    6.67
   2  -1  -6  141.98    4.29
  -2   1   6  133.51    5.13
   2  -1  -5 3311.59   17.82
   2  -1  -5 3348.96   27.59
  -2   1   5 3369.01   21.81
  -2   1   5 3355.90   24.65
   2  -1  -4 5761.87   27.22
  -2   1   4 5718.98   32.93
   2  -1  -4 5712.37   89.39
   2  -1  -4 5595.86   32.74
  -2   1   4 5598.12   27.41
  -2   1   4 5629.22   28.67
   2  -1  -3   65.61    2.89
  -2   1   3   62.56    4.23
  -2   1   3   74.19    2.83
   2  -1  -3   67.85    3.57
  -2   1   3   62.21    3.42
  -2   1   3   63.24    3.62
   2  -1  -2 7564.64  100.79
  -2   1   2 7094.14   30.30
   2  -1  -2 7538.63   31.18
  -2   1   2 7164.50  118.86
   2  -1  -2 7416.16   29.89
   2  -1  -2 6972.03  101.87
  -2   1   2 7052.75   94.47
  -2   1   1 1582.83   11.51
  -2   1   1 1458.84    8.47
  -2   1   1 1402.41   13.12
   2  -1  -1 1465.62   11.84
   2  -1  -1 1548.48   11.50
   2  -1  -1 1540.65   13.77
   2  -1  -1 1481.22   12.34
  -2   1   1 1453.70   12.22
   2  -1  -1 1477.97   11.52
   2  -1   0  326.56    5.87
   2  -1   0  334.45    5.29
   2  -1   0  347.89    5.59
  -2   1   0  339.03    5.50
   2  -1   0  346.31    6.22
  -2   1   0  354.34    5.83
   2  -1   0  348.53    6.82
  -2   1   0  331.99    5.52
  -2   1   0  353.73    6.84
  -2   1   0  331.91    6.10
   2  -1   1 3672.54   18.23
   2  -1   1 3438.72   19.35
  -2   1  -1 3422.34   20.57
   2  -1   1 3528.78   14.35
   2  -1   1 3481.56   20.94
  -2   1  -1 3477.90   14.89
  -2   1  -1 3435.78   17.71
   2  -1   1 3540.08   19.17
  -2   1  -1 3432.19   19.87
  -2   1  -1 3745.29   19.36
  -2   1  -2 5841.25   27.68
  -2   1  -2 5644.32   24.86
  -2   1  -2 5688.10   63.92
   2  -1   2 5590.85   66.32
   2  -1   2 5984.08   27.35
  -2   1  -2 5811.83   75.10
   2  -1   2 5674.53   26.81
   2  -1   2 5736.47   66.34
   2  -1   2 6023.36   24.93
  -2   1  -2 5531.15   26.91
   2  -1   3  371.90    7.51
   2  -1   3  390.35    4.61
   2  -1   3  365.58    7.87
  -2   1  -3  356.10    7.43
   2  -1   3  402.06    7.41
   2  -1   3  377.60    5.89
  -2   1  -3  387.35    7.47
  -2   1  -3  374.80    4.85
  -2   1  -3  379.71    5.62
   2  -1   4 1883.89   11.73
  -2   1  -4 1860.31   17.97
  -2   1  -4 1856.14   16.69
   2  -1   4 1872.62   18.26
  -2   1  -4 1883.08   11.61
   2  -1   5   12.06    3.67
   2  -1   5    9.38    1.85
  -2   1  -5    9.61    2.76
   2  -1   5    8.86    2.76
  -2   1  -5   13.21    3.58
   2  -1   6 2703.95   25.17
   2  -1   6 2698.85   18.17
  -2   1  -6 2612.32   17.52
  -2   1  -6 2642.26   25.96
   2  -1   6 2587.36   22.27
  -2   1  -7 2629.64   19.89
   2  -1   7 2696.47   26.82
   2  -1   7 2654.41   24.50
   2  -1   8   68.13    5.28
  -2   1  -8   67.60    4.74
  -2   1  -8   63.21    6.16
   2  -1   8   66.07    6.17
   2  -1   8   58.46    5.89
  -2   1  -9 1320.33   17.49
   2  -1   9 1337.94   21.40
   2  -1   9 1341.15   20.73
   2  -1   9 1304.28   20.26
  -2   1 -10 1061.55   17.22
  -2   1 -10 1001.01   21.16
   2  -1  10 1011.91   19.33
   2  -1  10 1010.35   19.02
  -2   1 -11   15.18    4.83
  -2   1 -11   16.39    6.33
   2  -1  11   11.49    5.59
   2  -1  11    8.36    4.17
   2  -1  12  652.64   18.34
   2  -1  12  614.84   16.70
  -2   1 -12  651.46   16.10
   2  -1  13  510.39   15.98
   2  -1  13  541.95   18.37
  -2   1 -13  503.54   18.77
   2   0 -12 1014.73   23.45
  -2   0  12 1006.63   23.74
  -2   0  11  949.85   21.55
   2   0 -11  960.23   21.56
   2   0 -10    1.49    5.28
  -2   0  10   -1.05    5.29
  -2   0   9  850.36   17.78
   2   0  -9  860.33   18.18
  -2   0   8  614.45   14.20
   2   0  -8  622.33    7.52
  -2   0   8  611.48   10.48
   2   0  -7  112.31    3.29
  -2   0   7  111.59    4.98
  -2   0   7  113.81    6.57
   2   0  -7  118.89    7.42
   2   0  -6 1397.36   18.49
  -2   0   6 1415.06   17.79
  -2   0   6 1446.24   14.88
   2   0  -5  226.16    6.11
   2   0  -5  217.46    3.64
  -2   0   5  216.38    7.04
   2   0  -5  210.33    7.44
  -2   0   5  212.14    5.87
   2   0  -4 1225.31   12.76
  -2   0   4 1185.34   12.50
  -2   0   4 1167.86   13.37
   2   0  -4 1206.90    7.69
   2   0  -4 1181.06   14.60
   2   0  -3 4564.04   25.33
   2   0  -3 4553.12   23.04
  -2   0   3 4631.85   57.83
   2   0  -3 4621.10   14.56
   2   0  -2  932.39   10.38
  -2   0   2  903.53    6.52
   2   0  -2  854.60   10.03
   2   0  -2  864.11    9.77
  -2   0   2  886.51    9.97
   2   0  -2  913.65    6.70
  -2   0   1 8041.31   98.63
   2   0  -1 8110.43  100.93
   2   0  -1 8189.82  103.77
   2   0  -1 7913.26  111.09
  -2   0   1 7801.47  112.02
  -2   0   1 8538.30   83.50
   2   0  -1 8659.27   86.49
  -2   0   0 1069.55    7.18
   2   0   0 1072.35    9.09
   2   0   0 1040.46    7.23
  -2   0   0 1035.41    8.88
  -2   0   0 1063.56    8.25
  -2   0   0 1019.06   10.08
   2   0   0 1029.98    9.49
   2   0   0  998.16    9.89
  -2   0  -1  231.77    5.17
  -2   0  -1  241.14    5.14
   2   0   1  238.73    5.07
  -2   0  -1  249.94    5.08
   2   0   1  265.62    4.96
  -2   0  -1  255.17    4.66
   2   0   1  237.83    5.08
  -2   0  -2 6000.42   24.91
   2   0   2 5973.07   93.36
  -2   0  -2 5934.60   91.63
   2   0   2 6069.72   23.73
   2   0   2 5867.13   96.06
  -2   0  -2 6007.59   95.79
  -2   0  -2 5963.14   75.85
  -2   0  -3 6803.20   28.73
  -2   0  -3 6326.98   27.89
   2   0   3 6515.75   27.72
   2   0   3 6880.15   27.90
   2   0   3 6916.31   59.94
   2   0   3 6613.58   97.92
  -2   0  -3 6749.76   97.18
   2   0   3 6655.14   99.48
  -2   0  -3 6537.84  100.29
   2   0   4  117.27    4.67
  -2   0  -4  128.44    2.94
   2   0   4  122.87    4.66
  -2   0  -4  125.79    4.34
   2   0   4  113.46    3.75
  -2   0  -4  121.86    5.19
   2   0   4  124.21    3.02
  -2   0  -4  125.13    3.90
   2   0   5 3154.19   22.86
  -2   0  -5 3142.02   18.44
  -2   0  -5 3133.84   16.30
   2   0   5 3136.32   22.28
  -2   0  -5 3114.81   24.62
  -2   0  -6  656.08   13.01
  -2   0  -6  665.68    8.97
   2   0   6  706.11    9.11
   2   0   6  671.77   11.75
   2   0   6  692.40   12.11
  -2   0  -7  264.85    9.21
   2   0   7  284.61    8.77
  -2   0  -7  271.99    6.89
   2   0   7  291.18    8.92
   2   0   7  282.44    6.11
   2   0   7  276.23    8.59
   2   0   8  403.22   11.08
   2   0   8  382.47   10.97
   2   0   8  421.26   11.17
  -2   0  -8  394.22    9.02
  -2   0  -8  409.10   12.17
   2   0   8  392.60    7.48
   2   0   9    3.03    4.40
   2   0   9    4.16    3.88
  -2   0  -9    1.79    3.56
  -2   0  -9    3.31    5.14
   2   0   9   -0.13    3.80
  -2   0 -10  649.46   16.84
  -2   0 -10  711.16   13.99
   2   0  10  679.93   16.04
   2   0  10  672.02   16.10
  -2   0 -11  676.26   14.84
  -2   0 -11  634.02   17.69
   2   0  11  639.79   16.92
  -2   0 -12    0.04    6.17
  -2   0 -12    2.99    4.56
   2   0  12   -0.12    4.82
   2   0  12   12.25    6.49
   2   0  13  996.02   22.10
   2   0  13 1057.78   24.34
  -2   0 -13 1017.74   24.39
   2   0  14  796.01   20.46
   2   1 -12   19.62    6.66
  -2  -1  12   13.79    6.78
  -2  -1  11  857.96   20.79
   2   1 -11  872.98   20.40
  -2  -1  10  355.47   13.13
   2   1 -10  360.66   12.86
   2   1  -9  162.03    8.85
  -2  -1   9  172.57    9.25
  -2  -1   9  189.47    6.71
  -2  -1   8 1750.43   18.26
   2   1  -8 1744.65   23.48
  -2  -1   8 1710.57   22.85
  -2  -1   7 2009.84   19.15
   2   1  -7 1986.25    9.12
  -2  -1   7 2007.04   23.11
   2   1  -7 2000.67   23.32
   2   1  -7 1999.38    9.00
   2   1  -6   79.56    5.95
  -2  -1   6   87.42    5.87
   2   1  -6   90.06    1.76
  -2  -1   6   91.44    4.71
   2   1  -6   86.08    1.73
   2   1  -5 2221.60   21.04
  -2  -1   5 2191.25   18.53
   2   1  -4 1629.82   16.25
   2   1  -4 1583.50   14.20
  -2  -1   4 1501.13   14.80
   2   1  -4 1493.89   15.77
  -2  -1   3  527.75    8.55
   2   1  -3  544.54    8.93
   2   1  -3  525.50    8.72
   2   1  -2 2826.25   17.21
  -2  -1   2 2826.31   18.09
   2   1  -1 1263.15    9.79
   2   1  -1 1264.82   11.31
  -2  -1   1 1246.83   11.26
   2   1   0 1772.74    9.27
  -2  -1   0 1802.55    9.56
   2   1   0 1808.77   11.08
   2   1   0 1692.99   12.18
  -2  -1   0 1680.00   12.19
   2   1   1  217.35    4.32
  -2  -1  -1  214.10    4.53
  -2  -1  -1  227.65    2.66
   2   1   1  234.02    4.29
  -2  -1  -1  231.04    4.55
   2   1   1  219.08    2.67
   2   1   1  215.69    4.30
   2   1   2   18.69    1.22
   2   1   2    9.37    1.67
  -2  -1  -2   10.23    1.93
  -2  -1  -2    9.75    1.85
  -2  -1  -2   10.33    2.74
   2   1   2   14.12    2.40
   2   1   2   15.44    2.25
  -2  -1  -2   14.02    1.13
   2   1   3 1360.72   11.30
   2   1   3 1395.16    9.32
   2   1   3 1405.30   12.14
  -2  -1  -3 1388.69    9.00
  -2  -1  -3 1457.49   12.29
   2   1   3 1458.24   12.09
  -2  -1  -3 1390.81    9.41
  -2  -1  -3 1363.47   12.30
   2   1   3 1409.15    8.94
  -2  -1  -3 1365.70   11.53
   2   1   4 3021.71   18.38
  -2  -1  -4 3073.92   18.72
  -2  -1  -4 3088.97   14.90
   2   1   4 3040.23   20.13
  -2  -1  -4 3219.27   20.29
  -2  -1  -4 3150.96   16.60
   2   1   4 3072.30   13.63
  -2  -1  -4 3106.89   20.76
  -2  -1  -4 3098.23   13.77
  -2  -1  -5  609.52   10.82
   2   1   5  600.14    9.25
   2   1   5  604.80    6.21
  -2  -1  -5  616.72    9.32
   2   1   5  608.70   10.54
  -2  -1  -5  601.44    7.99
  -2  -1  -5  618.57    6.34
  -2  -1  -6 6317.77   28.61
   2   1   6 6279.03   36.89
   2   1   6 6245.22   35.31
   2   1   6 6300.60   31.82
  -2  -1  -6 6236.42   36.26
  -2  -1  -7 2351.91   19.55
   2   1   7 2299.55   23.46
  -2  -1  -7 2253.49   24.07
   2   1   7 2468.99   21.83
   2   1   7 2329.70   24.73
   2   1   7 2452.32   12.98
   2   1   8   24.11    4.64
   2   1   8   24.16    4.07
   2   1   8   31.62    5.40
  -2  -1  -8   24.18    5.36
  -2  -1  -8   24.99    3.73
   2   1   8   25.75    1.91
   2   1   8   33.70    2.01
  -2  -1  -9 1476.60   22.49
   2   1   9 1531.31   20.09
  -2  -1  -9 1445.49   18.47
   2   1   9 1492.86   21.97
   2   1   9 1463.09   10.34
   2   1   9 1465.25   22.11
   2   1  10  263.05   11.20
  -2  -1 -10  238.27    8.93
   2   1  10  225.71   10.05
  -2  -1 -10  253.44   10.92
   2   1  11  247.99   11.11
   2   1  11  249.97   11.61
  -2  -1 -11  260.05   10.07
  -2  -1 -11  274.67   12.20
   2   1  12  329.66   14.02
  -2  -1 -12  352.06   11.90
  -2  -1 -12  330.63   13.81
   2   1  12  361.05   13.26
   2   1  13   13.92    7.63
  -2  -1 -13    7.82    6.89
  -2  -1 -13    5.75    5.42
   2   1  13   10.49    5.59
   2   1  14  428.11   16.17
   2   2 -12  655.99   19.33
  -2  -2  12  711.54   20.34
   2   2 -11   54.27    7.59
  -2  -2  11   56.48    8.02
   2   2 -10  508.55   15.04
  -2  -2  10  508.98   15.01
   2   2  -9  329.30   11.62
  -2  -2   9  325.69    9.44
  -2  -2   9  313.79   11.83
   2   2  -8  170.46    8.52
  -2  -2   8  183.29    8.51
   2   2  -7 1876.56   22.75
  -2  -2   7 1905.12   20.31
  -2  -2   7 1849.06   22.53
   2   2  -7 1854.16    8.77
   2   2  -6  644.38   12.66
   2   2  -6  661.84    4.03
   2   2  -5  364.65    9.18
  -2  -2   5  365.55    8.89
   2   2  -4 2839.68   21.78
  -2  -2   4 2847.61   22.96
   2   2  -3 1821.20   12.03
   2   2  -3 1795.39   15.74
   2   2  -2 1139.09   11.49
  -2  -2   2 1139.98   13.38
  -2  -2   2 1125.35    5.36
   2   2  -2 1137.80   13.69
  -2  -2   1 3554.62   17.47
  -2  -2   1 3185.32   46.13
   2   2  -1 3482.34   17.28
   2   2  -1 3354.31   21.46
  -2  -2   1 3203.28   20.77
  -2  -2   0 1979.29   14.95
   2   2   0 1954.39   15.15
  -2  -2  -1 1250.29    8.83
  -2  -2  -1 1216.50    8.78
   2   2   1 1213.19    8.72
  -2  -2  -1 1229.61   10.68
   2   2   1 1247.37    9.09
   2   2   1 1268.71    8.91
   2   2   1 1213.82   10.79
   2   2   2 3458.47   16.04
  -2  -2  -2 3485.18   15.27
   2   2   2 3543.32   15.57
  -2  -2  -2 3417.99   15.44
   2   2   2 3386.37   14.92
  -2  -2  -2 3428.16   15.65
   2   2   2 3333.57   14.96
   2   2   3   31.49    1.82
  -2  -2  -3   33.47    2.88
   2   2   3   36.46    2.43
  -2  -2  -3   34.22    3.13
   2   2   3   30.94    2.55
  -2  -2  -3   32.56    2.22
  -2  -2  -3   30.21    1.73
   2   2   3   33.77    2.22
  -2  -2  -3   34.17    2.50
   2   2   4 3861.41   17.98
  -2  -2  -4 3975.38   49.02
   2   2   4 3917.69   23.90
   2   2   4 3803.44   20.24
  -2  -2  -4 4107.56   21.15
   2   2   4 4027.02   50.38
   2   2   4 3998.95   25.91
  -2  -2  -4 3958.45   21.91
  -2  -2  -4 3928.56   18.28
   2   2   5 1438.88   14.22
   2   2   5 1427.98   16.20
   2   2   5 1437.11   12.36
   2   2   5 1407.25   17.24
  -2  -2  -5 1410.71   12.24
  -2  -2  -5 1435.96   15.15
   2   2   6  964.10   13.01
  -2  -2  -6  949.40   11.06
   2   2   6  947.85   14.44
   2   2   6  948.35   11.29
   2   2   6  950.79   15.55
  -2  -2  -6  934.29   13.71
   2   2   7 2203.07   18.65
   2   2   7 2128.82   22.96
   2   2   7 2136.11   24.24
  -2  -2  -7 2184.45   20.12
  -2  -2  -7 2078.90   22.12
   2   2   8  567.78   10.66
   2   2   8  564.57   13.74
  -2  -2  -8  574.32   11.63
   2   2   8  593.15   13.65
  -2  -2  -8  559.04   12.96
   2   2   9  839.24   17.54
   2   2   9  882.40   14.05
  -2  -2  -9  812.55   16.39
  -2  -2  -9  851.76   15.04
   2   2   9  861.90   17.53
   2   2  10 2069.81   28.00
  -2  -2 -10 2007.27   24.31
   2   2  10 2120.68   28.20
  -2  -2 -10 2066.02   27.16
   2   2  11  484.40   14.83
  -2  -2 -11  493.92   14.91
  -2  -2 -11  484.70   13.34
   2   2  11  497.08   15.39
  -2  -2 -12  150.55    8.92
   2   2  12  155.90   10.68
   2   2  12  161.60    9.88
  -2  -2 -12  135.93    9.69
  -2  -2 -13  791.00   19.01
   2   2  13  782.38   21.34
   2   2  13  831.47   20.83
  -2  -2 -13  803.65   20.89
  -2  -2 -14   53.85    7.55
   2   3 -12  245.04   12.97
   2   3 -11  771.62   19.83
  -2  -3  11  778.28   19.92
   2   3 -10  110.92    8.86
  -2  -3  10   98.78    8.88
  -2  -3   9  587.31   15.55
   2   3  -9  586.84   15.43
  -2  -3   9  600.30   13.51
  -2  -3   8 1960.56   23.43
   2   3  -8 1872.09   24.82
  -2  -3   8 1917.25   25.23
   2   3  -7   45.50    5.98
  -2  -3   7   45.34    5.86
  -2  -3   7   44.87    5.02
  -2  -3   6 1142.49   17.51
   2   3  -6 1178.32    8.42
  -2  -3   5  960.72   15.91
   2   3  -5  973.51   14.68
   2   3  -4    5.69    3.04
   2   3  -4   11.80    1.34
   2   3  -3 4056.95   24.80
  -2  -3   3 4016.05   15.05
  -2  -3   3 4010.55   29.93
   2   3  -2 3255.52   20.76
  -2  -3   2 3285.61   14.12
  -2  -3   1 1616.39   10.61
  -2  -3   1 1600.39   17.38
   2   3  -1 1648.28   11.83
   2   3  -1 1603.17   13.97
  -2  -3   0 5959.45   89.40
   2   3   0 6112.27   25.63
   2   3   1  108.18    4.17
  -2  -3  -1  108.48    4.60
   2   3   1  119.55    2.86
  -2  -3  -1  117.64    3.94
  -2  -3  -1  118.71    4.32
   2   3   1  113.92    3.67
   2   3   2 2892.96   17.53
   2   3   2 2920.38   19.11
  -2  -3  -2 2947.64   13.31
  -2  -3  -2 2925.38   18.10
  -2  -3  -3 5115.39   26.04
   2   3   3 4786.12   67.42
  -2  -3  -3 5035.72   24.66
  -2  -3  -3 5035.78   82.37
  -2  -3  -3 4916.98   19.78
   2   3   3 4827.25   28.11
   2   3   3 4882.75   24.35
   2   3   3 5021.49   19.44
  -2  -3  -4   38.05    1.91
   2   3   4   36.50    3.38
  -2  -3  -4   32.65    3.42
  -2  -3  -4   35.27    2.85
   2   3   4   34.03    4.13
   2   3   4   35.81    1.98
  -2  -3  -5 2747.21   14.15
   2   3   5 2703.36   14.21
  -2  -3  -5 2772.72   19.55
   2   3   5 2696.94   25.07
   2   3   6 1252.85   11.01
  -2  -3  -6 1254.88   14.96
   2   3   6 1238.15   18.40
   2   3   6 1252.54   15.85
   2   3   6 1232.25   16.80
  -2  -3  -6 1257.28   10.67
   2   3   7  226.88    5.65
   2   3   7  224.01    8.90
   2   3   7  226.47    8.00
   2   3   7  219.35    8.37
  -2  -3  -7  220.87    7.59
  -2  -3  -7  214.80    5.22
   2   3   8  917.79   11.79
   2   3   8  883.16   15.63
   2   3   8  889.42   16.73
   2   3   8  886.58   17.48
  -2  -3  -8  864.51   15.13
  -2  -3  -9  750.10   15.03
   2   3   9  742.16   16.47
   2   3   9  745.64   16.98
  -2  -3  -9  724.73   15.01
  -2  -3 -10  316.58   10.94
   2   3  10  316.10   12.14
   2   3  10  325.24   12.16
  -2  -3 -10  308.98   11.06
  -2  -3 -11 1221.88   21.59
  -2  -3 -11 1190.63   20.94
   2   3  11 1179.32   22.75
   2   3  11 1248.04   23.70
  -2  -3 -12  215.97   10.35
   2   3  12  215.62   12.01
   2   3  12  206.15   10.87
  -2  -3 -12  226.06   10.99
  -2  -3 -12  211.30    9.67
  -2  -3 -13  401.06   14.26
   2   3  13  396.85   15.81
  -2  -3 -13  394.44   14.57
  -2  -3 -14  605.83   18.13
  -2  -3 -14  631.22   19.04
   2   4 -11   59.75    7.84
  -2  -4  11   61.71    8.25
   2   4 -10  579.20   16.82
  -2  -4  10  599.22   15.10
  -2  -4  10  550.16   16.76
  -2  -4   9  165.18    8.66
   2   4  -9  151.54    9.12
  -2  -4   9  177.20    9.84
  -2  -4   8 1043.61   19.34
   2   4  -8 1025.68   19.06
  -2  -4   8 1058.68   19.64
   2   4  -7 2360.67   26.53
  -2  -4   7 2434.05   28.49
   2   4  -6    5.00    4.51
   2   4  -6   14.69    2.06
  -2  -4   6   12.50    4.46
   2   4  -5 2124.53   22.23
  -2  -4   5 2245.76   26.73
   2   4  -4 1748.54   19.02
  -2  -4   4 1733.21   12.98
   2   4  -3   39.35    4.32
  -2  -4   3   36.52    4.64
   2   4  -3   37.18    2.48
  -2  -4   3   39.31    2.45
  -2  -4   2 2011.39   14.22
  -2  -4   2 2011.76   22.76
   2   4  -2 1975.92   18.30
  -2  -4   1 5276.27   23.58
   2   4  -1 5191.19   28.59
   2   4   0   59.08    4.66
  -2  -4   0   64.46    5.06
   2   4   0   73.80    3.66
   2   4   0   60.70    4.58
  -2  -4   0   60.87    3.44
   2   4   1 2599.41   11.25
  -2  -4  -1 2465.10   18.20
   2   4   1 2488.87   19.12
   2   4   1 2637.71   15.08
   2   4   2  540.89    9.29
   2   4   2  564.13    8.80
  -2  -4  -2  568.75    5.13
  -2  -4  -2  553.29    9.70
  -2  -4  -2  530.51    9.45
   2   4   2  570.22    5.18
  -2  -4  -3  475.81    5.59
   2   4   3  466.98    9.17
  -2  -4  -3  438.00    9.32
   2   4   3  449.63    9.15
  -2  -4  -3  448.12    7.99
  -2  -4  -4 4166.26   20.99
   2   4   4 4015.01   28.97
   2   4   4 4113.76   26.93
  -2  -4  -4 4121.86   18.98
  -2  -4  -4 4027.28   28.92
   2   4   4 4015.70   13.75
   2   4   5    6.14    0.97
  -2  -4  -5    3.86    1.44
   2   4   5    5.68    3.44
   2   4   5    4.27    3.50
  -2  -4  -5    4.71    2.35
  -2  -4  -5    4.14    1.36
   2   4   6 1669.54    9.57
   2   4   6 1738.41   19.90
  -2  -4  -6 1589.31    7.52
   2   4   6 1699.71   22.03
  -2  -4  -6 1740.60   16.56
  -2  -4  -6 1738.04   21.12
  -2  -4  -6 1620.82    7.62
   2   4   7 1682.65   21.54
   2   4   7 1701.88   20.98
   2   4   7 1732.96   23.57
  -2  -4  -7 1702.08   18.18
  -2  -4  -7 1672.93   10.59
  -2  -4  -7 1652.12   21.51
  -2  -4  -8   64.34    5.28
   2   4   8   62.38    6.38
   2   4   8   65.75    5.90
  -2  -4  -8   54.27    5.90
  -2  -4  -8   50.10    2.71
  -2  -4  -9 1385.68   21.04
   2   4   9 1355.10   21.28
   2   4   9 1333.71   21.86
   2   4   9 1369.17   23.33
  -2  -4  -9 1323.74   19.07
   2   4  10 1623.29   25.48
   2   4  10 1647.00   24.63
  -2  -4 -10 1679.98   22.89
  -2  -4 -10 1652.04   23.84
   2   4  11   72.56    8.63
  -2  -4 -11   66.92    7.45
  -2  -4 -11   63.80    6.49
  -2  -4 -11   69.80    6.81
   2   4  12  499.88   16.97
  -2  -4 -12  463.08   14.93
  -2  -4 -12  518.46   14.50
  -2  -4 -12  465.87   14.33
   2   4  13  243.34   13.00
  -2  -4 -13  252.20   12.25
  -2  -4 -13  246.20   11.52
  -2  -4 -14   49.64    8.08
  -2  -4 -14   56.71    7.90
   2   5 -11  472.71   16.95
  -2  -5  11  528.78   17.72
  -2  -5  10    3.86    6.24
   2   5 -10    4.25    6.54
  -2  -5  10    2.58    4.75
  -2  -5   9  573.13   16.37
   2   5  -9  550.74   16.22
  -2  -5   9  597.90   16.88
  -2  -5   8  302.30   12.09
  -2  -5   8  284.33   11.33
   2   5  -8  275.47   11.43
   2   5  -7  127.66    8.31
  -2  -5   7  139.42    8.47
   2   5  -6  596.50   14.07
  -2  -5   6  632.95   16.34
   2   5  -5    7.29    4.97
  -2  -5   5    4.50    4.29
  -2  -5   5    4.99    2.10
  -2  -5   4 1915.53   26.15
  -2  -5   4 1863.53   16.19
   2   5  -4 1881.78   21.74
  -2  -5   3 1500.18   14.44
  -2  -5   3 1524.87   22.58
  -2  -5   2   24.11    2.89
   2   5  -2   23.60    4.71
   2   5  -1 2725.32   23.53
  -2  -5   1 2651.18   19.55
  -2  -5   0 3370.14   22.73
   2   5   0 3494.77   26.10
   2   5   1  240.54    3.32
   2   5   1  234.51    7.64
  -2  -5  -1  245.99    5.80
  -2  -5  -1  239.66    6.86
   2   5   1  246.47    6.59
   2   5   2 2774.42   23.18
  -2  -5  -2 2751.01   22.46
   2   5   2 2704.52    8.78
   2   5   3 2790.34   23.91
  -2  -5  -3 2790.60   10.36
  -2  -5  -3 2756.07   24.07
  -2  -5  -4   39.38    2.22
   2   5   4   50.96    1.97
   2   5   4   41.55    4.95
  -2  -5  -4   47.52    4.74
   2   5   4   44.73    1.69
  -2  -5  -5 1018.67   10.78
   2   5   5 1012.31   15.93
   2   5   5 1032.82   16.60
  -2  -5  -5 1024.68   10.19
  -2  -5  -5 1022.30   11.57
   2   5   6  437.14   11.44
   2   5   6  436.97   12.08
  -2  -5  -6  452.87    6.92
  -2  -5  -6  446.74    6.43
  -2  -5  -6  419.01   11.44
  -2  -5  -6  430.38    7.96
   2   5   7  392.14   11.63
  -2  -5  -7  398.68    4.61
  -2  -5  -7  384.20   11.54
  -2  -5  -7  387.95    8.60
  -2  -5  -7  386.52    4.58
   2   5   8  984.01   18.23
  -2  -5  -8  950.31   17.95
  -2  -5  -8  997.47   14.78
  -2  -5  -9   12.18    4.58
   2   5   9   10.55    5.27
  -2  -5  -9    7.11    3.82
  -2  -5 -10 1129.67   20.64
   2   5  10 1126.53   21.52
  -2  -5 -10 1095.35   18.11
  -2  -5 -11 1100.90   19.40
   2   5  11 1078.63   22.03
   2   5  11 1070.84   22.74
  -2  -5 -11 1042.44   20.41
  -2  -5 -12    9.16    5.03
   2   5  12    8.45    5.69
  -2  -5 -12    7.39    4.73
  -2  -5 -12    7.76    5.94
   2   5  13  671.34   20.43
  -2  -5 -13  647.31   17.51
  -2  -5 -13  673.52   19.18
  -2  -5 -14  416.31   16.28
  -2  -5 -14  428.70   15.34
  -2  -6  10  667.85   19.20
  -2  -6  10  669.64   19.26
   2   6 -10  627.13   19.53
  -2  -6   9   18.54    6.02
   2   6  -9   15.19    6.59
  -2  -6   9   13.10    6.21
  -2  -6   8 1147.47   21.84
  -2  -6   8 1183.47   24.56
   2   6  -8 1107.42   22.15
  -2  -6   7  642.91   18.23
   2   6  -7  584.89   15.72
  -2  -6   6   29.59    6.44
   2   6  -6   27.07    5.88
  -2  -6   5  773.69   12.09
   2   6  -5  772.58   16.39
  -2  -6   4  250.02   11.08
   2   6  -4  255.08   10.20
  -2  -6   4  252.23    7.22
   2   6  -3  208.72    9.19
  -2  -6   3  212.95    6.73
  -2  -6   2  949.85   13.39
   2   6  -2  934.54   16.03
   2   6  -1    4.73    4.26
  -2  -6   1    2.78    2.95
   2   6   0 1801.71   21.18
  -2  -6   0 1870.51   13.96
  -2  -6  -1  879.91   13.73
  -2  -6  -1  896.28   11.53
   2   6   1  883.99   15.09
   2   6   2  119.58    6.77
  -2  -6  -2  113.73    5.98
   2   6   2  115.68    4.87
   2   6   3 3265.53   19.34
   2   6   3 3289.38   28.96
   2   6   4 2542.46   26.31
   2   6   4 2593.01   12.85
   2   6   5   74.25    5.99
  -2  -6  -5   83.79    6.87
  -2  -6  -5   85.07    2.91
   2   6   6 2567.42   28.30
  -2  -6  -6 2593.10   19.86
  -2  -6  -6 2606.03   16.91
  -2  -6  -6 2554.66   28.60
   2   6   7 1049.07   19.27
  -2  -6  -7 1090.35   12.88
  -2  -6  -7 1033.19   19.41
  -2  -6  -7 1108.68   11.59
   2   6   8  224.80    9.96
  -2  -6  -8  233.96    7.18
   2   6   9  511.79   15.06
  -2  -6  -9  518.13   11.23
  -2  -6  -9  507.01   14.78
  -2  -6 -10   37.40    6.55
   2   6  10   34.58    6.33
  -2  -6 -10   45.95    5.08
   2   6  11  126.67    9.41
  -2  -6 -11  141.19    7.70
  -2  -6 -11  124.43    8.75
  -2  -6 -12   72.20    7.37
   2   6  12  121.90   10.00
  -2  -6 -13   12.72    5.14
  -2  -6 -13    5.31    6.52
  -2  -7  10  245.62   13.55
   2   7  -9  212.28   12.55
  -2  -7   9  248.08   12.29
  -2  -7   9  220.48   12.82
  -2  -7   8   63.68    8.58
  -2  -7   8   59.57    7.04
   2   7  -8   53.44    7.60
  -2  -7   7  827.71   22.11
   2   7  -7  774.79   19.31
  -2  -7   6  598.85   18.34
   2   7  -6  545.62   15.76
   2   7  -5  149.09    9.59
  -2  -7   5  163.52   11.05
  -2  -7   5  138.12    6.35
  -2  -7   4 1637.65   19.56
   2   7  -4 1655.93   24.39
  -2  -7   3 1374.88   17.83
  -2  -7   2  143.40    6.84
   2   7  -2  150.86    8.86
  -2  -7   1 2328.91   23.30
   2   7  -1 2405.00   27.40
  -2  -7   0   40.44    4.61
   2   7   0   54.95    6.12
   2   7   0   47.74    2.08
  -2  -7  -1 1080.54   13.74
  -2  -7  -1 1075.41   16.60
   2   7   2  697.31   15.04
  -2  -7  -2  642.09   13.43
  -2  -7  -3    6.54    4.65
   2   7   3    2.43    4.70
   2   7   4  715.75   15.92
  -2  -7  -4  700.69   15.31
   2   7   5  570.80   14.63
  -2  -7  -5  553.70   14.35
   2   7   6  315.34   11.72
  -2  -7  -6  295.29   11.68
   2   7   7 2187.86   28.99
  -2  -7  -7 2171.62   29.03
   2   7   8  610.66   16.72
  -2  -7  -8  592.24   16.38
   2   7   9  139.14    9.86
  -2  -7  -9  138.92    9.56
   2   7  10 1152.48   24.39
  -2  -7 -10 1131.27   23.07
   2   7  11  294.28   13.94
  -2  -7 -11  286.67   12.79
  -2  -7 -12   72.76    7.91
   2   7  12   54.90    7.95
  -2  -7 -13  256.70   12.76
  -2  -8   9  237.04   12.68
  -2  -8   8  344.67   13.66
   2   8  -8  346.75   16.00
  -2  -8   8  380.63   16.87
   2   8  -7    8.51    6.66
  -2  -8   7   16.08    6.21
  -2  -8   6  498.72   18.73
   2   8  -6  510.45   16.81
  -2  -8   5  532.43   18.06
   2   8  -5  532.08   15.97
  -2  -8   5  530.37   12.89
   2   8  -4   68.60    8.39
  -2  -8   4   54.40    5.32
  -2  -8   3  965.40   16.78
   2   8  -3  964.41   20.05
  -2  -8   2  431.37   11.65
   2   8  -2  460.59   14.24
   2   8  -1  487.96   14.56
  -2  -8   1  446.86   11.96
   2   8   0 1925.43   26.49
  -2  -8   0 1821.58   23.16
  -2  -8  -1  186.90    8.44
   2   8   1  216.22   10.08
  -2  -8  -2  543.05   13.72
   2   8   2  584.38   15.25
   2   8   3  962.22   19.37
  -2  -8  -3  950.31   18.27
  -2  -8  -4  347.10   12.26
   2   8   4  361.32   12.92
   2   8   5  336.35   12.73
  -2  -8  -5  327.10   12.22
  -2  -8  -6 1284.57   23.57
   2   8   6 1318.94   23.93
  -2  -8  -7    8.38    6.23
   2   8   7    7.22    5.97
   2   8   8  648.03   18.35
  -2  -8  -8  678.82   18.56
   2   8   9  203.69   11.35
  -2  -8  -9  201.37   11.21
  -2  -8 -10  141.41   10.44
   2   8  10  159.60   11.11
   2   8  11  650.35   20.55
  -2  -8 -11  640.44   19.48
  -2  -8 -12  104.07    9.37
   2   9  -6   40.68    8.40
  -2  -9   6   41.44    9.10
   2   9  -5  293.09   14.34
  -2  -9   5  302.69   15.77
   2   9  -4  754.83   20.06
  -2  -9   4  780.16   23.00
  -2  -9   4  778.50   16.69
  -2  -9   3   60.20    5.95
   2   9  -3   63.77    8.30
  -2  -9   2  499.53   13.76
   2   9  -2  525.45   16.39
  -2  -9   1  464.79   13.23
   2   9  -1  493.91   15.71
  -2  -9   0   33.67    5.74
   2   9   0   32.13    7.04
  -2  -9  -1  814.66   17.65
   2   9   1  907.97   20.07
  -2  -9  -2  139.63    8.29
   2   9   2  145.10    9.40
  -2  -9  -3  292.84   11.60
   2   9   3  314.52   13.20
  -2  -9  -4  635.49   17.05
   2   9   4  674.44   18.36
  -2  -9  -5   80.48    8.85
   2   9   5   85.89    8.35
   2   9   6  708.00   19.25
  -2  -9  -6  730.45   19.46
   2   9   7 1185.99   24.99
  -2  -9  -7 1210.77   25.41
   2   9   8  118.11   10.37
  -2  -9  -8  107.96    9.98
   2   9   9  308.00   14.85
  -2  -9  -9  288.87   14.15
  -2  -9 -10  447.88   17.47
  -2 -10   4  364.97   13.18
   2  10  -3  611.01   19.20
  -2 -10   3  574.95   16.09
   2  10  -2    1.77    7.19
  -2 -10   2    5.23    5.24
  -2 -10   1  662.91   17.09
   2  10  -1  712.57   20.07
  -2 -10   0  922.86   20.19
   2  10   0  954.96   22.83
   2  10   1   24.04    6.71
  -2 -10  -1   24.84    6.21
  -2 -10  -2  468.54   15.29
   2  10   2  505.85   17.37
  -2 -10  -3  375.01   14.28
   2  10   3  378.51   14.99
   2  10   4   25.51    7.25
  -2 -10  -4   18.32    6.67
  -2 -10  -5  536.11   17.49
   2  10   5  553.04   18.55
  -2 -10  -6   38.19    7.65
   2  10   6   44.71    8.49
  -2 -10  -7  347.46   15.95
   2  10   7  334.60   15.42
  -2 -11   3  180.26   10.62
  -2 -11   2  245.09   12.45
  -2 -11   1    2.68    5.67
  -2 -11   0  497.96   16.56
  -2 -11  -1  569.60   18.25
  -2 -11  -2   35.13    8.04
  -3   9   1   15.45    7.37
  -3   9   0  301.70   14.75
  -3   9  -1  110.76   10.39
  -3   9  -2    4.79    6.16
  -3   8   5  147.00   11.37
   3  -8  -5  123.52   10.27
  -3   8   4  378.16   16.15
   3  -8  -4  381.06   15.21
  -3   8   3   40.77    7.89
   3  -8  -3   29.46    7.34
  -3   8   2  575.32   18.55
   3  -8  -2  503.92   17.18
  -3   8   1 1034.90   23.82
   3  -8  -1  957.71   22.53
  -3   8   0    1.25    5.88
   3  -8   0    1.90    5.79
  -3   8  -1  642.66   18.98
   3  -8   1  568.49   17.94
   3  -8   2  548.51   16.20
   3  -8   2  551.67   17.66
  -3   8  -2  530.16   17.35
   3  -8   3    7.06    4.97
  -3   8  -3   -1.00    6.56
   3  -8   3    0.00    6.12
   3  -8   4  587.18   18.33
  -3   8  -4  488.31   16.79
   3  -8   5  221.19   12.58
   3  -7  -8  318.77   14.35
  -3   7   7   11.63    6.97
   3  -7  -7    8.28    5.78
  -3   7   6  884.28   23.00
   3  -7  -6  838.14   20.79
  -3   7   5  498.59   14.99
  -3   7   5  481.60   17.43
   3  -7  -4   79.77    7.58
  -3   7   4   79.04    8.50
  -3   7   4   85.68    7.56
  -3   7   3  511.54   16.86
  -3   7   3  526.89   15.86
   3  -7  -3  531.78   16.14
   3  -7  -2  106.45    8.83
  -3   7   2  117.61    8.83
  -3   7   2  109.23    8.61
  -3   7   1  326.34   12.96
  -3   7   1  339.92   13.28
   3  -7  -1  312.61   12.56
   3  -7   0  649.60   14.64
  -3   7   0  642.08   17.38
   3  -7   0  612.59   16.94
   3  -7   1   36.89    5.36
  -3   7  -1   30.52    6.35
   3  -7   1   35.83    6.26
  -3   7  -2  579.04   16.28
   3  -7   2  561.56   15.42
   3  -7   2  543.24   16.22
   3  -7   3  558.48   16.20
  -3   7  -3  555.53   16.07
   3  -7   3  523.95   16.04
   3  -7   4   65.96    7.93
  -3   7  -4   69.18    7.65
   3  -7   4   75.01    8.10
   3  -7   5  948.03   22.34
  -3   7  -5  857.02   20.02
   3  -7   6  454.32   16.86
  -3   6   8  252.85   13.93
   3  -6  -8  228.17   11.47
  -3   6   7  374.05   15.86
   3  -6  -7  356.06   13.10
  -3   6   6   95.57    7.59
  -3   6   6   89.55    9.32
   3  -6  -6   86.65    7.86
   3  -6  -5  973.92   19.84
  -3   6   5 1004.44   21.91
  -3   6   4  244.38   10.67
  -3   6   4  244.02   11.69
   3  -6  -4  249.89   10.54
  -3   6   3  326.11   11.83
   3  -6  -3  305.77   11.47
  -3   6   3  302.59   12.49
  -3   6   2 1687.91   25.57
  -3   6   2 1663.58   25.68
   3  -6  -1  383.96   12.73
  -3   6   1  414.80   13.19
   3  -6  -1  463.21   11.22
  -3   6   1  467.74   14.43
  -3   6   0  187.06    9.46
   3  -6   0  182.79    9.21
   3  -6   0  184.89    8.15
  -3   6   0  193.32   10.23
  -3   6  -1  930.82   18.48
  -3   6  -1  943.18   20.36
   3  -6   1  920.83   17.07
   3  -6   1  877.58   18.36
   3  -6   2  211.59    9.58
  -3   6  -2  212.46    9.76
  -3   6  -2  197.99   10.77
   3  -6   2  188.69    9.46
  -3   6  -3  399.82   12.74
   3  -6   3  382.05   13.24
  -3   6  -4  600.25   15.26
   3  -6   4  625.93   16.22
   3  -6   4  627.58   16.52
   3  -6   5    8.65    5.30
  -3   6  -5   12.49    5.28
   3  -6   6  400.30   15.24
  -3   6  -6  411.96   13.57
   3  -6   7  103.63    9.08
  -3   6  -7   97.44    8.15
   3  -6   8   65.50    8.68
  -3   5   9  904.52   23.51
   3  -5  -9  893.57   23.75
   3  -5  -8  335.02   12.04
  -3   5   8  369.16   15.31
  -3   5   7  251.55   12.47
   3  -5  -7  232.10   10.03
   3  -5  -6  754.81   16.45
  -3   5   6  767.36   19.14
  -3   5   6  779.71   15.67
  -3   5   5   21.52    5.72
  -3   5   5   28.92    4.85
   3  -5  -5   24.21    4.96
   3  -5  -4  573.46   13.78
  -3   5   4  591.47   15.55
  -3   5   4  612.57   14.37
   3  -5  -3  183.26    6.35
  -3   5   3  156.30    8.72
   3  -5  -3  159.01    8.11
  -3   5   3  193.19    9.02
  -3   5   2  414.73   12.49
   3  -5  -2  429.77    9.64
  -3   5   2  405.24   12.15
   3  -5  -1 1400.34   17.63
  -3   5   1 1380.97   20.94
  -3   5   1 1399.81   21.97
  -3   5   0  221.57    9.20
  -3   5   0  224.69    9.95
   3  -5   0  218.89    8.08
   3  -5   0  206.00    9.01
  -3   5  -1  724.13   14.91
  -3   5  -1  728.68   11.07
  -3   5  -1  702.38   16.38
   3  -5   1  700.11   15.26
   3  -5   1  711.33   14.24
  -3   5  -2 1673.29   24.95
  -3   5  -2 1658.40   21.76
  -3   5  -2 1659.57   17.43
   3  -5   2 1606.06   22.78
   3  -5   3  405.01   12.34
  -3   5  -3  400.41    9.67
  -3   5  -3  409.19   11.35
   3  -5   3  379.99   11.74
  -3   5  -3  432.43   13.58
  -3   5  -4  416.75   10.69
   3  -5   4  413.77   13.03
  -3   5  -4  426.38   11.83
   3  -5   4  434.78   12.73
  -3   5  -5 2238.30   25.81
  -3   5  -5 2254.79   25.59
   3  -5   6  149.71    9.87
  -3   5  -6  160.99    8.67
  -3   5  -6  150.68    8.21
  -3   5  -7  379.27   13.15
   3  -5   7  393.91   14.73
  -3   5  -7  374.50   12.21
   3  -5   8  292.15   13.17
  -3   5  -8  273.17   11.27
  -3   5  -8  270.42   12.74
  -3   5  -9    6.89    6.03
   3  -5   9   11.79    6.35
  -3   5 -10  408.87   17.31
  -3   4  11  424.88   16.00
   3  -4 -10   43.40    8.81
  -3   4  10   40.55    7.42
   3  -4  -9  523.40   17.64
  -3   4   9  530.31   15.40
  -3   4   8 1194.55   24.15
   3  -4  -8 1145.84   23.87
   3  -4  -8 1135.32   18.87
  -3   4   8 1162.04   20.36
  -3   4   7  146.07    9.81
  -3   4   7  136.05    7.69
   3  -4  -7  134.78    7.34
  -3   4   7  148.30    7.13
  -3   4   6  784.73   14.68
   3  -4  -6  751.27   14.91
  -3   4   6  765.36   18.10
  -3   4   6  781.11   14.40
   3  -4  -5 1686.48   21.13
  -3   4   5 1746.35   25.39
  -3   4   5 1709.96   18.96
  -3   4   5 1723.02   21.48
   3  -4  -4  316.38    7.39
   3  -4  -4  290.70    9.32
  -3   4   4  277.93    7.22
  -3   4   4  282.83   10.81
  -3   4   4  319.06    9.92
   3  -4  -3  689.48   13.58
  -3   4   3  693.84   14.99
  -3   4   3  715.85   14.34
   3  -4  -2 1516.65   16.47
  -3   4   2 1484.22   20.37
  -3   4   2 1518.12   20.57
   3  -4  -1  118.84    5.73
  -3   4   1  114.21    6.59
  -3   4   1   96.83    6.54
   3  -4  -1  100.74    6.47
  -3   4   0 1112.10   16.66
  -3   4   0 1123.83   12.60
   3  -4   0 1158.92   15.83
   3  -4   0 1095.41   16.84
  -3   4   0 1101.32   18.42
   3  -4   1  575.47   12.71
  -3   4  -1  580.68    9.84
  -3   4  -1  605.95   14.21
  -3   4  -1  572.16   11.99
   3  -4   1  620.09   12.50
  -3   4  -2 1060.37   15.59
   3  -4   2 1043.98   16.61
   3  -4   2 1001.65   16.65
  -3   4  -2 1063.30   18.70
  -3   4  -2 1007.09   13.54
   3  -4   3 1633.92   21.58
  -3   4  -3 1551.52   18.59
  -3   4  -3 1643.50   23.02
  -3   4  -3 1583.08   17.82
   3  -4   3 1583.71   21.03
   3  -4   4  256.13    9.23
  -3   4  -4  266.18    8.67
   3  -4   4  267.51    5.53
  -3   4  -4  252.01    8.46
   3  -4   4  250.21    9.81
  -3   4  -4  272.77   10.54
   3  -4   5  861.54   17.86
  -3   4  -5  836.07   14.55
   3  -4   5  862.89   11.35
  -3   4  -6 2246.99   24.33
   3  -4   6 2304.08   29.68
   3  -4   6 2302.62   20.70
  -3   4  -7   58.51    6.79
   3  -4   7   60.87    7.00
   3  -4   7   71.97    5.14
   3  -4   8 1061.83   22.39
  -3   4  -8 1048.69   21.91
   3  -4   8 1069.64   17.50
   3  -4   9 1192.69   24.90
  -3   4  -9 1188.65   25.19
  -3   4 -10   76.99    9.73
   3  -4  10   65.89    8.68
  -3   4 -11  190.21   12.82
  -3   3  11    7.22    6.40
   3  -3 -10  451.36   16.54
  -3   3  10  447.50   15.05
   3  -3  -9  591.77   17.73
  -3   3   9  617.07   16.17
   3  -3  -8   35.85    4.36
   3  -3  -8   34.74    7.61
  -3   3   8   36.72    6.00
   3  -3  -7  694.08   12.94
  -3   3   7  709.87   17.12
   3  -3  -7  670.66   16.97
  -3   3   7  686.25   14.58
  -3   3   6   65.32    6.20
  -3   3   6   52.16    4.97
  -3   3   6   55.69    4.74
   3  -3  -6   48.25    4.59
   3  -3  -6   60.69    4.09
   3  -3  -5  707.29   12.52
  -3   3   5  738.35   13.50
  -3   3   5  723.20   15.87
   3  -3  -5  749.80   11.03
  -3   3   5  697.72   12.23
   3  -3  -4 2955.04   24.57
  -3   3   4 2975.46   29.10
  -3   3   4 3101.31   26.97
  -3   3   4 2941.23   21.88
   3  -3  -4 3101.72   21.80
   3  -3  -3  326.34    8.70
  -3   3   3  329.50    6.76
  -3   3   3  337.19    9.48
  -3   3   3  349.99   10.17
   3  -3  -3  344.52    7.79
   3  -3  -2 1878.42   17.35
   3  -3  -2 1724.70   18.81
  -3   3   2 1730.96   11.84
  -3   3   2 1793.35   20.43
  -3   3   2 1813.16   20.83
   3  -3  -1 3574.08   24.38
  -3   3   1 3538.71   26.87
   3  -3  -1 3493.40   26.66
  -3   3   0   82.23    5.17
  -3   3   0   87.97    5.72
  -3   3   0   79.22    4.09
   3  -3   0   90.88    5.14
   3  -3   1 2709.74   23.35
  -3   3  -1 2658.05   21.76
  -3   3  -1 2657.75   19.86
  -3   3  -1 2643.13   25.74
   3  -3   2 1193.55   16.56
  -3   3  -2 1168.12   14.26
  -3   3  -2 1195.16   14.10
  -3   3  -2 1176.35   17.82
  -3   3  -3   36.63    4.03
   3  -3   3   40.71    5.01
   3  -3   3   35.17    1.81
  -3   3  -3   38.47    3.89
  -3   3  -3   41.06    5.31
   3  -3   3   29.91    3.93
   3  -3   4  817.23   15.18
  -3   3  -4  828.09   12.23
  -3   3  -4  827.69   13.89
  -3   3  -4  824.85   15.51
   3  -3   4  865.46    9.69
   3  -3   5  510.95   12.88
  -3   3  -5  517.04   10.37
  -3   3  -5  509.36   12.81
  -3   3  -5  537.69   12.42
   3  -3   6  117.59    7.72
  -3   3  -6  102.25    7.03
   3  -3   6  115.57    5.52
   3  -3   7 1102.79   20.71
  -3   3  -7 1049.18   19.94
   3  -3   7 1097.90   16.06
   3  -3   8  137.28    9.01
  -3   3  -8  131.50    6.58
   3  -3   8  138.96    7.12
  -3   3  -8  133.92    9.23
   3  -3   9 1059.40   22.48
   3  -3   9 1067.76   18.69
  -3   3  -9 1018.01   22.63
   3  -3  10 1028.34   23.02
   3  -3  10 1049.70   20.03
   3  -3  11   20.87    6.56
   3  -3  11    9.50    5.25
  -3   3 -11    2.76    6.81
   3  -3  12  443.15   15.69
  -3   2  12  254.69   13.64
   3  -2 -11  569.43   18.63
  -3   2  11  629.30   18.43
  -3   2  10    2.50    6.05
   3  -2 -10    2.97    6.41
  -3   2   9 1315.45   22.35
   3  -2  -9 1321.18   24.69
   3  -2  -8 1192.12   22.36
   3  -2  -8 1266.02   15.28
  -3   2   8 1257.29   16.75
  -3   2   8 1189.06   20.09
  -3   2   7  204.04    8.58
   3  -2  -7  208.46    6.56
   3  -2  -7  195.39    9.60
  -3   2   7  212.08    7.43
   3  -2  -6 1126.61   13.92
  -3   2   6 1145.26   16.82
  -3   2   6 1130.22   19.21
   3  -2  -6 1110.28   19.34
  -3   2   6 1154.47   15.89
   3  -2  -5  589.15   10.04
  -3   2   5  626.15   13.85
  -3   2   5  583.29   11.20
   3  -2  -5  618.56   10.45
  -3   2   5  592.25   11.47
   3  -2  -4  118.21    4.92
  -3   2   4  113.60    5.10
  -3   2   4  135.65    5.98
   3  -2  -4  138.39    5.38
  -3   2   4  114.81    6.39
   3  -2  -3 1170.05   13.53
   3  -2  -3 1191.52   13.47
  -3   2   3 1154.96   12.13
  -3   2   3 1146.84   15.97
  -3   2   3 1204.11   15.73
  -3   2   2  634.98    7.61
  -3   2   2  621.65   11.13
  -3   2   2  641.69   11.74
   3  -2  -2  626.21   10.16
  -3   2   1  972.11   12.87
   3  -2  -1  963.36   12.80
   3  -2  -1 1008.30   12.62
  -3   2   1 1003.24   14.50
  -3   2   1  967.49    7.02
   3  -2   0 3477.73   23.70
   3  -2   0 3701.48   21.84
  -3   2   0 3601.40   21.15
  -3   2   0 3577.16   26.94
  -3   2   0 3439.34   22.21
   3  -2   0 3472.86   24.07
   3  -2   1  105.89    5.13
  -3   2  -1  100.62    4.32
   3  -2   1  101.44    3.91
  -3   2  -1  102.50    4.50
   3  -2   1   95.92    5.08
   3  -2   2 2583.63   22.27
   3  -2   2 2549.12   21.60
  -3   2  -2 2577.29   17.46
  -3   2  -2 2532.57   19.60
  -3   2  -2 2547.27   23.19
   3  -2   3 1230.94   16.42
   3  -2   3 1242.47    9.17
  -3   2  -3 1211.28   12.07
  -3   2  -3 1202.80   14.52
  -3   2  -3 1209.97   16.47
   3  -2   4    1.55    4.00
  -3   2  -4    2.14    3.52
   3  -2   4    0.98    1.63
  -3   2  -4    2.30    2.44
   3  -2   4    6.06    2.25
  -3   2  -4    2.63    3.34
  -3   2  -5 1576.49   19.70
  -3   2  -5 1466.04   19.03
   3  -2   5 1501.87   20.07
   3  -2   5 1596.42   12.43
   3  -2   5 1515.66   15.17
   3  -2   6 1069.37   18.03
   3  -2   6 1058.60   11.17
  -3   2  -6 1051.76   16.66
  -3   2  -6 1109.33   12.42
  -3   2  -6 1078.00   18.00
   3  -2   6 1063.57   14.40
   3  -2   7   39.29    6.14
   3  -2   7   45.56    4.79
  -3   2  -7   48.03    4.07
  -3   2  -7   37.41    6.34
   3  -2   8 1259.02   21.83
  -3   2  -8 1344.26   15.85
  -3   2  -8 1297.14   22.84
   3  -2   8 1282.70   18.94
   3  -2   9  487.33   15.15
   3  -2   9  498.56   13.25
  -3   2  -9  468.16   15.49
  -3   2  -9  512.06   11.06
   3  -2  10   79.46    7.12
   3  -2  10   77.95    8.12
  -3   2 -10   78.17    8.55
   3  -2  10   68.15    6.26
  -3   2 -11  484.12   17.44
   3  -2  11  474.54   16.04
   3  -2  11  493.76   14.74
   3  -2  11  493.60   14.99
   3  -2  12    0.67    5.78
  -3   2 -12    4.19    6.40
   3  -2  13  397.19   16.03
  -3   1  12  107.42   10.77
   3  -1 -11   70.83    9.04
  -3   1  11   84.43    9.16
  -3   1  10  459.26   14.91
   3  -1 -10  461.89   15.56
   3  -1  -9    0.28    5.20
  -3   1   9    1.59    5.54
   3  -1  -8 1133.20   20.98
  -3   1   8 1105.89   19.19
   3  -1  -7  279.63    6.19
   3  -1  -7  255.91   10.55
  -3   1   7  265.11    9.35
  -3   1   7  280.63    8.11
   3  -1  -6  352.05    6.71
   3  -1  -6  356.80   11.30
  -3   1   6  364.76    9.92
  -3   1   6  351.10    8.92
  -3   1   5 2891.72   23.83
   3  -1  -5 3022.44   18.50
  -3   1   5 2937.31   18.42
   3  -1  -5 2966.71   27.74
  -3   1   5 2997.80   24.23
   3  -1  -4 1256.43   11.96
  -3   1   4 1285.79   16.82
   3  -1  -4 1279.43   17.18
  -3   1   4 1304.67   15.87
  -3   1   4 1277.79   14.40
  -3   1   3  204.97    6.73
   3  -1  -3  208.23    5.20
  -3   1   3  201.57    6.84
  -3   1   3  198.31    5.44
   3  -1  -3  210.34    6.09
   3  -1  -2 2124.20   17.30
  -3   1   2 2101.15   18.06
  -3   1   2 2055.78   13.91
  -3   1   2 2073.56   19.39
   3  -1  -2 2109.76   15.80
  -3   1   1 1726.09   14.86
  -3   1   1 1724.32   17.46
   3  -1  -1 1762.57   15.70
   3  -1  -1 1726.51   14.67
  -3   1   0 1254.33   11.45
   3  -1   0 1346.49   11.61
  -3   1   0 1303.60   12.53
  -3   1   0 1283.23   15.00
   3  -1   0 1321.25   13.30
   3  -1   0 1281.81   13.76
   3  -1   1 3635.51   23.57
   3  -1   1 3823.68   16.69
  -3   1  -1 3648.18   25.05
  -3   1  -1 3714.82   17.51
  -3   1  -1 3689.60   21.50
   3  -1   1 3795.22   22.97
   3  -1   2  126.55    5.56
  -3   1  -2  122.09    2.53
  -3   1  -2  129.86    3.47
  -3   1  -2  138.42    5.71
  -3   1  -2  126.16    5.05
   3  -1   3  744.05    6.02
  -3   1  -3  746.17   11.77
  -3   1  -3  722.83    7.44
  -3   1  -3  709.44   10.96
  -3   1  -3  726.12    7.35
   3  -1   4  610.30   11.55
   3  -1   4  649.88    5.99
  -3   1  -4  658.73    8.42
   3  -1   4  638.77    8.81
  -3   1  -4  623.08   11.24
  -3   1  -4  630.27   10.99
   3  -1   5    9.84    3.82
   3  -1   5   10.46    1.59
  -3   1  -5   11.07    3.21
  -3   1  -5   15.99    2.06
   3  -1   5   16.09    2.89
  -3   1  -5   16.78    4.05
   3  -1   6 1637.14   20.56
   3  -1   6 1688.36   12.84
   3  -1   6 1625.21   17.76
  -3   1  -6 1678.86   21.54
  -3   1  -6 1666.92   18.25
  -3   1  -7 1601.77   14.22
   3  -1   7 1645.72   14.50
   3  -1   7 1606.42   19.38
  -3   1  -7 1578.42   22.41
   3  -1   7 1617.97   21.70
  -3   1  -8  531.11    9.41
   3  -1   8  553.82   13.94
   3  -1   8  517.06   12.41
  -3   1  -8  560.71   15.10
  -3   1  -9 1862.51   18.74
   3  -1   9 1895.34   26.02
  -3   1  -9 1807.81   27.35
   3  -1   9 1884.58   24.35
   3  -1  10  552.54   14.72
  -3   1 -10  549.12   11.62
   3  -1  10  551.79   15.49
   3  -1  10  518.64   14.20
  -3   1 -10  520.45   16.48
   3  -1  11  155.76    9.34
   3  -1  11  152.52    9.37
   3  -1  11  143.57    8.65
  -3   1 -11  143.63   10.63
   3  -1  12 1022.38   22.27
   3  -1  12  987.06   21.36
   3  -1  13  102.24    9.69
   3  -1  13   98.83    8.34
   3   0 -11  367.40   14.71
  -3   0  11  418.04   15.47
   3   0 -10  122.45    9.46
  -3   0  10  120.46    8.79
   3   0  -9 1626.51   25.73
  -3   0   9 1648.69   24.70
   3   0  -8  106.06    7.48
  -3   0   8  117.70    7.81
  -3   0   8  117.98    5.76
   3   0  -7  424.89   12.30
  -3   0   7  447.40   10.06
   3   0  -7  433.21    5.31
  -3   0   6  580.34   12.15
   3   0  -6  587.09    6.30
   3   0  -6  573.98   13.19
  -3   0   6  598.36   11.17
   3   0  -5   13.01    4.18
  -3   0   5    9.84    3.48
  -3   0   5   13.78    3.38
   3   0  -5    9.21    1.47
  -3   0   4 1561.21   16.03
  -3   0   4 1566.50   16.86
   3   0  -4 1584.97   10.53
   3   0  -3  458.23    9.31
  -3   0   3  448.22    9.14
   3   0  -3  457.62    5.92
  -3   0   2 1248.33    9.63
   3   0  -2 1214.09   13.17
   3   0  -2 1223.24    9.97
   3   0  -1 6206.38   25.75
   3   0  -1 6181.96   26.14
  -3   0   1 5901.46   30.30
   3   0  -1 6220.32   23.46
  -3   0   1 6579.82   23.10
   3   0  -1 6115.44   27.93
   3   0   0 2866.41   17.89
  -3   0   0 2637.26   13.71
   3   0   0 2636.50   13.94
   3   0   0 2634.59   14.78
  -3   0   0 2613.42   17.09
   3   0   0 2554.17   18.28
  -3   0   0 2523.54   19.43
   3   0   0 2708.78   19.49
  -3   0   0 2784.65   16.24
   3   0   1 1138.25   11.44
  -3   0  -1 1059.96   12.61
   3   0   1 1089.16   12.50
  -3   0  -1 1069.55   11.46
  -3   0  -1 1085.60    6.85
   3   0   1 1080.43    7.64
   3   0   1 1055.96    6.69
   3   0   1 1084.11   12.37
  -3   0  -1 1153.89   11.32
  -3   0  -1 1101.45   12.31
   3   0   2 9182.09   35.55
  -3   0  -2 8956.95   99.70
  -3   0  -2 8816.38  138.65
   3   0   2 8748.13  140.82
  -3   0  -2 8836.07  134.28
   3   0   3 1649.90   16.06
  -3   0  -3 1707.71   16.05
  -3   0  -3 1714.40   12.59
  -3   0  -3 1628.05   15.23
   3   0   3 1750.34   15.72
  -3   0  -4 2162.15   16.20
   3   0   4 2158.63   16.52
  -3   0  -4 2092.09   19.16
  -3   0  -4 2084.25   17.53
   3   0   4 2134.28   19.35
  -3   0  -4 2128.14    8.18
   3   0   4 2208.49   17.84
  -3   0  -5 3060.24   12.71
   3   0   5 3068.74   24.53
   3   0   5 3057.74   21.99
  -3   0  -5 3047.04   25.35
  -3   0  -5 3095.68   21.10
   3   0   6  480.95   10.84
  -3   0  -6  461.34    6.40
   3   0   6  452.16    9.98
  -3   0  -6  456.81   11.37
  -3   0  -6  449.18    8.64
  -3   0  -7 1512.67   13.26
   3   0   7 1516.25   19.53
   3   0   7 1488.96   18.95
  -3   0  -7 1488.21   21.22
   3   0   8  561.14   13.04
  -3   0  -8  567.25    9.55
   3   0   8  550.74   12.89
  -3   0  -8  568.83   14.55
   3   0   9  232.66    9.72
  -3   0  -9  223.94    7.21
  -3   0  -9  244.70   11.05
   3   0   9  241.17    9.66
  -3   0 -10  456.05   10.61
   3   0  10  413.97   12.94
   3   0  10  461.44   13.29
   3   0  10  450.67   13.74
  -3   0 -10  440.65   14.72
  -3   0 -11  156.47    7.51
   3   0  11  160.39    9.04
   3   0  11  149.89    8.72
   3   0  11  167.64    9.56
  -3   0 -11  152.49   10.30
   3   0  12  237.44   11.96
  -3   0 -12  216.16   12.79
   3   0  12  231.52   11.03
   3   0  13 1166.97   25.30
   3   0  13 1143.49   24.03
  -3   0 -13 1121.31   26.18
   3   0  14  359.56   14.58
   3   1 -11  421.68   15.33
  -3  -1  11  426.77   15.33
   3   1 -10  143.39    9.50
  -3  -1  10  146.19    9.09
   3   1  -9  489.09   14.65
  -3  -1   9  519.82   11.76
  -3  -1   9  485.63   14.36
   3   1  -8 2174.50   27.65
  -3  -1   8 2209.01   22.53
   3   1  -7  803.07   16.15
  -3  -1   7  830.05   15.81
  -3  -1   7  820.35   13.66
   3   1  -6  712.62   14.38
  -3  -1   6  742.64   12.52
  -3  -1   6  723.82   13.74
  -3  -1   5 3792.70   26.97
   3   1  -5 3843.07   29.46
   3   1  -4 1064.09   14.63
  -3  -1   4 1073.25   14.04
   3   1  -3 1199.06   14.01
  -3  -1   3 1221.00    5.93
  -3  -1   3 1215.34   14.42
  -3  -1   2 2708.40   10.75
   3   1  -2 2697.06   18.61
  -3  -1   2 2658.69   20.44
   3   1  -1 1637.42   15.12
   3   1  -1 1563.21   12.53
  -3  -1   1 1573.55   15.26
  -3  -1   1 1614.57    9.86
   3   1   0 4570.11   17.77
  -3  -1   0 4436.62   24.42
  -3  -1   0 4609.71   19.07
   3   1   0 4432.63   23.53
   3   1   1  757.33    5.75
  -3  -1  -1  765.98    6.28
  -3  -1  -1  741.02    9.30
   3   1   1  770.40    9.80
  -3  -1  -1  766.39   10.01
   3   1   1  761.28    9.76
  -3  -1  -2 1298.69   12.75
   3   1   2 1301.44   12.19
  -3  -1  -2 1269.74   12.42
  -3  -1  -2 1278.66   12.57
  -3  -1  -3 4315.46   21.87
  -3  -1  -3 4145.10   42.50
   3   1   3 4304.41   21.62
  -3  -1  -3 4266.42   24.00
  -3  -1  -3 4408.69   24.27
  -3  -1  -3 4319.18   22.06
   3   1   3 4177.35   23.63
   3   1   4  345.69    7.48
  -3  -1  -4  363.20    8.23
  -3  -1  -4  361.26    3.62
  -3  -1  -4  362.36    4.85
   3   1   4  354.72    6.39
  -3  -1  -4  372.30    7.42
  -3  -1  -4  353.52    6.38
   3   1   5 1641.08   16.51
  -3  -1  -5 1607.32   10.16
   3   1   5 1616.11   16.72
  -3  -1  -5 1651.81   12.53
   3   1   5 1669.74   13.50
  -3  -1  -5 1646.76   13.49
  -3  -1  -5 1578.19   17.73
   3   1   6 6145.08   33.79
  -3  -1  -6 6435.05   28.37
  -3  -1  -6 6270.88   95.77
   3   1   6 6065.17   35.18
   3   1   6 6356.86   26.03
  -3  -1  -6 6217.23   37.47
  -3  -1  -6 6089.82   26.09
   3   1   7  975.43   14.68
   3   1   7  956.32   10.29
  -3  -1  -7  930.99   10.97
   3   1   7  924.92   15.41
  -3  -1  -7  946.57   16.38
  -3  -1  -7  949.64   10.34
   3   1   8  892.92   14.97
  -3  -1  -8  893.02   12.23
   3   1   8  884.27   16.14
   3   1   8  912.78   10.07
  -3  -1  -8  915.38   17.16
   3   1   9 1447.04   20.06
  -3  -1  -9 1463.98   16.89
   3   1   9 1443.96   21.82
   3   1   9 1403.89   21.86
   3   1  10  155.65    8.01
  -3  -1 -10  150.53    6.91
   3   1  10  147.45    9.01
   3   1  10  136.31    8.27
  -3  -1 -10  135.99    9.13
   3   1  11  317.70   11.16
  -3  -1 -11  307.55    9.88
   3   1  11  322.41   12.59
   3   1  11  302.91   11.99
  -3  -1 -11  314.58   13.12
  -3  -1 -12  365.03   11.60
   3   1  12  366.05   14.46
   3   1  12  323.89   12.99
  -3  -1 -12  334.97   14.03
   3   1  13   12.05    8.37
   3   1  13    3.84    5.43
  -3  -1 -13   16.71    7.30
   3   1  14  430.11   15.99
  -3  -2  11   14.41    6.18
   3   2 -11   20.65    6.62
  -3  -2  10  407.38   14.63
   3   2 -10  433.83   14.89
  -3  -2   9  203.48    9.76
   3   2  -9  199.98   10.46
  -3  -2   9  214.17    8.22
  -3  -2   8  166.66    7.37
   3   2  -8  167.49    9.02
  -3  -2   8  179.76    9.15
   3   2  -7 1414.69   21.01
  -3  -2   7 1462.03   18.97
  -3  -2   7 1389.54   20.36
   3   2  -6  373.77   10.83
  -3  -2   6  380.04    9.97
   3   2  -5 1563.69   19.02
  -3  -2   5 1557.69   18.51
   3   2  -4 3465.64   25.65
  -3  -2   4 3554.13   26.80
  -3  -2   3  450.39    9.66
   3   2  -3  466.04    9.17
   3   2  -2 2254.07   17.21
  -3  -2   2 2163.24   19.52
  -3  -2   1 3927.79   20.42
   3   2  -1 3842.09   24.46
   3   2   0 1196.57    9.89
   3   2   0 1292.87   11.53
   3   2   0 1203.72   12.94
  -3  -2   0 1247.17   10.17
  -3  -2   0 1162.01   12.86
   3   2   1  574.02    7.66
  -3  -2  -1  566.70    6.13
  -3  -2  -1  539.18    7.57
   3   2   1  563.16    8.48
  -3  -2  -1  548.21    8.42
   3   2   1  535.47    6.10
  -3  -2  -2 1482.73    8.84
  -3  -2  -2 1532.56   13.00
   3   2   2 1487.63    8.59
   3   2   2 1570.86   12.70
  -3  -2  -2 1468.49   12.84
   3   2   2 1476.19   12.86
   3   2   2 1519.98   12.83
  -3  -2  -3  346.88    6.06
   3   2   3  347.05    4.78
  -3  -2  -3  358.52    4.81
   3   2   3  349.95    5.88
   3   2   3  339.33    6.54
  -3  -2  -3  334.77    6.76
  -3  -2  -3  358.25    4.67
  -3  -2  -3  363.82    6.71
   3   2   4 1352.07   12.99
  -3  -2  -4 1356.40   14.28
   3   2   4 1383.52   10.69
  -3  -2  -4 1375.48   10.91
  -3  -2  -4 1367.80   13.21
  -3  -2  -4 1354.30   11.04
   3   2   5 1832.32   15.97
   3   2   5 1857.67   14.47
  -3  -2  -5 1834.33   17.97
  -3  -2  -5 1831.42   12.05
   3   2   6  815.81   11.56
   3   2   6  820.92    7.48
  -3  -2  -6  804.62   13.45
  -3  -2  -6  835.29    7.67
   3   2   7 3157.57   23.78
  -3  -2  -7 3230.69   22.27
   3   2   7 3252.12   28.58
   3   2   7 3159.67   28.95
   3   2   7 3297.55   13.85
  -3  -2  -7 3106.43   27.66
   3   2   8   32.39    3.89
  -3  -2  -8   36.33    4.01
   3   2   8   33.39    5.97
   3   2   8   34.51    1.54
   3   2   8   39.42    5.16
  -3  -2  -8   34.57    5.16
   3   2   9 1383.86   18.36
  -3  -2  -9 1326.78   17.13
   3   2   9 1356.23   21.37
   3   2   9 1315.04   21.53
  -3  -2  -9 1357.21   21.27
   3   2  10 1592.99   20.73
  -3  -2 -10 1604.19   19.98
   3   2  10 1520.60   23.90
   3   2  10 1501.29   24.10
  -3  -2 -10 1494.94   23.59
   3   2  11  136.89    7.29
  -3  -2 -11  121.06    7.04
   3   2  11  154.79    9.34
   3   2  11  128.70    8.38
  -3  -2 -11  138.57    8.92
  -3  -2 -12  394.75   12.28
   3   2  12  407.33   15.12
   3   2  12  384.14   14.22
  -3  -2 -12  387.75   14.61
   3   2  13 1042.63   23.78
   3   2  13 1016.73   22.82
  -3  -2 -13 1023.02   23.45
   3   2  14   65.50    8.29
   3   3 -11  497.43   17.20
  -3  -3  11  491.29   17.23
   3   3 -10   28.51    7.24
  -3  -3  10   39.73    7.20
   3   3  -9  970.56   20.18
  -3  -3   9  945.65   17.34
   3   3  -8  857.73   17.98
  -3  -3   8  860.18   16.17
  -3  -3   8  820.58   17.39
  -3  -3   7    2.89    3.94
   3   3  -7   -1.55    4.95
   3   3  -6  819.49   15.29
  -3  -3   6  859.48   15.49
   3   3  -5  635.60    9.94
  -3  -3   5  614.27   12.98
   3   3  -4  216.89    7.68
   3   3  -4  225.98    5.26
  -3  -3   4  215.74    8.10
  -3  -3   3 2801.92   25.39
   3   3  -3 2831.86   22.13
   3   3  -2   66.05    4.16
  -3  -3   2   64.42    2.05
  -3  -3   2   66.93    5.40
  -3  -3   1 2209.54   12.72
  -3  -3   1 2218.21   20.84
  -3  -3   0 3161.24   18.19
   3   3   0 3204.27   17.86
  -3  -3   0 2886.76   22.25
   3   3   0 2883.55   17.89
  -3  -3  -1 1094.25   10.14
   3   3   1 1090.61   12.99
  -3  -3  -1 1092.58   12.80
   3   3   1 1127.33   10.26
   3   3   2 3438.72   17.99
   3   3   2 3359.83   17.58
   3   3   2 3485.76   21.16
  -3  -3  -2 3529.40   18.18
  -3  -3  -2 3367.59   20.54
  -3  -3  -2 3285.85   18.04
  -3  -3  -3 1526.40   13.02
   3   3   3 1525.82   12.47
  -3  -3  -3 1616.09   12.79
   3   3   3 1632.60   13.02
  -3  -3  -3 1537.14   12.70
   3   3   3 1578.52   13.24
   3   3   3 1518.44   12.58
  -3  -3  -4   17.38    2.97
   3   3   4   23.05    2.50
   3   3   4   21.40    2.63
   3   3   4   29.19    2.56
  -3  -3  -4   24.39    2.67
  -3  -3  -4   20.60    2.00
   3   3   4   20.07    2.04
   3   3   5 1534.75   13.23
  -3  -3  -5 1570.25   10.33
   3   3   5 1527.85   14.72
   3   3   5 1490.03   18.05
  -3  -3  -5 1520.83   15.54
  -3  -3  -5 1551.40   13.39
   3   3   5 1561.43   10.70
   3   3   6 2297.91   17.23
  -3  -3  -6 2293.10   21.02
   3   3   6 2283.48   23.97
   3   3   6 2282.50   10.80
  -3  -3  -6 2256.99   10.15
  -3  -3  -6 2247.63   17.10
   3   3   7   13.36    4.87
   3   3   7    9.63    2.54
   3   3   7   10.22    3.36
   3   3   7   11.41    3.78
  -3  -3  -7   23.03    4.32
   3   3   8 1552.27   22.67
   3   3   8 1629.49   22.19
   3   3   8 1562.83   19.10
  -3  -3  -8 1566.51   20.51
   3   3   8 1582.83   16.49
   3   3   9  213.79    7.06
   3   3   9  210.22    9.91
  -3  -3  -9  204.23    9.39
   3   3   9  202.47    9.53
  -3  -3  -9  199.95    8.02
   3   3  10  739.54   13.06
   3   3  10  685.56   16.76
  -3  -3 -10  711.70   14.47
   3   3  10  693.88   16.99
  -3  -3 -10  721.54   16.28
  -3  -3 -11  685.17   15.12
   3   3  11  683.33   18.11
   3   3  11  654.62   17.20
  -3  -3 -11  650.96   16.58
   3   3  12   29.05    7.24
  -3  -3 -12   21.66    4.83
   3   3  12   33.16    5.79
  -3  -3 -12   22.65    5.36
  -3  -3 -13  608.94   16.33
   3   3  13  579.64   18.67
   3   3  13  563.90   17.68
  -3  -3 -13  565.56   17.85
   3   3  14  495.25   17.43
  -3  -3 -14  488.63   17.56
   3   4 -11  187.11   12.27
  -3  -4  11  167.04   11.63
   3   4 -10  228.30   12.22
  -3  -4  10  213.71   11.58
  -3  -4  10  224.63    9.94
  -3  -4   9   -1.40    5.73
   3   4  -9    7.98    5.59
  -3  -4   9    3.39    3.98
   3   4  -8 1119.82   20.56
  -3  -4   8 1149.72   21.05
  -3  -4   8 1159.59   20.27
   3   4  -7 1097.51   19.43
  -3  -4   7 1179.37   20.14
   3   4  -6  320.92   10.42
  -3  -4   6  321.31   11.03
   3   4  -5 2050.54   22.90
  -3  -4   5 2081.92   25.74
   3   4  -4 1328.60   17.39
  -3  -4   4 1323.85   20.20
  -3  -4   4 1274.27    8.85
  -3  -4   3  112.61    3.15
   3   4  -3  110.17    5.68
   3   4  -3  118.02    2.70
   3   4  -2 3467.17   24.52
  -3  -4   2 3549.96   17.11
  -3  -4   1 1335.19   11.34
  -3  -4   1 1342.31   18.27
   3   4  -1 1382.06   15.07
  -3  -4   0  213.59    5.38
   3   4   0  212.13    6.26
  -3  -4   0  213.28    7.43
  -3  -4  -1 3253.59   24.94
  -3  -4  -1 3276.32   21.51
   3   4   1 3336.16   21.34
   3   4   1 3337.60   21.66
  -3  -4  -2  289.44    7.50
   3   4   2  312.84    5.38
   3   4   2  288.92    6.78
  -3  -4  -2  307.20    5.39
  -3  -4  -2  314.54    7.96
   3   4   2  325.42    7.05
   3   4   3 3352.95   21.81
  -3  -4  -3 3521.87   21.98
   3   4   3 3348.66   24.17
  -3  -4  -3 3499.79   18.52
   3   4   4 2395.22   19.39
  -3  -4  -4 2488.64   16.55
   3   4   4 2554.72   16.61
  -3  -4  -4 2334.27   16.56
   3   4   4 2462.22   22.86
   3   4   4 2446.91   15.18
   3   4   5  196.45    4.64
   3   4   5  211.65    6.63
  -3  -4  -5  210.87    4.42
  -3  -4  -5  205.73    5.90
   3   4   5  193.61    7.55
   3   4   6 1746.50   13.25
   3   4   6 1704.88   18.54
  -3  -4  -6 1742.53   17.30
  -3  -4  -6 1726.89    9.65
   3   4   7  911.38   14.60
  -3  -4  -7  881.62   13.86
   3   4   7  865.91   16.64
   3   4   7  908.23   10.21
   3   4   8  182.07    5.39
   3   4   8  169.22    7.75
   3   4   8  176.45    9.06
  -3  -4  -8  182.53    7.70
   3   4   9 2445.99   29.25
   3   4   9 2521.02   27.20
   3   4   9 2471.64   30.42
  -3  -4  -9 2454.68   26.44
   3   4  10  616.91   16.61
  -3  -4 -10  597.94   14.52
   3   4  11   67.80    8.14
  -3  -4 -11   67.38    6.40
   3   4  11   56.37    6.53
  -3  -4 -11   68.97    6.47
   3   4  12  533.98   17.34
  -3  -4 -12  487.19   14.44
   3   4  12  527.92   16.92
  -3  -4 -12  491.32   14.91
   3   4  13  128.17   11.46
  -3  -4 -13  122.69    8.87
   3   4  13  134.19   10.13
  -3  -4 -13  125.55    9.79
  -3  -4 -13  129.80    8.92
  -3  -4 -14  153.66   10.82
   3   5 -10   97.37    9.61
  -3  -5  10   76.20    8.90
  -3  -5  10   73.33    7.52
   3   5  -9  607.70   17.43
  -3  -5   9  636.18   17.69
  -3  -5   9  648.33   17.26
   3   5  -8  362.14   13.39
  -3  -5   8  374.18   13.24
   3   5  -7  329.29   11.82
  -3  -5   7  326.68   12.22
   3   5  -6  535.86   13.92
  -3  -5   6  553.44   15.37
   3   5  -5  257.20    9.81
  -3  -5   5  259.87    5.34
  -3  -5   5  255.37   10.62
   3   5  -4 1908.63   22.37
  -3  -5   4 1917.33   14.33
  -3  -5   3  931.55   10.35
  -3  -5   3 1005.52   19.06
   3   5  -3 1021.17   12.07
   3   5  -3  960.86   15.54
   3   5  -2  259.36    8.41
  -3  -5   2  261.23    5.92
  -3  -5   2  279.72   10.34
  -3  -5   1 4140.17   23.06
  -3  -5   1 4124.12   34.92
  -3  -5   0 2982.93   20.60
  -3  -5   0 3075.03   28.95
   3   5   1 1377.75   16.10
   3   5   1 1411.44   12.30
  -3  -5  -1 1399.46   18.64
  -3  -5  -1 1351.48   15.09
   3   5   2 5507.79   31.40
  -3  -5  -2 5452.96   33.98
  -3  -5  -2 5521.56   32.17
  -3  -5  -3  738.79   11.86
   3   5   3  720.43   11.95
  -3  -5  -3  720.76    7.79
  -3  -5  -3  720.28   12.83
   3   5   3  724.95   12.09
  -3  -5  -4  972.67   15.73
   3   5   4 1015.98   14.56
  -3  -5  -4 1013.51   10.22
  -3  -5  -4 1011.33   12.66
   3   5   4 1028.44   15.55
   3   5   4 1010.20    9.47
   3   5   5 1070.91   15.41
  -3  -5  -5 1040.11   17.06
   3   5   5 1076.20   17.26
  -3  -5  -5 1087.55   11.73
  -3  -5  -5 1081.49   11.75
   3   5   5 1079.68    9.34
   3   5   6   30.31    2.05
   3   5   6   26.03    4.41
  -3  -5  -6   28.07    2.25
  -3  -5  -6   33.99    5.35
  -3  -5  -6   25.05    3.26
   3   5   6   26.58    5.00
  -3  -5  -6   27.45    2.11
   3   5   7  232.96    9.52
   3   5   7  234.64    4.36
  -3  -5  -7  213.33    3.25
  -3  -5  -7  225.88    7.14
  -3  -5  -7  235.27    3.49
  -3  -5  -7  216.03    9.06
   3   5   7  227.30    8.75
   3   5   8  862.73    8.69
   3   5   8  813.43   15.76
   3   5   8  840.84   17.83
  -3  -5  -8  851.25   14.12
   3   5   9   55.17    6.49
   3   5   9   49.68    6.93
  -3  -5  -9   64.30    5.58
  -3  -5  -9   53.89    6.69
   3   5  10 1400.97   22.92
  -3  -5 -10 1394.82   20.70
  -3  -5 -10 1445.55   23.65
   3   5  11  649.71   16.72
   3   5  11  681.98   18.49
  -3  -5 -11  634.27   16.54
  -3  -5 -12  204.66   10.55
  -3  -5 -12  191.54   10.34
   3   5  12  201.38   11.90
  -3  -5 -12  198.03   10.06
  -3  -5 -13 1210.97   24.20
  -3  -5 -13 1246.61   23.83
  -3  -5 -13 1208.78   23.41
  -3  -5 -14  191.64   11.25
  -3  -5 -14  182.55   10.81
  -3  -6  10  319.92   14.79
  -3  -6  10  294.37   13.51
   3   6 -10  297.94   14.38
   3   6  -9  137.99   10.69
  -3  -6   9  146.45   10.11
  -3  -6   9  141.92   10.23
   3   6  -8 1685.35   27.65
  -3  -6   8 1804.46   29.51
  -3  -6   7  644.59   18.35
   3   6  -7  587.60   16.42
  -3  -6   6  436.89   15.01
   3   6  -6  411.76   13.29
  -3  -6   5 1344.71   24.80
  -3  -6   5 1338.23   14.03
   3   6  -5 1293.73   21.14
   3   6  -4   36.29    5.94
  -3  -6   4   43.71    3.35
  -3  -6   3  439.87    8.52
   3   6  -3  461.01   12.39
   3   6  -2  214.31    8.93
  -3  -6   2  200.17    6.08
  -3  -6   2  212.75    9.70
  -3  -6   1   33.62    3.44
  -3  -6   1   33.13    5.59
   3   6  -1   39.14    5.16
  -3  -6   0 1246.00   15.14
   3   6   0 1304.02   17.98
  -3  -6   0 1262.54   20.30
   3   6   1  881.73   14.57
  -3  -6  -1  836.29   13.05
  -3  -6  -1  846.03   15.92
   3   6   2  824.61   14.13
  -3  -6  -2  826.00   13.71
  -3  -6  -2  838.42   15.15
   3   6   3 4483.19   32.20
   3   6   3 4551.43   16.67
   3   6   3 4510.59   29.22
  -3  -6  -3 4532.44   32.17
   3   6   4 1017.62   16.38
   3   6   4 1089.31   16.22
  -3  -6  -4 1063.82    9.11
  -3  -6  -4 1072.81   15.09
  -3  -6  -4 1005.83   16.90
   3   6   5  740.16   14.41
  -3  -6  -5  774.97   11.78
   3   6   5  763.26   14.91
  -3  -6  -5  773.33    9.13
   3   6   5  766.25    7.47
   3   6   6 2081.46    9.33
   3   6   6 2095.71   24.33
   3   6   6 2135.04   25.96
  -3  -6  -6 2162.36   17.27
  -3  -6  -6 2070.72   16.57
   3   6   7  859.58   16.69
   3   6   7  887.58   18.14
  -3  -6  -7  904.38    9.47
  -3  -6  -7  893.86   12.40
  -3  -6  -7  838.69   17.65
  -3  -6  -8  479.69   13.86
   3   6   8  496.60   13.60
   3   6   8  506.62   14.55
  -3  -6  -8  517.50   10.65
  -3  -6  -9 1331.19   18.00
   3   6   9 1303.30   22.05
   3   6   9 1339.87   24.16
  -3  -6 -10   60.65    7.24
   3   6  10   49.83    7.08
  -3  -6 -10   58.91    5.80
   3   6  11  211.71   10.84
  -3  -6 -11  189.64   10.45
  -3  -6 -11  210.97    9.30
   3   6  12  151.07   10.15
  -3  -6 -12  147.08    8.82
  -3  -6 -12  142.97    9.61
  -3  -6 -13  130.09    9.52
  -3  -6 -13  122.66    9.48
  -3  -6 -14  478.73   16.88
  -3  -7  10  173.18   11.61
  -3  -7   9  184.52   12.09
  -3  -7   9  170.98   10.73
   3   7  -9  172.06   11.63
  -3  -7   8  124.76   10.22
   3   7  -8  124.59   10.60
  -3  -7   7  929.73   22.83
   3   7  -7  870.35   20.59
   3   7  -6   83.01    8.40
  -3  -7   6  105.10    9.75
  -3  -7   5  835.82   21.35
   3   7  -5  811.58   18.41
  -3  -7   4 1656.47   18.10
   3   7  -4 1684.31   24.68
  -3  -7   3  524.10   16.41
   3   7  -3  502.41   14.19
  -3  -7   2  200.77    7.01
   3   7  -2  201.70    9.76
  -3  -7   2  211.43   11.16
  -3  -7   1 1363.58   17.05
   3   7  -1 1386.83   21.02
  -3  -7   1 1419.00   24.27
  -3  -7   0   79.33    5.46
   3   7   0   81.22    6.73
  -3  -7   0   87.68    7.75
  -3  -7  -1  680.19   13.04
   3   7   1  723.53   14.98
   3   7   1  735.93    7.03
  -3  -7  -1  694.09   15.78
   3   7   2  974.69   16.97
  -3  -7  -2  979.97   16.13
  -3  -7  -2  991.12   17.73
   3   7   2  931.71    5.79
   3   7   3   70.69    6.77
  -3  -7  -3   81.63    6.11
  -3  -7  -3   86.77    6.14
   3   7   4 1672.22   22.59
  -3  -7  -4 1624.23   20.29
   3   7   5   53.04    5.79
  -3  -7  -5   67.42    4.97
  -3  -7  -5   55.91    2.31
  -3  -7  -5   57.66    6.51
   3   7   5   68.37    2.55
  -3  -7  -6  565.25   10.71
  -3  -7  -6  575.95    7.87
   3   7   7 1635.32   24.17
  -3  -7  -7 1687.88   16.16
  -3  -7  -7 1635.80   14.87
   3   7   8  383.18   13.10
  -3  -7  -8  397.82   13.60
   3   7   9  713.82   17.59
  -3  -7  -9  666.92   17.51
   3   7  10 1332.16   24.81
  -3  -7 -10 1218.65   23.88
   3   7  11  101.35    9.36
  -3  -7 -11   91.72    8.53
   3   7  12  302.41   14.03
  -3  -7 -12  278.61   13.17
  -3  -7 -13  318.42   13.85
   3   8  -8  356.49   15.74
  -3  -8   8  385.47   16.72
   3   8  -7    1.91    6.91
  -3  -8   7    2.24    6.51
  -3  -8   6  683.00   21.02
   3   8  -6  626.65   18.20
  -3  -8   5  200.16   12.52
   3   8  -5  161.20   10.06
  -3  -8   4  336.03    9.72
  -3  -8   4  358.32   15.12
   3   8  -4  356.06   13.64
  -3  -8   3  677.88   13.46
   3   8  -3  708.83   17.75
  -3  -8   2  124.45    6.55
   3   8  -2  119.96    9.45
  -3  -8   2  118.41   10.05
   3   8  -1 1023.39   19.80
  -3  -8   1 1046.30   22.41
   3   8   0 1841.91   25.62
  -3  -8   0 1894.73   28.57
   3   8   1   27.90    6.55
  -3  -8  -1   34.41    5.86
  -3  -8  -1   21.60    4.43
  -3  -8  -2  779.09   15.74
   3   8   2  774.64   16.99
  -3  -8  -2  801.31   17.50
   3   8   3 1315.16   21.58
  -3  -8  -3 1336.56   21.29
  -3  -8  -4    9.19    5.10
   3   8   4    8.52    4.91
  -3  -8  -4    8.73    4.30
  -3  -8  -5  838.56   15.46
   3   8   5  793.78   17.90
  -3  -8  -5  833.53   18.13
   3   8   6  508.27   14.87
  -3  -8  -6  502.25   15.13
   3   8   7  102.35    8.45
  -3  -8  -7  100.08    8.57
   3   8   8  855.23   19.96
  -3  -8  -8  845.69   20.28
   3   8   9   76.32    8.16
  -3  -8  -9   69.25    7.76
   3   8  10  387.18   15.19
  -3  -8 -10  380.52   14.91
   3   8  11  428.91   16.62
  -3  -8 -11  447.01   16.57
  -3  -8 -12    8.82    6.45
  -3  -9   6    4.90    8.04
   3   9  -6    3.49    6.43
   3   9  -5  871.42   22.40
  -3  -9   5  934.43   26.02
   3   9  -4  687.46   19.15
  -3  -9   4  703.85   22.36
   3   9  -3   10.03    5.94
  -3  -9   3   11.00    7.04
  -3  -9   3    5.87    3.90
  -3  -9   2  697.44   15.07
   3   9  -2  730.65   19.08
  -3  -9   2  747.61   21.13
  -3  -9   1  231.28    9.45
   3   9  -1  249.62   12.31
  -3  -9   1  266.54   13.02
  -3  -9   0  450.87   12.75
   3   9   0  475.81   14.93
  -3  -9   0  491.62   16.45
  -3  -9  -1  954.08   18.21
   3   9   1 1007.56   20.72
  -3  -9  -2    9.19    5.12
   3   9   2    4.18    5.26
  -3  -9  -2    4.15    5.48
  -3  -9  -3  693.55   16.78
  -3  -9  -3  692.33   17.03
  -3  -9  -4  443.71   14.42
   3   9   4  456.39   14.69
  -3  -9  -4  476.48   13.79
  -3  -9  -5    8.41    5.77
   3   9   5   13.39    6.22
  -3  -9  -5   18.12    4.82
   3   9   6  869.70   20.52
  -3  -9  -6  855.81   20.55
   3   9   7  875.14   20.95
  -3  -9  -7  842.65   21.13
  -3  -9  -8    0.22    6.46
   3   9   8   -0.62    5.48
   3   9   9  625.51   19.12
  -3  -9  -9  610.23   19.04
   3   9  10  376.37   16.07
  -3  -9 -10  384.27   16.02
   3  10  -4  618.51   20.10
  -3 -10   4  657.59   23.05
   3  10  -3  454.24   16.98
  -3 -10   3  439.18   13.59
  -3 -10   2  117.84    7.95
   3  10  -2  123.45   10.87
  -3 -10   2  125.52   11.59
   3  10  -1 1239.12   25.72
  -3 -10   1 1186.38   21.51
   3  10   0  591.49   18.20
  -3 -10   0  623.38   19.71
  -3 -10  -1   37.61    5.77
   3  10   1   31.73    6.72
  -3 -10  -1   29.37    7.07
   3  10   2  661.73   18.85
  -3 -10  -2  635.43   18.23
  -3 -10  -3  184.20   10.41
   3  10   3  180.68   11.45
  -3 -10  -4  108.33    8.56
   3  10   4  108.99    9.42
  -3 -10  -4  106.88    8.23
  -3 -10  -5  475.54   16.29
   3  10   5  508.04   17.33
  -3 -10  -5  521.92   14.96
  -3 -10  -6   40.22    7.25
   3  10   6   47.68    8.05
   3  10   7  373.48   15.81
  -3 -10  -7  385.17   16.23
   3  10   8  418.64   16.84
  -3 -10  -8  416.11   16.82
  -3 -11   2  176.30    9.86
  -3 -11   1   50.64    6.72
  -3 -11   1   47.50    9.95
   3  11   0  812.56   23.00
  -3 -11   0  847.24   24.34
  -3 -11  -1  366.92   14.19
  -3 -11  -1  405.57   17.19
   3  11   1  374.17   16.38
  -3 -11  -2  142.03    9.82
   3  11   2  165.07   12.26
  -3 -11  -2  144.82   10.89
   3  11   3 1010.29   25.21
  -3 -11  -3 1029.88   24.11
  -3 -11  -4  337.96   14.72
   3  11   4  346.03   15.72
  -3 -11  -4  372.63   14.75
  -3 -11  -5  182.87   11.91
  -3 -12  -4  608.39   19.79
  -4   8   3   21.78    7.94
  -4   8   2  713.43   21.41
  -4   8   1  366.26   15.98
  -4   8   0  125.70   10.56
   4  -8   3   35.49    6.79
   4  -7  -6  600.47   19.16
  -4   7   5  161.33   11.85
  -4   7   5  132.60    9.80
   4  -7  -5  133.29   10.23
  -4   7   4  175.95   11.79
  -4   7   4  158.60   10.56
   4  -7  -4  156.28   10.88
  -4   7   3  439.07   16.43
  -4   7   3  395.25   14.86
   4  -7  -3  401.34   15.28
  -4   7   2   15.62    6.23
  -4   7   2   15.97    6.42
   4  -7  -2   29.54    6.73
  -4   7   1  476.41   16.27
  -4   7   1  495.70   16.92
   4  -7  -1  468.89   15.96
   4  -7   0  353.59   14.34
  -4   7   0  372.54   14.96
   4  -7   1   61.68    7.04
  -4   7  -1   73.31    7.65
   4  -7   1   70.45    7.29
  -4   7  -1   71.27    9.18
  -4   7  -2  577.46   17.13
   4  -7   2  581.10   16.53
   4  -7   3  200.34   10.95
   4  -7   3  217.73   12.14
   4  -7   4  166.12   10.89
   4  -7   4  155.86   10.46
   4  -7   5  850.75   22.41
  -4   6   7  110.35   10.54
   4  -6  -7   88.61    8.42
  -4   6   6  137.88   10.68
   4  -6  -6  114.58    8.83
  -4   6   5  564.21   16.38
  -4   6   5  608.59   18.66
   4  -6  -5  558.72   16.27
   4  -6  -4   54.33    6.66
  -4   6   4   57.30    7.75
  -4   6   4   58.46    7.33
  -4   6   3  469.44   15.13
  -4   6   3  497.86   16.00
   4  -6  -3  445.73   14.51
  -4   6   2 1516.80   25.87
  -4   6   2 1530.17   26.42
   4  -6  -1  278.55   10.00
  -4   6   1  255.01   11.53
  -4   6   1  252.97   12.20
   4  -6  -1  241.24   11.45
   4  -6   0  524.49   13.57
  -4   6   0  482.87   14.80
  -4   6   0  506.97   16.14
   4  -6   0  461.06   14.72
   4  -6   1 1093.80   19.84
  -4   6  -1 1097.34   23.03
  -4   6  -1 1047.97   20.70
   4  -6   1 1017.38   21.03
   4  -6   2   35.58    6.26
  -4   6  -2   33.13    7.13
  -4   6  -2   39.43    6.30
   4  -6   2   36.13    6.69
   4  -6   3  868.87   19.38
  -4   6  -3  832.26   18.51
  -4   6  -3  854.56   21.32
   4  -6   4  339.16   13.47
  -4   6  -4  328.31   12.17
   4  -6   4  308.68   12.90
   4  -6   5   97.15    8.62
   4  -6   6  459.30   16.69
   4  -6   7  121.79   10.95
  -4   5   8  106.23   10.71
   4  -5  -8  107.30    9.89
  -4   5   7  428.76   16.27
   4  -5  -7  419.42   13.55
  -4   5   6  829.99   21.00
  -4   5   6  860.43   18.21
   4  -5  -6  791.53   17.88
  -4   5   5   17.67    6.13
  -4   5   5   17.01    5.13
   4  -5  -5   13.68    5.06
  -4   5   4  409.04   14.07
  -4   5   4  421.30   13.26
   4  -5  -4  379.28   12.38
   4  -5  -3   74.59    5.21
  -4   5   3   72.00    7.23
  -4   5   3   59.68    6.83
   4  -5  -3   57.78    6.42
   4  -5  -2  520.09   11.83
  -4   5   2  475.78   14.25
  -4   5   2  510.79   14.83
   4  -5  -2  490.04   13.90
   4  -5  -1 1077.15   17.21
  -4   5   1 1041.77   20.74
   4  -5   0   -1.93    4.20
  -4   5   0    1.83    4.21
  -4   5   0    1.27    4.28
   4  -5   0   -0.19    4.97
   4  -5   1  816.64   16.20
  -4   5  -1  749.85   15.92
  -4   5  -1  808.06   12.95
   4  -5   1  766.12   17.04
  -4   5  -1  784.66   18.64
   4  -5   2 1458.11   22.23
  -4   5  -2 1445.58   21.27
  -4   5  -2 1486.85   18.39
  -4   5  -2 1516.35   25.43
   4  -5   2 1402.13   22.98
   4  -5   3   53.04    6.68
  -4   5  -3   45.84    5.87
  -4   5  -3   49.75    5.17
   4  -5   3   44.53    6.10
  -4   5  -3   49.56    7.63
   4  -5   4 1218.74   22.35
  -4   5  -4 1215.26   19.73
  -4   5  -4 1184.80   18.22
  -4   5  -4 1193.03   23.74
  -4   5  -5  997.40   17.98
   4  -5   5  962.86   20.82
  -4   5  -5  962.60   17.63
   4  -5   6    2.61    5.14
  -4   5  -6    3.73    4.62
   4  -5   7  263.28   12.95
  -4   5  -7  272.02   11.57
   4  -5   8  246.96   13.42
  -4   5  -8  219.03   11.59
  -4   5  -9   13.16    6.34
  -4   5 -10  328.16   16.27
   4  -4  -9  367.35   15.70
   4  -4  -8  554.22   18.29
   4  -4  -7    7.27    4.53
   4  -4  -7   14.60    6.85
  -4   4   7   12.02    6.09
  -4   4   6 1562.72   26.45
   4  -4  -6 1561.80   22.18
  -4   4   5  996.08   20.51
  -4   4   5 1037.78   18.92
   4  -4  -5  982.65   17.48
   4  -4  -4   74.64    4.79
  -4   4   4   70.49    6.30
  -4   4   4   68.65    7.06
   4  -4  -4   68.75    6.01
   4  -4  -3  942.69   14.44
  -4   4   3  891.34   17.55
  -4   4   3  929.13   17.95
   4  -4  -3  878.96   16.36
   4  -4  -2  785.87   13.57
  -4   4   2  749.65   15.66
  -4   4   2  740.27   16.23
   4  -4  -1    2.32    3.44
  -4   4   1    1.23    4.12
  -4   4   1    3.48    4.63
   4  -4  -1    6.63    3.88
   4  -4   0  327.07    9.86
  -4   4   0  295.72    9.60
  -4   4   0  322.73   11.38
   4  -4   0  277.61    9.70
   4  -4   1   54.78    5.49
  -4   4  -1   62.72    5.45
  -4   4  -1   47.60    4.17
  -4   4  -1   49.31    6.05
   4  -4   1   54.17    5.50
   4  -4   2  616.54   14.12
  -4   4  -2  603.69   12.84
   4  -4   2  581.81   14.25
  -4   4  -2  598.80   15.36
  -4   4  -2  595.99   11.70
   4  -4   3 1075.77   18.90
  -4   4  -3 1061.12   16.30
  -4   4  -3 1009.38   15.70
   4  -4   3  987.33   18.12
  -4   4  -3 1072.30   20.49
  -4   4  -4    0.87    3.71
   4  -4   4    0.67    4.48
  -4   4  -4    2.36    3.73
  -4   4  -4   12.12    5.19
   4  -4   5 1432.01   23.61
  -4   4  -5 1416.76   18.93
  -4   4  -5 1440.16   24.35
   4  -4   6 1018.16   21.13
  -4   4  -6 1041.25   16.82
  -4   4  -6  998.71   18.99
   4  -4   7   73.95    7.82
  -4   4  -7   66.58    5.97
  -4   4  -7   64.95    7.04
   4  -4   8  749.34   19.77
  -4   4  -8  766.80   19.61
   4  -4   9  720.89   20.62
  -4   4  -9  716.25   20.48
   4  -4  10    3.01    6.82
  -4   4 -10    3.59    6.04
  -4   3  10  448.34   15.58
   4  -3  -9   95.75    9.86
  -4   3   9   91.46    8.27
  -4   3   8   31.76    5.90
   4  -3  -8   34.80    7.05
   4  -3  -7  529.89   16.09
  -4   3   7  556.72   13.70
  -4   3   7  581.64   13.72
   4  -3  -7  542.67   12.17
   4  -3  -6    2.33    3.43
   4  -3  -6   17.36    5.64
  -4   3   6    1.66    5.77
  -4   3   6    4.74    4.15
  -4   3   6    1.70    4.05
   4  -3  -6    3.02    3.56
  -4   3   5 1403.42   22.55
  -4   3   5 1349.78   17.21
  -4   3   5 1402.98   20.53
   4  -3  -5 1349.70   18.41
  -4   3   4  941.99   17.74
  -4   3   4  978.01   13.15
  -4   3   4  977.46   17.38
   4  -3  -4  922.85   15.29
   4  -3  -4 1025.92   14.71
  -4   3   3  151.75    8.10
  -4   3   3  160.55    5.10
  -4   3   3  173.70    8.21
   4  -3  -3  150.04    6.97
   4  -3  -3  168.90    6.92
   4  -3  -2 2297.74   22.04
  -4   3   2 2302.32   26.19
  -4   3   2 2219.05   13.03
  -4   3   2 2162.20   23.73
   4  -3  -2 2130.24   22.88
   4  -3  -1 1324.22   17.17
  -4   3   1 1293.99   17.71
   4  -3  -1 1290.23   17.93
   4  -3   0    9.83    4.07
  -4   3   0   12.14    3.74
  -4   3   0   14.65    4.95
   4  -3   0    8.65    4.35
   4  -3   1 2167.84   23.07
  -4   3  -1 2065.10   20.28
  -4   3  -1 2110.69   19.84
   4  -3   1 2078.48   23.13
  -4   3  -1 2157.93   25.65
   4  -3   2 1095.02   17.31
  -4   3  -2 1089.12   14.65
  -4   3  -2 1068.57   15.00
   4  -3   2 1036.41   17.21
  -4   3  -2 1135.90   19.00
   4  -3   3  213.21    9.05
  -4   3  -3  209.53    6.94
  -4   3  -3  204.00    9.46
  -4   3  -3  208.55    7.74
   4  -3   4 1111.93   18.98
  -4   3  -4 1069.35   14.26
  -4   3  -4 1054.44   19.20
   4  -3   5  145.11    8.49
  -4   3  -5  149.60    6.19
  -4   3  -5  154.61    8.60
  -4   3  -5  147.62    7.66
   4  -3   6  684.05   11.21
  -4   3  -6  663.16   12.21
  -4   3  -6  617.87   14.89
   4  -3   6  638.24   16.02
  -4   3  -6  631.56   15.46
   4  -3   7  736.80   17.55
  -4   3  -7  759.18   13.68
  -4   3  -7  715.80   17.12
   4  -3   8   37.72    6.72
   4  -3   8   26.16    4.41
  -4   3  -8   24.56    5.92
  -4   3  -9 1221.67   25.11
   4  -3   9 1283.82   25.31
   4  -3  10  612.01   18.92
  -4   3 -10  565.98   18.77
   4  -3  11   99.18   10.13
  -4   3 -11   89.42   10.02
  -4   2  11  231.67   12.91
   4  -2 -10  156.75   11.63
  -4   2  10  157.80   10.49
   4  -2  -9  754.92   20.02
  -4   2   9  809.80   18.55
   4  -2  -8  531.46   16.39
  -4   2   8  504.32   14.04
  -4   2   7  331.08   10.93
  -4   2   7  342.84   10.45
   4  -2  -7  357.06    9.94
   4  -2  -7  335.53    8.52
  -4   2   6 1760.76   21.31
   4  -2  -6 1733.47   25.45
  -4   2   6 1788.73   22.20
   4  -2  -6 1723.06   18.36
  -4   2   5  283.80    8.59
  -4   2   5  285.81   10.48
   4  -2  -5  271.92   10.84
  -4   2   5  292.88    9.70
   4  -2  -5  308.62    8.92
   4  -2  -5  281.93    7.90
  -4   2   4  454.94    9.30
  -4   2   4  437.99   11.79
  -4   2   4  442.24   11.49
   4  -2  -4  448.89    9.77
   4  -2  -4  475.50   10.50
  -4   2   3 1417.52   13.97
  -4   2   3 1438.11   19.02
  -4   2   3 1414.84   19.38
   4  -2  -3 1422.96   16.73
  -4   2   2   47.11    2.90
  -4   2   2   38.28    4.63
  -4   2   2   40.66    4.71
   4  -2  -2   41.11    4.09
   4  -2  -2   40.00    4.43
  -4   2   1 1334.73   16.03
  -4   2   1 1318.85    8.73
  -4   2   1 1365.38   18.95
   4  -2  -1 1345.59   16.58
   4  -2  -1 1383.66   16.98
   4  -2   0 1846.64   19.80
  -4   2   0 1797.16   17.50
  -4   2   0 1866.12   22.21
   4  -2   0 1792.92   19.60
   4  -2   1  317.86    9.07
  -4   2  -1  305.83    7.20
   4  -2   1  322.58    6.81
  -4   2  -1  323.04    8.16
   4  -2   1  316.00    8.92
  -4   2  -1  319.54   10.12
   4  -2   2 4006.29   30.40
  -4   2  -2 4004.57   23.37
  -4   2  -2 3940.79   27.40
   4  -2   3 1755.08   21.31
  -4   2  -3 1755.27   15.19
  -4   2  -3 1734.81   19.21
  -4   2  -3 1780.28   21.85
   4  -2   3 1753.12   12.93
   4  -2   4  303.87    5.22
   4  -2   4  304.96   10.15
  -4   2  -4  302.41    6.79
  -4   2  -4  277.18    8.82
  -4   2  -4  303.38   10.05
   4  -2   5 2491.96   14.50
   4  -2   5 2466.84   18.29
  -4   2  -5 2464.43   18.90
  -4   2  -5 2510.75   26.09
   4  -2   6  240.02    9.74
   4  -2   6  255.68    7.54
  -4   2  -6  239.82    9.71
  -4   2  -6  255.30    9.45
   4  -2   7  348.49   12.21
   4  -2   7  332.78    9.29
  -4   2  -7  318.19   11.81
  -4   2  -7  298.36   10.53
   4  -2   8 1267.62   22.71
   4  -2   8 1301.07   19.01
   4  -2   9  203.51   11.16
   4  -2   9  224.18    9.48
  -4   2  -9  216.98   12.06
   4  -2  10  532.97   16.76
   4  -2  10  546.61   14.78
  -4   2 -10  515.35   17.68
   4  -2  11  267.52   13.15
   4  -2  11  271.06   11.83
  -4   2 -11  262.00   14.20
   4  -2  12   31.62    7.46
   4  -2  12   46.11    7.21
   4  -2  12   23.16    5.29
  -4   2 -12   27.90    9.45
  -4   1  11  296.02   13.97
  -4   1  10  312.12   13.20
   4  -1 -10  296.78   13.65
   4  -1  -9   -1.64    6.27
  -4   1   9    5.42    5.59
   4  -1  -8  476.75   14.72
  -4   1   8  482.41   13.63
   4  -1  -7  305.27   11.85
  -4   1   7  297.89   10.31
  -4   1   7  318.20    9.87
   4  -1  -6  762.69   16.59
  -4   1   6  735.91   14.14
   4  -1  -6  785.97   10.63
  -4   1   6  781.51   14.69
   4  -1  -5 2684.71   28.06
  -4   1   5 2726.43   24.09
  -4   1   5 2806.26   26.69
   4  -1  -5 2794.73   19.83
   4  -1  -4  472.99   11.86
  -4   1   4  492.92   11.62
   4  -1  -4  473.64    8.60
  -4   1   4  477.98    9.61
  -4   1   3  963.55   14.63
  -4   1   3  970.08   11.89
   4  -1  -3  933.92   14.91
  -4   1   3  969.42   15.68
   4  -1  -3  986.70   12.29
  -4   1   2 3098.49   23.66
   4  -1  -2 3031.86   24.26
  -4   1   2 2966.41   18.05
  -4   1   2 2987.01   26.56
   4  -1  -2 2972.28   21.52
   4  -1  -2 3104.03   24.33
  -4   1   1 1050.91   12.76
  -4   1   1 1090.17   16.09
   4  -1  -1 1070.10   13.27
   4  -1  -1 1069.91   14.57
  -4   1   0 2145.53   16.42
   4  -1   0 2241.61   16.63
   4  -1   0 2237.30   20.91
  -4   1   0 2240.21   22.60
   4  -1   0 2141.54   19.10
  -4   1  -1 2817.20   16.98
   4  -1   1 2893.74   16.36
  -4   1  -1 2841.86   25.23
  -4   1  -1 2862.80   21.79
   4  -1   1 2821.29   23.89
   4  -1   2  103.62    5.80
  -4   1  -2  102.67    3.42
  -4   1  -2  101.08    5.16
  -4   1  -2  104.05    6.13
  -4   1  -2   99.76    2.47
  -4   1  -3  789.38   12.67
   4  -1   3  783.90   13.61
  -4   1  -3  829.04    8.24
  -4   1  -3  793.62    7.67
  -4   1  -3  828.27   13.97
   4  -1   3  828.25    6.79
   4  -1   4  560.94   12.27
   4  -1   4  586.17    5.12
  -4   1  -4  572.83    7.11
  -4   1  -4  550.67   11.46
  -4   1  -4  540.86   11.70
  -4   1  -4  576.02    7.76
   4  -1   5  118.42    6.76
   4  -1   5  119.05    2.67
  -4   1  -5  125.66    6.52
  -4   1  -5  128.63    7.18
   4  -1   6 1181.00   18.86
   4  -1   6 1197.70   15.36
   4  -1   6 1206.03    9.23
  -4   1  -6 1168.22   18.85
  -4   1  -6 1221.75   17.52
   4  -1   7  424.69   12.38
   4  -1   7  445.16   10.73
  -4   1  -7  441.30   13.11
  -4   1  -7  437.05   11.04
  -4   1  -7  462.68    7.22
   4  -1   8  172.37    9.15
   4  -1   8  158.69    7.70
  -4   1  -8  160.52    9.43
  -4   1  -8  179.88    5.40
   4  -1   9 1947.23   24.95
   4  -1   9 1958.31   27.38
  -4   1  -9 1928.48   29.36
  -4   1 -10  349.11   14.66
   4  -1  10  374.75   13.64
   4  -1  10  377.62   12.53
   4  -1  11  667.59   18.45
   4  -1  11  645.65   17.08
   4  -1  11  600.19   16.67
  -4   1 -11  648.45   19.85
   4  -1  12  771.29   19.79
   4  -1  12  791.56   20.84
   4  -1  12  812.11   20.06
  -4   1 -12  805.58   23.19
   4  -1  13   14.84    6.11
   4  -1  13    4.32    6.22
   4  -1  13    4.07    5.15
   4   0 -11  122.62   10.93
  -4   0  11  119.90   10.57
   4   0 -10  443.99   16.16
  -4   0  10  448.16   15.42
   4   0  -9 1163.52   22.96
  -4   0   9 1164.22   21.82
  -4   0   8   28.71    5.61
   4   0  -8   18.05    5.59
  -4   0   8   27.74    4.56
  -4   0   7  785.77   14.68
   4   0  -7  782.12   17.00
  -4   0   7  740.08   15.32
  -4   0   6  572.68   12.65
   4   0  -6  563.48   13.94
  -4   0   6  561.75   12.45
   4   0  -6  582.82    6.94
   4   0  -5  124.40    7.32
  -4   0   5  106.33    6.14
  -4   0   5  117.86    6.39
  -4   0   5  112.67    3.44
   4   0  -5  124.53    3.70
   4   0  -4  693.96   13.20
  -4   0   4  729.58    8.12
  -4   0   4  679.95   12.99
   4   0  -4  713.46    8.49
  -4   0   3  140.23    3.96
   4   0  -3  126.47    5.92
  -4   0   3  142.67    6.56
   4   0  -3  140.95    4.27
  -4   0   2  554.36    7.74
   4   0  -2  514.23    9.69
  -4   0   2  513.44   11.05
   4   0  -2  541.43   10.39
   4   0  -1 2440.84   18.30
   4   0  -1 2399.24   18.19
  -4   0   1 2396.07   22.54
   4   0  -1 2458.04   20.92
   4   0   0  908.47    9.62
   4   0   0  895.40   10.04
  -4   0   0  883.23   13.85
   4   0   0  913.73   13.08
  -4   0  -1 3330.90   25.92
  -4   0  -1 3446.89   14.58
   4   0   1 3348.95   16.22
   4   0   1 3375.75   14.50
  -4   0  -1 3285.90   22.66
   4   0   1 3225.00   24.26
   4   0   2 4849.73   59.78
  -4   0  -2 4907.28   28.64
  -4   0  -2 4879.17   30.49
   4   0   2 4905.56   30.39
   4   0   3  209.36    7.33
  -4   0  -3  215.69    5.06
  -4   0  -3  204.31    6.97
  -4   0  -3  206.19    6.86
   4   0   4 1211.09   16.25
  -4   0  -4 1221.86    7.13
  -4   0  -4 1245.01   15.60
  -4   0  -4 1206.80   15.95
  -4   0  -4 1240.05   12.50
   4   0   5 1555.07   19.08
  -4   0  -5 1550.00   17.67
   4   0   6   30.28    4.39
   4   0   6   34.26    4.23
  -4   0  -6   33.69    2.56
  -4   0  -6   33.57    5.30
  -4   0  -6   33.30    4.04
  -4   0  -6   35.12    1.77
   4   0   7 1050.96   17.40
   4   0   7 1091.58   16.43
  -4   0  -7 1041.64   18.64
  -4   0  -7 1086.49   15.17
  -4   0  -7 1075.47    9.30
  -4   0  -8  736.54    9.14
   4   0   8  722.62   15.37
   4   0   8  747.48   14.90
  -4   0  -8  735.07   16.97
  -4   0  -8  733.17   12.64
  -4   0  -9  118.24    4.82
   4   0   9  121.53    7.94
   4   0   9  118.87    7.83
  -4   0  -9  134.65    8.84
   4   0  10  650.01   16.33
   4   0  10  625.03   15.75
  -4   0 -10  624.78   17.68
   4   0  11   51.02    6.71
   4   0  11   55.05    6.97
   4   0  11   35.25    5.73
  -4   0 -11   49.62    8.05
   4   0  12  744.01   19.07
   4   0  12  721.33   19.26
   4   0  12  698.09   18.85
  -4   0 -12  693.86   20.50
   4   0  13  652.21   18.99
   4   0  13  726.86   19.65
   4   0  13  712.88   20.09
  -4   0 -13  699.09   22.02
   4   0  14   11.15    5.37
   4   1 -11  340.93   14.51
  -4  -1  11  343.84   14.91
  -4  -1  10    5.59    6.31
   4   1 -10    5.14    5.24
   4   1  -9  823.93   19.42
  -4  -1   9  841.35   18.95
   4   1  -8 1136.27   21.32
  -4  -1   8 1112.68   20.02
  -4  -1   7    6.82    4.58
   4   1  -7   13.40    5.37
  -4  -1   7    6.32    3.74
   4   1  -6 1469.25   21.16
  -4  -1   6 1459.63   19.45
  -4  -1   6 1425.11   19.55
   4   1  -5 2554.01   25.79
  -4  -1   5 2594.68   25.29
  -4  -1   4   51.91    1.75
   4   1  -4   56.81    5.22
  -4  -1   4   60.37    4.97
   4   1  -3  734.22   12.02
  -4  -1   3  736.08   13.02
   4   1  -2  702.87   10.69
  -4  -1   2  717.08   12.47
   4   1  -1   71.51    3.62
   4   1  -1   61.14    3.57
  -4  -1   1   68.27    4.79
  -4  -1   1   63.04    2.77
   4   1   0 1770.48   12.94
   4   1   0 1837.70   12.86
  -4  -1   0 1717.19   18.21
   4   1   0 1769.19   17.23
  -4  -1   0 1868.10   14.20
   4   1   1   33.24    2.00
   4   1   1   34.41    1.78
  -4  -1  -1   30.61    3.83
   4   1   1   32.93    3.74
   4   1   2 2677.75    9.46
  -4  -1  -2 2674.79   21.51
   4   1   2 2674.05   21.50
  -4  -1  -2 2667.67   20.57
  -4  -1  -3 3567.57   24.74
  -4  -1  -3 3561.53   24.49
   4   1   3 3604.83   25.23
   4   1   4  112.75    5.73
  -4  -1  -4  111.67    5.76
  -4  -1  -4  115.81    4.98
   4   1   5 3668.97   27.17
  -4  -1  -5 3720.83   15.46
  -4  -1  -5 3724.02   24.28
   4   1   6 3087.55   26.21
  -4  -1  -6 3089.21   12.12
  -4  -1  -6 3128.76   22.07
   4   1   7   87.94    6.22
  -4  -1  -7   82.20    3.11
   4   1   7   86.87    6.05
  -4  -1  -7   86.10    4.08
  -4  -1  -7   74.52    6.98
  -4  -1  -7   78.02    4.39
   4   1   8 1635.42   21.03
  -4  -1  -8 1623.11   13.66
   4   1   8 1660.34   21.87
  -4  -1  -8 1645.26   23.60
  -4  -1  -8 1667.67   16.38
   4   1   9 1258.41   19.68
  -4  -1  -9 1256.54   13.86
   4   1   9 1237.13   20.42
  -4  -1  -9 1237.63   22.17
   4   1  10    3.41    4.39
   4   1  10    4.32    5.39
  -4  -1 -10    2.96    2.89
   4   1  10    7.07    4.00
  -4  -1 -10    1.08    4.97
   4   1  11  816.38   17.71
   4   1  11  762.89   18.40
   4   1  11  783.03   18.78
  -4  -1 -11  742.15   19.50
   4   1  12  169.55    9.68
   4   1  12  172.50   10.88
   4   1  12  133.07    9.14
  -4  -1 -12  144.94   10.96
   4   1  13  131.67    8.96
   4   1  13  132.13   10.40
   4   1  13  129.82    9.45
  -4  -1 -13  137.15   11.33
   4   1  14  215.86   11.75
  -4  -2  11   26.36    7.10
   4   2 -11   21.42    7.90
   4   2 -10  420.16   14.97
  -4  -2  10  419.56   15.18
  -4  -2   9  114.45    8.65
   4   2  -9  114.23    9.32
  -4  -2   9  130.34    7.45
   4   2  -8  384.58   13.18
  -4  -2   8  376.73   12.76
  -4  -2   8  392.68   11.24
  -4  -2   7  936.36   17.61
  -4  -2   7  957.93   16.50
   4   2  -7  919.59   17.99
   4   2  -6   25.99    5.69
  -4  -2   6   22.01    4.16
   4   2  -5 2427.52   24.91
  -4  -2   5 2510.23   25.18
   4   2  -4 2072.03   21.36
  -4  -2   4 2016.41   22.07
  -4  -2   3  203.10    7.61
  -4  -2   3  206.66    2.41
   4   2  -3  208.43    6.98
   4   2  -2 4139.54   25.19
  -4  -2   2 4299.96   15.41
   4   2  -1 4539.98   23.70
  -4  -2   1 4599.02   30.14
  -4  -2   0   16.81    2.21
   4   2   0   16.97    2.38
  -4  -2   0   16.24    3.62
   4   2   1 1938.99   12.03
  -4  -2  -1 1925.43   16.56
  -4  -2  -1 1946.94   18.34
   4   2   1 1964.36   17.45
   4   2   2 1383.60    7.54
  -4  -2  -2 1397.10   14.95
  -4  -2  -2 1389.29   14.53
   4   2   2 1408.50   14.87
   4   2   2 1416.30    9.09
  -4  -2  -3  561.45    4.86
  -4  -2  -3  539.31    9.25
   4   2   3  517.55    4.37
   4   2   3  546.95    9.71
  -4  -2  -3  533.06    9.69
   4   2   3  580.57    9.05
  -4  -2  -4 2274.86   20.10
   4   2   4 2313.02   10.99
  -4  -2  -4 2346.34   11.00
  -4  -2  -4 2307.02   18.12
  -4  -2  -4 2326.34    9.70
   4   2   4 2362.38   19.87
   4   2   5   54.11    4.43
  -4  -2  -5   58.76    2.78
   4   2   5   56.51    3.22
  -4  -2  -5   56.16    3.55
  -4  -2  -5   53.76    5.22
   4   2   6 2626.50   22.48
  -4  -2  -6 2722.98   17.67
  -4  -2  -6 2649.18   14.92
   4   2   6 2615.76   17.58
  -4  -2  -6 2509.91   24.38
  -4  -2  -6 2593.39   18.04
   4   2   7 2048.64   21.05
  -4  -2  -7 2068.07   15.20
  -4  -2  -7 1987.51   23.24
  -4  -2  -7 2042.38   15.60
   4   2   7 1993.99   15.10
   4   2   8  184.90    7.55
   4   2   8  177.37    8.38
  -4  -2  -8  164.32    5.40
  -4  -2  -8  172.73    8.49
  -4  -2  -8  180.00    4.92
   4   2   9 1466.19   19.70
   4   2   9 1475.10   22.41
  -4  -2  -9 1417.49   15.83
  -4  -2  -9 1412.92   22.64
   4   2   9 1366.25   21.95
   4   2  10 1073.49   17.93
  -4  -2 -10 1093.43   15.17
   4   2  10 1077.29   20.59
   4   2  10 1028.23   20.28
  -4  -2 -10 1018.06   20.51
   4   2  11   32.99    5.12
   4   2  11   13.34    4.78
   4   2  11   16.36    6.18
  -4  -2 -11   19.75    4.09
  -4  -2 -11   14.98    6.19
   4   2  12 1103.59   20.02
   4   2  12 1044.27   22.64
   4   2  12  948.78   21.47
  -4  -2 -12  964.94   22.08
   4   2  13  623.01   19.06
  -4  -2 -13  565.69   18.45
   4   2  13  607.08   18.50
   4   2  14   11.70    5.61
  -4  -3  10  154.47   10.31
   4   3 -10  151.59   10.81
   4   3  -9 1108.62   22.47
  -4  -3   9 1136.66   19.57
   4   3  -8  332.96   12.83
  -4  -3   8  367.94   11.49
  -4  -3   8  339.79   12.00
   4   3  -7   23.48    5.06
  -4  -3   7   27.65    4.68
   4   3  -6 1495.56   21.37
  -4  -3   6 1596.77   21.92
   4   3  -5  848.08   15.48
  -4  -3   5  838.68   15.80
   4   3  -4 1100.29   16.18
  -4  -3   4 1135.08   17.76
   4   3  -3 1971.79   19.78
  -4  -3   3 1894.92   22.04
  -4  -3   2  141.09    6.94
   4   3  -2  137.65    5.78
  -4  -3   2  139.91    3.12
   4   3  -1 3704.59   22.53
  -4  -3   1 3662.17   28.33
   4   3   0 2100.56   15.81
  -4  -3   0 2072.69   20.40
  -4  -3  -1  132.42    4.01
  -4  -3  -1  118.73    5.25
   4   3   1  129.12    4.26
  -4  -3  -2 4382.50   19.29
   4   3   2 4295.45   18.73
  -4  -3  -2 4230.01   24.05
  -4  -3  -2 4336.51   26.12
   4   3   2 4325.08   20.19
   4   3   2 4182.63   24.59
   4   3   3 1550.95   11.42
   4   3   3 1556.28   15.25
  -4  -3  -3 1578.34   15.54
   4   3   4   84.44    3.29
  -4  -3  -4   88.36    3.41
  -4  -3  -4   85.62    3.94
   4   3   4   86.78    3.78
  -4  -3  -4   82.80    3.21
  -4  -3  -4   84.23    4.76
   4   3   4   88.90    4.45
   4   3   5 2358.43   19.29
   4   3   5 2249.73   16.00
  -4  -3  -5 2453.47   16.78
   4   3   5 2392.84   16.41
  -4  -3  -5 2302.33   20.84
  -4  -3  -5 2324.61   16.67
   4   3   6 1862.71   17.73
   4   3   6 1860.03   13.62
  -4  -3  -6 1820.09   20.06
   4   3   6 1841.23   16.14
  -4  -3  -6 1869.30   13.99
  -4  -3  -7  536.04    6.94
   4   3   7  520.26   10.17
  -4  -3  -7  517.12   12.03
   4   3   7  515.57    6.68
   4   3   8  976.77   14.29
  -4  -3  -8  992.84   17.20
  -4  -3  -8 1010.47    8.25
   4   3   9   29.52    4.03
  -4  -3  -9   39.75    4.41
   4   3   9   30.08    5.73
  -4  -3  -9   44.85    6.29
   4   3  10  588.19   12.57
   4   3  10  586.80   15.83
  -4  -3 -10  552.84   11.96
   4   3  10  555.96   15.54
  -4  -3 -10  586.11   15.62
   4   3  11  889.41   20.05
  -4  -3 -11  958.32   16.41
   4   3  11  891.50   20.01
  -4  -3 -11  916.16   20.06
   4   3  12    6.17    6.85
  -4  -3 -12    3.30    6.05
   4   3  12    7.09    5.19
   4   3  13  703.10   20.27
   4   3  13  705.97   19.98
  -4  -3 -13  707.30   19.89
  -4  -3 -14  387.31   16.13
   4   4 -10  274.46   13.49
  -4  -4  10  272.19   13.59
   4   4  -9  116.72    9.19
  -4  -4   9  133.01    8.24
  -4  -4   9  143.45   10.06
   4   4  -8  708.17   17.69
  -4  -4   8  736.88   16.77
  -4  -4   7  246.28   10.17
   4   4  -7  256.03   10.99
   4   4  -6  247.59   10.17
  -4  -4   6  283.42   10.64
   4   4  -5 2151.61   24.51
  -4  -4   5 2161.40   26.58
   4   4  -4  878.69   15.02
  -4  -4   4  906.14   17.14
   4   4  -3 1427.36   17.73
  -4  -4   3 1402.71    8.59
   4   4  -2 3373.77   25.08
  -4  -4   2 3344.79   15.72
  -4  -4   2 3398.76   30.62
   4   4  -1   67.38    4.91
  -4  -4   1   80.43    5.75
  -4  -4   1   80.68    3.28
  -4  -4   0  101.28    5.86
   4   4   0  101.39    4.93
  -4  -4  -1  833.80   13.43
   4   4   1  849.72   11.25
   4   4   2   74.22    3.93
  -4  -4  -2   81.02    4.07
  -4  -4  -2   77.93    4.93
   4   4   3 2338.56   17.12
  -4  -4  -3 2358.56   17.92
   4   4   3 2340.84   17.89
   4   4   4 1464.69   14.28
  -4  -4  -4 1589.99   14.87
   4   4   4 1562.13   15.30
  -4  -4  -4 1481.55   15.20
  -4  -4  -4 1530.94   14.52
   4   4   4 1490.97   14.41
   4   4   5   10.88    2.75
   4   4   5   12.72    2.99
  -4  -4  -5   15.92    3.45
  -4  -4  -5   13.25    2.27
   4   4   5   17.06    2.38
   4   4   6 2996.28   20.91
   4   4   6 2956.45   22.71
   4   4   6 3012.43   17.92
   4   4   6 2926.33   27.82
  -4  -4  -6 2997.73   24.73
   4   4   7  854.18   11.79
  -4  -4  -7  832.39   14.22
   4   4   7  858.86   13.41
   4   4   7  818.98   16.10
  -4  -4  -7  867.56    8.02
   4   4   8  798.37   11.92
   4   4   8  767.56   16.63
   4   4   8  787.91   13.78
  -4  -4  -8  772.17   14.81
  -4  -4  -9 1963.24   24.72
   4   4   9 1994.50   19.39
   4   4   9 1971.45   22.70
   4   4  10  232.22    7.52
  -4  -4 -10  243.11    9.06
  -4  -4 -10  227.72   10.12
   4   4  10  221.17   10.34
  -4  -4 -11  324.28   10.91
   4   4  11  324.37   12.80
  -4  -4 -11  344.79   12.59
  -4  -4 -12  607.04   14.96
   4   4  12  590.77   17.41
  -4  -4 -12  604.34   17.08
   4   4  13   67.89    7.56
  -4  -4 -13   54.95    8.04
  -4  -4 -14  223.42   12.89
   4   5 -10  490.22   17.31
  -4  -5  10  465.46   16.64
   4   5  -9  434.39   15.47
  -4  -5   9  445.10   15.46
  -4  -5   9  452.52   14.62
   4   5  -8   23.51    6.50
  -4  -5   8   32.52    5.78
   4   5  -7  192.18    9.99
  -4  -5   7  210.93   10.11
   4   5  -6  137.89    8.09
  -4  -5   6  172.59    9.34
   4   5  -5  133.88    8.32
  -4  -5   5  129.77    8.13
  -4  -5   4 1031.67   20.00
  -4  -5   4 1007.71    8.67
   4   5  -3  304.62    9.99
  -4  -5   3  316.88    5.62
  -4  -5   2 1884.69   14.17
  -4  -5   2 1870.34   25.10
   4   5  -2 1874.56   20.71
  -4  -5   1 3554.31   32.85
   4   5  -1 3603.23   27.23
  -4  -5   0  365.44   10.98
  -4  -5   0  365.18    7.66
   4   5   0  359.76    9.04
   4   5   1 1204.02   14.84
  -4  -5  -1 1269.01   18.05
  -4  -5  -1 1209.50   14.72
   4   5   1 1246.03   15.30
   4   5   2 4220.12   26.60
  -4  -5  -2 4213.68   30.41
  -4  -5  -2 4161.33   29.06
   4   5   3  291.29    7.60
  -4  -5  -3  305.85    6.60
   4   5   3  314.30    8.13
   4   5   3  316.09    6.48
  -4  -5  -3  302.35    8.18
   4   5   4 1212.18   14.88
  -4  -5  -4 1227.13   14.35
   4   5   4 1220.15   16.69
   4   5   4 1227.16   12.86
  -4  -5  -4 1222.96   13.18
   4   5   5 1425.67   16.74
  -4  -5  -5 1419.64   14.96
  -4  -5  -5 1467.67   14.29
   4   5   5 1436.62   13.64
   4   5   5 1419.33   19.49
   4   5   6   34.10    3.02
   4   5   6   32.36    4.21
   4   5   6   34.48    4.77
  -4  -5  -6   37.43    2.74
  -4  -5  -6   37.67    4.13
   4   5   7  648.08    9.36
   4   5   7  642.12   14.96
  -4  -5  -7  659.23    7.39
  -4  -5  -7  670.41   12.44
   4   5   8  199.20    5.66
   4   5   8  183.22    8.01
   4   5   8  193.98    9.06
  -4  -5  -8  185.00    7.78
   4   5   9  274.00    9.89
   4   5   9  271.17   11.41
  -4  -5  -9  252.01    9.44
   4   5  10 1212.69   20.24
   4   5  10 1202.04   22.78
  -4  -5 -10 1231.57   20.12
   4   5  11  145.92    9.72
  -4  -5 -11  140.37    8.49
  -4  -5 -12  459.74   14.02
   4   5  12  441.09   15.54
  -4  -5 -12  486.39   15.01
  -4  -5 -13  876.03   20.83
  -4  -5 -13  909.40   20.98
  -4  -5 -14   12.57    5.96
  -4  -5 -14   10.36    6.25
  -4  -6  10    5.64    5.23
   4   6  -9  518.54   17.88
  -4  -6   9  558.57   17.75
  -4  -6   9  537.10   17.00
   4   6  -8  967.82   21.95
  -4  -6   8 1013.54   22.68
   4   6  -7  105.14    9.25
  -4  -6   7  121.77    9.46
   4   6  -6  783.24   18.05
  -4  -6   6  867.25   20.61
   4   6  -5 1378.57   22.26
  -4  -6   5 1493.73   26.00
   4   6  -4   18.15    6.22
  -4  -6   4   15.62    2.30
  -4  -6   3 1018.29   11.64
   4   6  -3  985.81   17.46
  -4  -6   2  211.68    5.93
  -4  -6   2  230.93   10.62
   4   6  -2  220.05    9.13
  -4  -6   1  342.32    7.60
   4   6  -1  348.94   10.32
   4   6   0  932.29   15.34
  -4  -6   0  912.20   12.71
  -4  -6   0  948.77   18.13
   4   6   0  934.82   15.32
   4   6   1   51.02    5.20
   4   6   1   64.62    3.48
   4   6   1   59.66    3.46
  -4  -6  -1   61.61    5.65
  -4  -6  -1   59.73    4.61
   4   6   2 2919.05   25.26
   4   6   2 3018.32   22.48
  -4  -6  -2 2909.57   27.93
   4   6   2 3055.16   18.28
  -4  -6  -2 2871.99   25.41
   4   6   3 3715.38   28.32
   4   6   3 3929.10   20.67
  -4  -6  -3 3659.91   30.15
   4   6   3 3848.12   28.21
  -4  -6  -3 3862.09   29.97
   4   6   4  142.20    6.74
  -4  -6  -4  146.03    4.88
   4   6   4  151.60    7.15
  -4  -6  -4  152.27    6.43
   4   6   4  149.00    4.56
   4   6   5 2003.35   22.20
   4   6   5 2129.22   24.45
  -4  -6  -5 2087.31   17.22
  -4  -6  -5 1978.92   24.84
  -4  -6  -5 2083.21   18.96
   4   6   5 2052.85   15.81
   4   6   6 1911.39   22.36
   4   6   6 1947.96   24.87
  -4  -6  -6 2033.31   17.01
  -4  -6  -6 2002.96   18.07
  -4  -6  -6 1939.89   25.68
   4   6   6 1968.61   14.85
  -4  -6  -7   13.32    4.88
   4   6   7   13.80    2.22
   4   6   7   11.45    4.28
   4   6   7   16.42    4.61
  -4  -6  -7   11.75    3.72
  -4  -6  -7   10.89    2.12
   4   6   8  787.16   17.80
  -4  -6  -8  775.01   17.64
  -4  -6  -8  807.95   13.95
   4   6   9  823.68   16.95
   4   6   9  900.40   19.65
  -4  -6  -9  879.76   15.53
  -4  -6  -9  849.07   18.66
  -4  -6 -10    5.15    5.46
   4   6  10    1.75    4.67
   4   6  10    7.88    5.19
  -4  -6 -10    1.73    4.32
   4   6  11  358.02   13.00
   4   6  11  349.27   13.81
  -4  -6 -11  347.96   11.75
   4   6  12  146.31    9.74
   4   6  12  128.81    9.86
  -4  -6 -12  139.81    8.82
  -4  -6 -12  129.86    9.21
  -4  -6 -13  285.44   13.10
  -4  -6 -13  288.19   12.60
  -4  -6 -13  308.10   13.83
  -4  -6 -14  355.53   14.55
  -4  -7   9  103.97    9.79
  -4  -7   8  316.68   14.41
   4   7  -8  293.01   14.26
  -4  -7   7  678.58   20.03
   4   7  -7  579.98   17.55
   4   7  -6    9.01    6.88
  -4  -7   6    3.39    5.49
  -4  -7   5 1246.24   25.57
   4   7  -5 1213.60   22.43
  -4  -7   4 2057.17   31.86
   4   7  -4 1969.69   27.19
   4   7  -3    9.59    6.64
  -4  -7   3    6.30    6.02
  -4  -7   3    5.16    2.70
  -4  -7   2 1464.68   25.64
   4   7  -2 1458.26   22.05
   4   7  -1 1145.43   19.15
  -4  -7   1 1108.90   21.67
  -4  -7   0   55.88    4.70
   4   7   0   52.44    6.83
  -4  -7   0   55.18    7.01
   4   7   1  938.86   16.49
  -4  -7  -1  944.44   14.93
  -4  -7  -1  965.06   18.73
   4   7   1  966.94   10.64
   4   7   2  673.57   14.11
  -4  -7  -2  684.11   13.66
  -4  -7  -2  698.13   15.26
   4   7   2  690.44    8.42
   4   7   3  603.43   13.43
   4   7   3  621.23   11.59
  -4  -7  -3  591.79   13.53
  -4  -7  -3  612.43   13.58
   4   7   3  633.57    7.82
   4   7   4 1300.64   19.36
   4   7   4 1371.83   18.68
  -4  -7  -4 1347.43   18.58
  -4  -7  -4 1304.31   20.30
   4   7   5   63.53    6.30
   4   7   5   73.71    5.93
  -4  -7  -5   63.07    3.65
  -4  -7  -5   60.70    4.80
  -4  -7  -5   56.34    6.78
   4   7   5   59.45    3.47
   4   7   6 1271.14   19.84
   4   7   6 1285.08   20.80
  -4  -7  -6 1320.47   13.69
  -4  -7  -6 1315.03   15.70
  -4  -7  -6 1243.33   21.49
   4   7   7 1009.08   18.58
   4   7   7 1105.69   20.33
  -4  -7  -7 1083.00   13.58
  -4  -7  -7 1020.45   20.26
  -4  -7  -7 1085.55   12.84
  -4  -7  -8   43.36    6.51
   4   7   8   43.82    6.13
   4   7   8   58.26    6.72
  -4  -7  -8   48.27    4.51
  -4  -7  -9 1042.94   16.01
   4   7   9  942.86   19.34
   4   7   9 1051.80   21.75
  -4  -7  -9  952.70   20.55
   4   7  10 1175.54   22.38
  -4  -7 -10 1153.79   23.22
   4   7  11   70.55    7.89
  -4  -7 -11   63.53    7.48
   4   7  12  792.11   20.30
  -4  -7 -12  746.69   19.95
  -4  -7 -13  566.71   18.16
   4   7  13  539.43   18.35
  -4  -8   8  389.63   17.20
  -4  -8   7  108.71   10.32
   4   8  -7  110.82   10.94
  -4  -8   6  686.95   21.00
   4   8  -6  632.86   18.37
  -4  -8   5   76.51    8.53
   4   8  -5   63.37    8.39
  -4  -8   4  462.85   17.01
   4   8  -4  444.20   14.66
  -4  -8   3  576.55   11.64
  -4  -8   3  619.22   18.99
   4   8  -3  594.87   16.22
  -4  -8   2   59.42    4.72
   4   8  -2   60.18    7.56
  -4  -8   2   44.60    7.95
   4   8  -2   58.55    7.45
   4   8  -1 1232.14   21.36
  -4  -8   1 1272.20   24.96
  -4  -8   0  820.63   14.75
   4   8   0  832.54   17.51
  -4  -8  -1   11.22    4.14
   4   8   1    5.28    5.63
  -4  -8  -1    2.44    5.16
   4   8   2 1208.83   20.28
  -4  -8  -2 1143.86   18.61
  -4  -8  -2 1199.69   21.45
   4   8   3 1920.25   25.34
  -4  -8  -3 1834.17   24.02
  -4  -8  -4   21.40    4.86
   4   8   4   20.70    5.53
  -4  -8  -4   30.35    5.10
   4   8   5 1023.18   19.41
  -4  -8  -5 1003.58   19.75
  -4  -8  -5 1067.08   17.03
   4   8   6  130.28    8.43
  -4  -8  -6  152.54    8.88
  -4  -8  -6  150.61    6.58
   4   8   7  208.56   10.32
  -4  -8  -7  213.60   10.71
   4   8   8  858.48   19.02
  -4  -8  -8  802.93   19.58
  -4  -8  -9   24.83    6.71
   4   8   9   14.20    5.96
   4   8  10  479.17   15.84
  -4  -8 -10  476.58   16.29
   4   8  11  426.64   15.43
  -4  -8 -11  417.36   15.73
  -4  -8 -12   33.76    7.24
   4   8  12   25.42    7.19
  -4  -9   6  164.81   12.79
   4   9  -6  132.35   10.93
  -4  -9   5 1068.31   27.22
   4   9  -5  992.02   23.46
  -4  -9   4  350.86   16.07
   4   9  -4  330.89   13.88
  -4  -9   3   96.41    6.11
   4   9  -3  117.05   10.00
  -4  -9   3  117.70   10.84
   4   9  -2  634.25   17.52
  -4  -9   2  673.67   20.51
  -4  -9   1  111.03    6.69
   4   9  -1  108.25    9.17
  -4  -9   1  133.35   10.64
  -4  -9   0  419.52   11.81
   4   9   0  443.11   14.57
  -4  -9  -1  565.86   13.93
   4   9   1  568.17   15.81
  -4  -9  -1  601.31   17.55
  -4  -9  -2    6.14    4.48
   4   9   2    1.59    5.81
  -4  -9  -2    1.72    5.33
   4   9   3 1010.46   20.33
  -4  -9  -3  994.70   19.42
   4   9   4  606.06   16.43
  -4  -9  -4  590.32   16.01
  -4  -9  -4  638.30   15.67
   4   9   5  316.62   12.86
  -4  -9  -5  323.00   12.81
  -4  -9  -5  319.61   10.76
   4   9   6 1166.83   22.68
  -4  -9  -6 1187.09   23.41
   4   9   7  392.61   14.31
  -4  -9  -7  404.72   14.94
   4   9   8  116.31    9.21
  -4  -9  -8  133.32   10.16
   4   9   9  541.36   17.32
  -4  -9  -9  486.81   16.96
   4   9  10  108.68    9.37
  -4  -9 -10  109.75    9.89
   4   9  11  131.78   10.30
  -4 -10   4  762.35   24.90
   4  10  -4  706.55   21.26
   4  10  -3  139.87   11.78
  -4 -10   3  149.46   12.07
  -4 -10   2  558.20   14.35
   4  10  -2  597.09   18.93
  -4 -10   1 1457.48   22.86
   4  10  -1 1511.43   27.93
  -4 -10   0  158.22    8.74
   4  10   0  174.38   11.21
  -4 -10   0  180.87   12.35
  -4 -10  -1  266.85   10.90
   4  10   1  304.01   13.59
  -4 -10  -1  298.79   13.61
  -4 -10  -2  688.01   16.94
   4  10   2  718.14   19.08
  -4 -10  -2  713.06   19.29
  -4 -10  -3   60.45    7.17
   4  10   3   57.90    7.51
  -4 -10  -3   67.35    7.84
  -4 -10  -4  263.70   12.34
   4  10   4  284.79   12.93
  -4 -10  -4  302.69   12.15
   4  10   5  233.58   12.53
  -4 -10  -5  248.65   12.20
  -4 -10  -5  247.29   10.68
  -4 -10  -6    6.18    6.67
   4  10   6    7.60    6.20
   4  10   7  560.55   17.82
  -4 -10  -7  535.02   17.69
   4  10   8  245.40   13.06
  -4 -10  -8  232.46   12.87
   4  10   9  219.25   13.04
  -4 -11   1  297.01   12.21
   4  11  -1  342.76   16.28
  -4 -11   1  316.90   16.24
  -4 -11   0  688.00   17.65
   4  11   0  707.43   20.66
  -4 -11  -1   30.56    5.79
   4  11   1   26.12    8.00
  -4 -11  -1   26.80    7.49
  -4 -11  -2  432.67   15.24
   4  11   2  458.08   17.02
  -4 -11  -3  973.63   22.43
   4  11   3 1052.54   25.02
  -4 -11  -4   77.45    8.55
   4  11   4   76.08    9.08
  -4 -11  -4   99.38    9.34
  -4 -11  -5  387.01   16.00
   4  11   5  412.33   16.96
  -4 -11  -5  411.36   14.52
   4  11   6  769.13   22.05
  -4 -11  -6  764.71   21.57
  -4 -12  -3  182.73   12.57
  -4 -12  -4  442.06   16.67
  -5   7   4  305.21   15.27
  -5   7   3  337.34   15.57
   5  -7   2  291.61   12.91
   5  -7   3    6.87    5.54
   5  -6  -6  155.80   10.57
  -5   6   5  235.32   12.95
  -5   6   5  241.16   12.16
   5  -6  -5  234.22   11.95
  -5   6   4   10.23    5.91
  -5   6   4    7.39    6.41
   5  -6  -4   10.99    5.89
  -5   6   3  761.62   20.26
  -5   6   3  757.44   20.40
   5  -6  -3  701.21   19.06
  -5   6   2  641.62   19.06
  -5   6   2  625.71   18.14
  -5   6   1    5.66    5.64
  -5   6   1    0.68    5.90
   5  -6  -1    3.01    5.35
   5  -6   0  802.98   17.61
  -5   6   0  816.16   19.54
   5  -6   0  760.55   19.57
  -5   6   0  799.98   21.34
   5  -6   1  548.81   15.79
   5  -6   1  519.70   16.53
  -5   6  -1  521.61   17.77
   5  -6   2   21.95    5.95
  -5   6  -2   19.35    6.42
   5  -6   2   20.42    6.70
   5  -6   3  411.87   14.77
  -5   6  -3  400.77   16.21
   5  -6   4   82.24    8.50
  -5   6  -4   80.40    9.43
   5  -6   5  121.54   10.12
  -5   5   7  507.98   18.21
  -5   5   6  281.99   14.05
   5  -5  -6  227.03   11.05
  -5   5   5   11.20    6.09
  -5   5   5    6.36    5.29
   5  -5  -5   21.16    5.32
  -5   5   4  451.32   15.67
  -5   5   4  463.42   15.03
   5  -5  -4  424.17   13.90
  -5   5   3   44.51    6.79
  -5   5   3   55.33    7.49
   5  -5  -3   44.45    6.39
  -5   5   2  488.13   14.89
  -5   5   2  487.67   15.86
   5  -5  -2  457.03   14.33
   5  -5  -1  562.44   13.87
  -5   5   1  550.87   15.31
   5  -5  -1  520.92   15.32
   5  -5   0   65.14    6.46
  -5   5   0   69.88    6.91
   5  -5   0   58.13    6.85
  -5   5   0   60.28    8.17
   5  -5   1 1091.02   20.51
  -5   5  -1 1065.45   19.67
   5  -5   1 1068.69   21.46
  -5   5  -1 1126.67   23.90
   5  -5   2  916.67   19.29
  -5   5  -2  908.73   17.78
  -5   5  -2  939.88   21.91
   5  -5   3  108.90    8.61
  -5   5  -3  119.21    9.65
   5  -5   4 1612.94   26.96
  -5   5  -4 1631.56   29.00
  -5   5  -5  533.54   14.38
  -5   5  -5  557.57   18.00
   5  -5   6    7.83    6.02
  -5   5  -6    4.66    4.99
   5  -5   7  537.46   18.19
  -5   5  -7  505.40   15.81
  -5   5  -8  118.79    9.87
  -5   5  -9  218.96   13.16
   5  -4  -8  308.66   15.40
   5  -4  -7   71.04    9.25
  -5   4   6  943.05   22.09
   5  -4  -6  907.67   21.96
  -5   4   6  984.87   20.21
   5  -4  -6  919.01   18.44
  -5   4   5  508.37   15.92
  -5   4   5  523.58   15.28
   5  -4  -5  490.98   13.83
  -5   4   4  189.20   10.26
  -5   4   4  191.95   10.16
   5  -4  -4  176.18    8.94
   5  -4  -3 1641.10   21.09
  -5   4   3 1563.50   24.49
  -5   4   3 1561.22   25.26
   5  -4  -2  822.59   15.56
  -5   4   2  735.81   16.45
  -5   4   2  801.39   18.39
   5  -4  -2  747.26   16.55
   5  -4  -1  146.07    7.79
  -5   4   1  144.29    7.99
  -5   4   1  140.95    9.11
   5  -4  -1  135.83    8.18
   5  -4   0  501.03   13.05
  -5   4   0  471.95   12.46
  -5   4   0  457.25   14.37
   5  -4   0  450.65   13.27
   5  -4   1   32.07    5.47
  -5   4  -1   28.10    4.79
  -5   4  -1   24.38    6.41
   5  -4   1   23.18    4.82
   5  -4   2  423.16   12.93
  -5   4  -2  430.93   11.46
  -5   4  -2  403.19   10.72
   5  -4   2  405.31   12.73
  -5   4  -2  417.48   13.93
   5  -4   3  761.41   17.31
  -5   4  -3  797.31   14.83
  -5   4  -3  772.77   15.04
  -5   4  -4  200.38    9.00
   5  -4   4  217.20   10.69
  -5   4  -4  217.69   11.03
   5  -4   5 1619.23   26.44
  -5   4  -5 1572.31   23.32
  -5   4  -5 1642.15   27.74
   5  -4   6  360.88   14.17
  -5   4  -6  362.74   14.02
  -5   4  -7  187.67   10.41
   5  -4   7  221.75   12.11
   5  -4   8  809.38   21.37
  -5   4  -8  837.59   20.90
  -5   4  -9  349.06   15.17
  -5   4 -10   38.48    8.64
   5  -3  -8  122.66   10.32
   5  -3  -7  356.76   14.50
  -5   3   7  373.75   12.59
   5  -3  -6    5.15    5.61
  -5   3   6    1.78    4.57
   5  -3  -6    2.20    3.70
  -5   3   5 1024.66   20.38
   5  -3  -5  977.53   20.44
  -5   3   5 1049.46   20.01
   5  -3  -5 1002.20   17.10
  -5   3   4  333.26   12.13
  -5   3   4  357.16   12.16
   5  -3  -4  339.40   10.55
   5  -3  -3  531.84   12.35
  -5   3   3  522.01   13.83
  -5   3   3  515.93   14.29
   5  -3  -3  491.36   12.44
   5  -3  -2 2103.00   23.85
  -5   3   2 2043.57   24.69
  -5   3   2 2015.04   27.04
   5  -3  -2 1951.26   23.94
   5  -3  -1  221.65    8.74
  -5   3   1  211.98    8.25
  -5   3   1  211.99    9.68
   5  -3  -1  210.44    8.89
   5  -3   0  492.21   12.40
  -5   3   0  468.53   11.12
   5  -3   0  465.17   12.32
  -5   3   0  481.66   14.16
   5  -3   1 1212.11   19.20
  -5   3  -1 1231.53   16.82
  -5   3  -1 1199.92   16.72
  -5   3  -1 1201.95   21.18
   5  -3   2  603.82   14.44
  -5   3  -2  589.03   11.41
  -5   3  -2  605.22   12.57
  -5   3  -2  636.68   15.88
   5  -3   3  245.53   10.24
  -5   3  -3  238.58    7.55
  -5   3  -3  218.23    8.48
  -5   3  -3  225.74   10.11
   5  -3   4  836.41   17.84
  -5   3  -4  780.85   15.43
  -5   3  -4  836.82   13.10
  -5   3  -4  816.48   18.34
   5  -3   5   31.87    6.26
  -5   3  -5   29.59    3.75
  -5   3  -5   25.24    4.99
  -5   3  -5   18.48    5.85
   5  -3   6  432.79   13.96
  -5   3  -6  422.49   13.09
  -5   3  -6  463.48   14.74
   5  -3   7  167.24   10.26
  -5   3  -7  159.33    9.41
  -5   3  -7  180.52    9.86
   5  -3   8  211.76   11.60
  -5   3  -8  205.77   11.10
   5  -3   9  694.66   19.92
  -5   3  -9  697.59   20.19
   5  -3  10  335.04   15.22
  -5   3 -10  318.66   15.61
   5  -2  -9  520.27   17.63
  -5   2   9  543.26   16.10
  -5   2   8   28.91    5.99
   5  -2  -8   37.34    7.23
  -5   2   7  415.00   12.49
   5  -2  -7  386.82   14.20
  -5   2   7  423.74   12.83
  -5   2   6 1049.30   17.48
   5  -2  -6 1051.70   15.77
   5  -2  -6  942.14   20.10
  -5   2   6 1027.33   19.03
   5  -2  -6 1147.96   18.19
   5  -2  -5    6.47    3.95
  -5   2   5    7.18    3.82
   5  -2  -5    3.44    5.32
  -5   2   5    7.67    4.64
   5  -2  -5    1.11    3.20
  -5   2   4  881.64   13.24
  -5   2   4  852.83   16.79
   5  -2  -4  852.08   17.29
  -5   2   4  852.10   17.16
   5  -2  -4  838.49   14.40
  -5   2   3  809.91   11.22
  -5   2   3  841.49   15.77
   5  -2  -3  806.03   15.96
  -5   2   3  802.27   16.56
   5  -2  -3  795.33   14.08
   5  -2  -3  839.68   15.31
  -5   2   2  168.12    4.79
  -5   2   2  172.07    7.44
  -5   2   2  161.41    8.46
   5  -2  -2  160.54    7.11
   5  -2  -2  168.13    7.85
  -5   2   1  630.74   12.12
  -5   2   1  607.60   14.60
   5  -2  -1  594.61   12.63
  -5   2   1  602.27    6.25
   5  -2  -1  609.24   13.12
   5  -2   0   15.42    4.56
  -5   2   0   14.28    3.23
  -5   2   0   19.25    5.25
   5  -2   0   13.61    3.79
   5  -2   1  289.69    9.92
  -5   2  -1  279.86    7.37
  -5   2  -1  284.36    8.66
  -5   2  -1  268.62   10.38
   5  -2   2 2225.50   25.17
  -5   2  -2 2224.47   18.35
  -5   2  -2 2285.16   27.22
   5  -2   3  766.24   15.65
  -5   2  -3  746.51   10.46
  -5   2  -3  758.56   14.22
  -5   2  -3  789.36   16.70
  -5   2  -4 1008.26   17.02
   5  -2   4 1044.45   18.83
  -5   2  -4 1052.94   12.26
  -5   2  -4 1078.03   19.33
   5  -2   5 2174.78   27.29
  -5   2  -5 2297.20   18.14
  -5   2  -5 2175.12   25.63
  -5   2  -5 2272.95   27.75
   5  -2   6   64.75    7.03
  -5   2  -6   59.01    4.08
  -5   2  -6   58.69    6.23
  -5   2  -6   67.72    6.71
   5  -2   7  795.75   18.34
  -5   2  -7  788.78   18.16
  -5   2  -7  834.58   17.67
   5  -2   8  697.79   18.08
  -5   2  -8  697.56   16.41
   5  -2   9    2.60    5.97
  -5   2  -9    2.31    6.31
   5  -2  10  448.34   16.17
  -5   2 -10  396.31   16.49
   5  -2  11  101.05    9.62
  -5   2 -11  117.67   11.49
  -5   1  10   79.86    8.95
  -5   1   9   90.65    8.44
   5  -1  -9  101.84    9.47
   5  -1  -8  237.11   11.33
  -5   1   8  239.69   10.62
   5  -1  -7   66.85    7.27
  -5   1   7   49.25    5.71
  -5   1   7   53.15    5.84
   5  -1  -7   50.44    5.65
   5  -1  -6  709.92   17.02
  -5   1   6  672.22   14.08
  -5   1   6  749.91   16.17
   5  -1  -6  777.56   15.77
   5  -1  -5 1144.65   19.89
  -5   1   5 1166.85   16.89
  -5   1   5 1221.16   20.04
   5  -1  -5 1217.04   14.77
   5  -1  -5 1255.75   18.93
   5  -1  -4   93.57    7.05
   5  -1  -4   77.60    4.69
  -5   1   4   82.42    6.73
  -5   1   4   78.69    5.11
   5  -1  -4   83.62    6.31
  -5   1   3 2016.61   18.08
   5  -1  -3 1989.09   22.94
   5  -1  -3 1998.51   19.49
   5  -1  -3 2050.96   23.02
   5  -1  -2 2587.92   24.36
  -5   1   2 2650.29   18.31
   5  -1  -2 2653.34   22.66
  -5   1   2 2723.47   28.55
   5  -1  -2 2675.58   25.73
  -5   1   1   80.26    4.84
   5  -1  -1   79.07    5.11
  -5   1   1   73.71    6.68
   5  -1  -1   85.97    6.17
  -5   1   0 2183.89   17.97
  -5   1   0 2188.70   25.18
   5  -1   0 2219.53   23.48
  -5   1  -1 1398.20   13.10
   5  -1   1 1370.68   12.41
  -5   1  -1 1347.54   16.84
  -5   1  -1 1400.43   20.15
   5  -1   1 1426.23   19.23
   5  -1   2   18.05    4.75
  -5   1  -2   24.34    2.40
  -5   1  -2   21.52    1.60
  -5   1  -2   29.68    4.69
  -5   1  -2   24.60    5.21
   5  -1   3 1390.12   19.57
  -5   1  -3 1411.02   10.77
  -5   1  -3 1392.70   18.45
  -5   1  -3 1437.10   20.41
   5  -1   3 1398.85    9.76
   5  -1   4  505.35   12.87
   5  -1   4  499.92    4.43
  -5   1  -4  515.48    6.57
  -5   1  -4  511.00   12.25
  -5   1  -4  525.71   13.05
  -5   1  -4  505.24    7.26
   5  -1   5 1236.17   19.91
  -5   1  -5 1226.82   10.62
  -5   1  -5 1268.67   19.30
   5  -1   6 1585.45   23.22
  -5   1  -6 1543.29   22.55
  -5   1  -6 1574.16   21.67
   5  -1   7    0.24    4.96
  -5   1  -7    1.31    5.65
  -5   1  -7    3.93    3.87
   5  -1   8  752.20   17.40
  -5   1  -8  793.10   19.11
   5  -1   9 1591.37   26.02
   5  -1   9 1614.17   22.89
   5  -1  10    5.80    5.55
   5  -1  10    7.01    5.01
  -5   1 -10   15.03    6.92
   5  -1  11  725.78   19.58
   5  -1  11  775.35   18.53
  -5   1 -11  735.74   21.76
   5  -1  12  384.37   15.53
   5  -1  12  365.42   14.06
   5  -1  12  327.54   13.60
  -5   1 -12  373.80   16.78
   5  -1  13    5.83    4.98
   5   0 -10  684.96   20.90
  -5   0  10  672.00   18.86
   5   0  -9  496.50   16.91
  -5   0   9  522.27   15.72
  -5   0   8    3.40    5.04
   5   0  -8    7.02    6.13
  -5   0   8    0.56    4.18
   5   0  -7 1060.85   20.87
  -5   0   7 1106.49   19.33
  -5   0   7 1056.29   18.91
  -5   0   6  527.26   12.81
   5   0  -6  534.27   14.49
  -5   0   6  565.04   13.89
   5   0  -5  190.54    9.07
  -5   0   5  178.49    7.65
  -5   0   5  193.16    8.77
  -5   0   4  944.91   14.27
  -5   0   4  961.42   17.23
   5   0  -3    8.08    3.99
  -5   0   3    5.63    4.10
   5   0  -2 1575.00   17.92
  -5   0   2 1547.54   20.98
   5   0  -1 1584.56   16.36
  -5   0   1 1616.56   21.21
   5   0  -1 1637.06   19.71
   5   0   0  145.31    5.14
   5   0   0  145.46    4.81
  -5   0   0  150.69    7.64
   5   0   0  147.74    7.01
   5   0   1 4765.11   22.07
   5   0   1 4833.79   19.86
  -5   0  -1 4755.85   34.93
   5   0   1 4793.42   33.32
   5   0   2 2863.80   13.85
  -5   0  -2 2825.81   24.45
  -5   0  -2 2815.07   26.72
   5   0   2 2860.36   26.06
   5   0   3    5.11    4.39
   5   0   3    5.01    0.68
  -5   0  -3    4.51    2.07
  -5   0  -3    0.15    3.89
  -5   0  -3    2.45    3.32
   5   0   4 2197.98   23.82
  -5   0  -4 2136.38   22.90
  -5   0  -4 2163.11   23.38
  -5   0  -4 2124.36   16.67
  -5   0  -5 1618.29   21.04
   5   0   5 1710.87   21.87
  -5   0  -5 1576.58    7.28
  -5   0  -5 1599.19    7.50
  -5   0  -5 1704.41   20.85
   5   0   6  242.57    9.62
  -5   0  -6  244.42    4.34
  -5   0  -6  231.35    4.28
  -5   0  -6  241.53    8.44
   5   0   7  925.01   17.59
  -5   0  -7  926.51   18.63
  -5   0  -7  952.46   15.73
   5   0   8  283.75   11.24
  -5   0  -8  302.41    9.48
  -5   0  -8  267.86   11.66
   5   0   9  201.06   10.38
   5   0   9  223.45    9.62
  -5   0  -9  210.17   10.87
  -5   0  -9  215.35    8.37
   5   0  10  714.18   17.72
   5   0  10  686.42   16.57
  -5   0 -10  668.01   19.07
   5   0  11    3.35    4.84
   5   0  11    5.31    5.40
  -5   0 -11    7.42    7.10
   5   0  12  740.53   19.71
   5   0  12  728.57   19.30
   5   0  12  711.23   19.36
  -5   0 -12  675.42   21.50
   5   0  13  513.08   17.48
   5   0  13  505.52   17.10
   5   0  13  501.30   17.52
  -5  -1  10    9.58    6.71
   5   1 -10    5.48    7.39
   5   1  -9  782.74   19.93
  -5  -1   9  746.19   18.67
  -5  -1   8  616.66   15.91
   5   1  -8  614.63   16.82
  -5  -1   8  635.72   15.26
   5   1  -7  201.40   10.62
  -5  -1   7  195.99    9.27
  -5  -1   7  199.73    9.06
   5   1  -6 1719.98   24.09
  -5  -1   6 1787.15   23.59
  -5  -1   6 1758.71   22.69
   5   1  -5 1328.51   19.96
  -5  -1   5 1356.80   20.36
   5   1  -4   42.32    5.17
  -5  -1   4   42.13    5.42
  -5  -1   3 1767.24   12.60
   5   1  -3 1709.20   19.45
  -5  -1   3 1726.94   22.08
  -5  -1   2  695.36   14.12
  -5  -1   2  697.58    8.76
   5   1  -2  672.62   11.51
   5   1  -1  133.87    5.22
  -5  -1   1  140.41    6.79
   5   1  -1  136.59    6.53
   5   1   0 1429.06   13.14
   5   1   0 1457.87   12.98
   5   1   0 1446.40   17.94
   5   1   1    9.71    3.84
   5   1   1   12.27    2.00
   5   1   1   11.83    1.67
  -5  -1  -1   11.87    3.98
   5   1   2 1651.43    9.47
  -5  -1  -2 1645.95   18.36
  -5  -1  -2 1639.78   19.62
   5   1   2 1663.58   19.29
  -5  -1  -3  658.15   12.30
  -5  -1  -3  658.03   12.49
   5   1   3  642.25   12.51
   5   1   4  604.63   12.29
  -5  -1  -4  590.02   12.34
   5   1   5 3368.06   28.65
  -5  -1  -5 3446.43   26.96
   5   1   6 1432.67   19.69
  -5  -1  -6 1431.09    9.05
  -5  -1  -6 1435.26   17.68
  -5  -1  -6 1408.14   20.47
   5   1   7    3.40    3.89
  -5  -1  -7    3.72    1.86
  -5  -1  -7    2.70    3.13
   5   1   8 1631.71   22.56
  -5  -1  -8 1660.96   19.01
   5   1   9 1372.80   21.62
  -5  -1  -9 1343.87   23.95
  -5  -1  -9 1417.45   17.31
   5   1  10   59.59    6.59
   5   1  10   56.08    6.65
  -5  -1 -10   54.54    8.19
   5   1  11  826.10   19.90
   5   1  11  918.64   19.69
   5   1  11  922.62   20.24
  -5  -1 -11  823.75   21.45
   5   1  12  131.45    9.42
   5   1  12  114.63    9.32
   5   1  12  104.64    8.75
  -5  -1 -12  122.81   11.01
   5   1  13  324.43   13.55
   5   1  13  317.76   14.09
   5   1  13  328.10   14.50
  -5  -1 -13  303.92   15.86
   5   1  14  203.39   11.41
   5   2 -10  373.15   14.92
  -5  -2  10  361.64   14.84
  -5  -2   9   39.87    6.39
   5   2  -9   28.50    7.45
  -5  -2   9   32.97    5.37
   5   2  -8  700.37   17.87
  -5  -2   8  695.91   17.26
  -5  -2   8  744.15   16.40
  -5  -2   7  483.57   13.60
   5   2  -7  486.46   14.33
  -5  -2   7  503.83   13.52
   5   2  -6  203.57    9.64
  -5  -2   6  207.94    9.13
   5   2  -5 1227.23   19.00
  -5  -2   5 1236.56   19.72
   5   2  -4  370.88   10.27
  -5  -2   4  384.84   11.36
  -5  -2   3  577.27    5.92
  -5  -2   3  575.38   13.24
   5   2  -2 2628.05   21.73
  -5  -2   2 2639.43   26.66
  -5  -2   1 1890.51   22.06
  -5  -2   1 1927.35   14.38
   5   2   0  304.65    6.48
  -5  -2   0  311.52    9.18
   5   2   1 2343.48   14.69
  -5  -2  -1 2349.28   23.09
   5   2   1 2358.41   21.97
   5   2   2 1004.16    8.23
   5   2   2 1001.46    6.79
  -5  -2  -2 1050.46    9.24
  -5  -2  -2 1027.99   14.21
  -5  -2  -2 1003.12   14.96
   5   2   2  980.17   14.56
  -5  -2  -3  113.79    2.56
  -5  -2  -3  109.66    6.01
  -5  -2  -3  115.24    5.68
   5   2   3  111.55    6.04
  -5  -2  -4 1313.04   17.16
  -5  -2  -4 1289.65   16.20
   5   2   4 1294.77   16.84
   5   2   5  180.92    7.23
  -5  -2  -5  174.70    7.65
  -5  -2  -5  178.41    6.45
   5   2   6 1912.38   21.32
  -5  -2  -6 1966.02   12.01
  -5  -2  -6 1830.86   22.47
  -5  -2  -6 1886.10   18.60
   5   2   7  548.01   12.25
  -5  -2  -7  539.18    5.42
  -5  -2  -7  586.85    8.41
  -5  -2  -7  534.25   13.51
  -5  -2  -7  569.71   10.29
  -5  -2  -8  284.55   11.47
   5   2   8  266.19    9.42
  -5  -2  -8  279.49    5.13
  -5  -2  -8  281.49    7.29
   5   2   9 1996.91   24.57
  -5  -2  -9 2003.98   18.02
   5   2  10  558.04   14.04
  -5  -2 -10  535.49   16.09
   5   2  11  344.27   13.34
  -5  -2 -11  370.00   14.32
   5   2  12 1159.83   24.32
   5   2  12 1243.58   22.30
   5   2  12 1229.12   24.32
  -5  -2 -12 1215.51   25.70
   5   2  13  204.53   10.60
   5   2  13  203.61   12.08
   5   2  13  216.85   11.89
  -5  -2 -13  210.82   12.62
  -5  -3  10  243.47   12.98
   5   3 -10  265.68   13.61
   5   3  -9  841.75   20.88
  -5  -3   9  852.56   20.40
  -5  -3   9  854.77   18.44
   5   3  -8   57.27    7.67
  -5  -3   8   57.60    6.35
  -5  -3   8   59.30    7.19
   5   3  -7  481.64   14.35
  -5  -3   7  533.25   14.10
   5   3  -6  989.08   18.40
  -5  -3   6 1024.46   18.76
   5   3  -5   27.07    5.05
  -5  -3   5   25.53    5.25
   5   3  -4  873.57   15.31
  -5  -3   4  864.35   16.61
   5   3  -3  594.00   11.95
  -5  -3   3  586.63    5.12
  -5  -3   3  598.60    4.86
   5   3  -2   47.61    4.65
  -5  -3   2   43.79    5.12
  -5  -3   1 3176.06   28.64
   5   3  -1 3253.76   22.79
   5   3   0 1006.85   11.77
  -5  -3   0 1035.21   16.17
   5   3   1 2081.12   15.33
  -5  -3  -1 2059.66   21.76
  -5  -3  -2 3322.84   26.52
   5   3   2 3258.20   15.95
  -5  -3  -2 3273.71   24.25
   5   3   2 3299.70   25.06
   5   3   2 3275.14   17.92
   5   3   3  670.41    6.77
  -5  -3  -3  697.63   11.92
  -5  -3  -3  689.40   11.90
   5   3   3  670.31   11.81
   5   3   4 1259.94    9.30
  -5  -3  -4 1253.18   15.36
  -5  -3  -4 1279.63   16.50
   5   3   4 1256.73   15.97
   5   3   5 3426.04   16.98
  -5  -3  -5 3590.60   16.97
  -5  -3  -5 3518.27   24.50
  -5  -3  -5 3654.79   15.98
   5   3   5 3541.81   26.79
   5   3   6  202.18    7.58
   5   3   6  197.39    5.10
  -5  -3  -6  217.43    5.31
  -5  -3  -6  197.13    8.08
  -5  -3  -6  200.31    6.21
  -5  -3  -6  212.42    4.70
   5   3   7  774.01   13.56
  -5  -3  -7  766.71   10.58
  -5  -3  -7  728.58   14.96
  -5  -3  -7  759.44   10.72
   5   3   8  293.28    9.25
  -5  -3  -8  293.77    6.66
  -5  -3  -8  285.47   10.90
  -5  -3  -8  318.73    6.94
   5   3   9   53.71    5.27
  -5  -3  -9   53.27    3.87
  -5  -3  -9   52.40    6.88
   5   3  10  655.18   14.05
  -5  -3 -10  653.81   16.88
   5   3  11  501.94   13.19
   5   3  11  467.86   15.55
  -5  -3 -11  458.75   15.49
   5   3  12  232.46   10.00
   5   3  12  213.34   11.44
   5   3  13  679.95   19.71
  -5  -3 -13  684.25   20.13
   5   4  -9  222.49   12.17
  -5  -4   9  250.92   11.10
  -5  -4   9  238.06   12.06
   5   4  -8  799.63   19.48
  -5  -4   8  853.13   18.71
   5   4  -7   70.85    7.56
  -5  -4   7   73.34    6.95
  -5  -4   6  526.64   14.48
   5   4  -6  527.13   14.46
   5   4  -5 2023.29   24.97
  -5  -4   5 2161.72   27.77
   5   4  -4   21.71    5.69
  -5  -4   4   24.99    5.66
   5   4  -3 2426.34   23.97
  -5  -4   3 2435.24   10.57
  -5  -4   3 2478.82   28.49
   5   4  -2 2794.49   23.98
  -5  -4   2 2791.91   15.27
   5   4  -1   19.26    3.85
  -5  -4   1   17.34    5.00
   5   4   0 2037.91   18.19
  -5  -4   0 2096.10   23.62
  -5  -4  -1  676.15   13.15
   5   4   1  664.82   10.23
   5   4   2  234.20    5.72
  -5  -4  -2  233.95    7.00
  -5  -4  -2  247.63    8.09
   5   4   2  224.99    6.14
   5   4   3 1457.24   12.78
  -5  -4  -3 1448.20   16.22
  -5  -4  -3 1461.49   17.18
   5   4   3 1459.45   16.50
   5   4   4  459.85    7.63
  -5  -4  -4  458.16    9.52
  -5  -4  -4  461.86   10.01
   5   4   4  430.87    9.39
   5   4   5  697.42    9.72
  -5  -4  -5  791.40   10.28
  -5  -4  -5  703.53   12.72
  -5  -4  -5  728.30   11.16
  -5  -4  -5  780.54   10.12
   5   4   5  716.07   11.99
   5   4   6 3604.47   26.37
   5   4   6 3500.22   22.52
  -5  -4  -6 3452.04   28.22
  -5  -4  -6 3615.24   23.20
   5   4   7  143.47    6.27
   5   4   7  147.06    5.70
  -5  -4  -7  162.02    5.18
  -5  -4  -7  142.35    7.78
   5   4   7  149.77    4.81
   5   4   8 1736.00   19.43
   5   4   8 1706.33   18.53
  -5  -4  -8 1712.68   23.04
   5   4   8 1669.45   23.93
   5   4   9 1093.79   20.77
  -5  -4  -9 1132.14   20.04
   5   4  10   54.58    5.07
  -5  -4 -10   53.15    4.79
  -5  -4 -10   45.55    6.14
   5   4  10   41.59    5.89
   5   4  11  543.54   16.65
  -5  -4 -11  553.62   16.15
   5   4  12  489.19   16.25
  -5  -4 -12  511.28   16.58
   5   4  13    3.14    5.18
  -5  -4 -13    3.62    6.16
  -5  -5   9  508.26   16.90
   5   5  -9  522.25   17.58
  -5  -5   9  535.04   16.26
   5   5  -8   27.53    6.59
  -5  -5   8   57.56    6.82
   5   5  -7  358.97   13.05
  -5  -5   7  389.59   13.73
   5   5  -6  163.96    9.41
  -5  -5   6  152.47    9.46
   5   5  -5  124.88    7.97
  -5  -5   5  139.36    8.62
   5   5  -4  811.80   16.07
  -5  -5   4  834.04   18.26
  -5  -5   3   67.04    2.63
  -5  -5   3   70.24    7.18
   5   5  -2 2142.17   22.63
  -5  -5   2 2084.50   14.44
  -5  -5   2 2098.82   27.00
  -5  -5   1 2585.06   28.95
  -5  -5   1 2572.51   18.20
   5   5  -1 2588.33   23.79
  -5  -5   0  180.11    8.33
  -5  -5   0  171.66    5.93
   5   5   0  174.99    7.09
  -5  -5  -1 2858.36   27.83
   5   5   1 2767.66   22.97
   5   5   2 2320.50   19.49
  -5  -5  -2 2367.39   24.17
   5   5   3   22.42    3.45
  -5  -5  -3   27.23    4.15
  -5  -5  -3   19.96    3.56
   5   5   4 1233.47   14.29
  -5  -5  -4 1209.72   14.99
  -5  -5  -4 1258.57   15.82
   5   5   4 1224.62   14.88
   5   5   5 1739.35   17.48
  -5  -5  -5 1770.41   18.75
   5   5   5 1778.25   17.76
   5   5   6   12.85    3.46
   5   5   6   17.80    3.51
   5   5   6   16.72    4.55
  -5  -5  -6   12.96    4.39
  -5  -5  -6   17.73    3.03
   5   5   7 1302.36   15.39
   5   5   7 1267.74   16.47
  -5  -5  -7 1243.49   17.75
   5   5   7 1260.92   20.33
  -5  -5  -7 1329.02   13.11
   5   5   8   28.40    3.77
   5   5   8   23.04    4.14
   5   5   8   17.56    4.56
  -5  -5  -8   21.86    2.21
  -5  -5  -8   11.70    5.02
   5   5   9  637.18   13.36
  -5  -5  -9  656.68   15.05
   5   5   9  625.91   16.15
   5   5  10 1081.36   18.08
  -5  -5 -10 1089.26   20.02
  -5  -5 -11   33.15    5.06
   5   5  11   25.06    5.26
  -5  -5 -11   30.32    6.13
   5   5  12  531.63   17.10
  -5  -5 -12  566.33   16.60
   5   5  13  658.46   19.76
  -5  -5 -13  639.86   18.42
  -5  -5 -14    2.82    6.65
  -5  -6   9  737.92   20.23
   5   6  -8  442.75   16.35
  -5  -6   8  472.18   16.37
   5   6  -7    9.81    6.12
  -5  -6   7    9.83    5.61
   5   6  -6  811.94   18.66
  -5  -6   6  878.08   20.86
   5   6  -5  695.25   16.59
  -5  -6   5  754.00   19.00
   5   6  -4    7.19    4.83
  -5  -6   4    3.76    5.66
  -5  -6   3 1002.01   21.05
  -5  -6   3 1019.40   10.72
   5   6  -3  986.77   17.84
  -5  -6   2  486.45    8.22
  -5  -6   2  491.38   14.54
   5   6  -2  478.79   12.46
  -5  -6   1  346.52    7.60
  -5  -6   1  381.70   12.72
   5   6  -1  367.54   10.98
  -5  -6   0  415.16   12.79
  -5  -6   0  406.63    8.88
   5   6   0  410.43   10.79
  -5  -6  -1  340.77   11.21
   5   6   1  328.13    9.33
  -5  -6  -1  314.67    8.60
   5   6   1  328.33    9.78
   5   6   2 2015.98   20.52
  -5  -6  -2 1996.76   23.75
   5   6   3 1174.40   15.73
  -5  -6  -3 1216.88   17.71
   5   6   3 1202.86   16.11
  -5  -6  -3 1176.93   17.95
   5   6   4   11.67    3.23
   5   6   4    9.40    3.74
   5   6   4   12.52    3.76
  -5  -6  -4   15.86    3.57
  -5  -6  -4   14.91    3.73
   5   6   5 2341.19   22.79
  -5  -6  -5 2347.41   20.61
   5   6   5 2376.66   25.90
   5   6   5 2394.92   20.16
   5   6   6 2856.17   25.80
  -5  -6  -6 2910.85   24.40
  -5  -6  -6 2982.12   22.19
   5   6   6 3031.50   30.70
   5   6   6 2972.90   22.17
   5   6   7  134.13    5.34
   5   6   7  133.59    6.97
   5   6   7  136.50    8.03
  -5  -6  -7  137.82    6.72
  -5  -6  -7  130.56    4.89
   5   6   8 1410.73   19.82
   5   6   8 1393.24   23.15
  -5  -6  -8 1414.11   19.11
   5   6   9  523.03   13.19
   5   6   9  516.90   15.17
  -5  -6  -9  520.11   13.02
   5   6  10   77.05    6.54
   5   6  10   65.95    7.46
  -5  -6 -10   76.86    6.91
   5   6  11  407.90   12.99
   5   6  11  379.68   14.36
  -5  -6 -11  361.10   12.58
   5   6  12    4.62    5.47
  -5  -6 -12    0.10    5.20
  -5  -6 -13  232.93   11.66
  -5  -6 -13  235.80   12.64
  -5  -6 -14  214.58   11.85
  -5  -7   9    3.51    6.42
  -5  -7   8  381.08   15.70
   5   7  -8  360.67   15.84
  -5  -7   7  193.45   11.91
   5   7  -7  159.56   11.42
  -5  -7   6  107.92    9.39
   5   7  -6  100.46    9.47
  -5  -7   5 1031.78   23.48
   5   7  -5  943.51   20.27
  -5  -7   4  880.70   21.80
   5   7  -4  818.27   18.09
  -5  -7   3   91.55    4.41
  -5  -7   3  109.61    9.47
   5   7  -3   95.73    8.31
  -5  -7   2 1917.19   17.83
   5   7  -2 1907.23   25.17
  -5  -7   1 1021.61   13.92
   5   7  -1 1062.72   18.78
   5   7   0   64.80    6.44
  -5  -7   0   70.27    4.96
   5   7   0   73.27    2.68
   5   7   0   69.22    6.59
   5   7   1 1734.05   21.87
  -5  -7  -1 1720.45   20.07
  -5  -7  -1 1751.85   25.36
   5   7   2  134.25    7.49
   5   7   2  151.13    5.95
  -5  -7  -2  131.00    6.92
  -5  -7  -2  130.27    7.73
   5   7   3  579.37   12.77
   5   7   3  615.39   12.13
  -5  -7  -3  584.13   13.46
   5   7   4  281.04    9.40
  -5  -7  -4  286.82    9.34
  -5  -7  -4  279.73   10.28
   5   7   4  270.49    9.09
   5   7   5   73.09    6.09
  -5  -7  -5   80.47    4.84
   5   7   5   76.47    6.22
  -5  -7  -5   79.39    5.35
  -5  -7  -5   75.83    7.15
   5   7   5   82.18    4.59
   5   7   6 1910.65   23.27
   5   7   6 1994.39   25.72
  -5  -7  -6 1947.46   18.76
  -5  -7  -6 2017.06   19.86
  -5  -7  -6 1890.18   26.69
   5   7   6 2021.13   17.68
  -5  -7  -7  540.63    9.65
   5   7   7  507.14   13.13
   5   7   7  516.40   14.31
  -5  -7  -7  528.87   10.86
  -5  -7  -7  516.18   15.23
   5   7   8  390.07   12.08
   5   7   8  396.65   13.40
  -5  -7  -8  390.99   10.23
  -5  -7  -8  399.14   13.76
   5   7   9 1221.87   20.94
  -5  -7  -9 1279.63   18.68
  -5  -7  -9 1206.29   23.22
   5   7  10  647.20   16.27
   5   7  10  655.00   17.89
  -5  -7 -10  644.00   14.61
  -5  -7 -10  649.07   18.21
  -5  -7 -11    7.85    5.42
   5   7  11   10.10    5.18
   5   7  11    9.39    5.62
  -5  -7 -11   14.97    4.85
   5   7  12  673.12   18.11
   5   7  12  678.71   19.87
  -5  -7 -12  667.79   19.15
  -5  -7 -13  255.78   13.72
  -5  -8   7  331.26   15.56
   5   8  -7  322.47   15.86
  -5  -8   6  439.76   17.25
   5   8  -6  415.86   16.01
   5   8  -5    5.33    6.43
  -5  -8   5    1.06    6.29
  -5  -8   4  628.38   19.72
   5   8  -4  575.87   17.12
  -5  -8   3  593.35   19.12
   5   8  -3  564.30   16.01
  -5  -8   2  291.71    8.34
  -5  -8   2  306.88   14.13
   5   8  -2  309.81   12.33
  -5  -8   1 1305.42   25.18
  -5  -8   1 1289.17   17.16
   5   8  -1 1321.79   21.95
   5   8  -1 1308.84   22.00
  -5  -8   0  323.02    9.51
   5   8   0  331.33   11.81
  -5  -8   0  347.16   13.50
   5   8   1  551.82   14.38
  -5  -8  -1  563.68   12.71
  -5  -8  -1  576.97   16.00
   5   8   2 2546.55   28.55
  -5  -8  -2 2629.72   31.06
   5   8   3  556.13   13.89
   5   8   3  599.75   11.78
  -5  -8  -3  592.22   14.35
  -5  -8  -3  570.82   14.43
   5   8   4  169.04    8.62
   5   8   4  192.90    7.88
  -5  -8  -4  195.12    8.68
  -5  -8  -4  188.32    9.26
  -5  -8  -5  808.77   18.03
   5   8   5  857.77   17.28
   5   8   5  963.52   17.38
  -5  -8  -5  902.89   15.86
   5   8   5  913.07   12.59
   5   8   6   69.31    6.88
   5   8   6   72.83    6.56
  -5  -8  -6   64.55    5.08
  -5  -8  -6   52.55    6.63
   5   8   7  389.90   12.51
   5   8   7  417.10   13.18
  -5  -8  -7  373.06   13.63
   5   8   8  420.79   13.24
   5   8   8  427.78   14.18
  -5  -8  -8  427.69   14.56
  -5  -8  -9   27.70    6.56
   5   8   9   34.23    6.14
   5   8   9   34.17    6.64
  -5  -8 -10  557.04   17.22
   5   8  10  575.45   16.37
   5   8  10  582.65   17.77
   5   8  11  238.12   11.72
   5   8  11  254.64   12.68
  -5  -8 -11  244.03   12.98
   5   8  12  127.17   10.05
  -5  -8 -12  125.87   10.54
   5   8  13  951.95   23.38
  -5  -9   5  803.81   24.25
   5   9  -5  787.09   21.78
   5   9  -4   34.52    8.44
  -5  -9   4   46.45    8.80
  -5  -9   3  418.55   17.45
   5   9  -3  407.87   15.10
  -5  -9   2  542.04   12.24
  -5  -9   2  559.39   19.07
   5   9  -2  562.91   16.79
  -5  -9   1   10.28    3.55
   5   9  -1   13.81    6.69
  -5  -9   1   10.44    6.53
  -5  -9   0  488.54   12.39
   5   9   0  463.11   14.46
  -5  -9   0  506.28   16.92
  -5  -9  -1  445.39   12.32
   5   9   1  481.63   14.45
  -5  -9  -1  459.22   15.62
   5   9   2   81.34    7.77
  -5  -9  -2   75.42    6.50
  -5  -9  -2   75.71    7.23
   5   9   3  937.91   19.23
  -5  -9  -3  934.62   18.64
  -5  -9  -3  978.13   19.93
   5   9   4  226.51   10.50
  -5  -9  -4  232.12   10.45
  -5  -9  -4  242.62   10.21
   5   9   5  753.34   17.87
  -5  -9  -5  768.67   18.67
  -5  -9  -5  791.24   16.23
   5   9   6 1470.86   24.59
  -5  -9  -6 1458.90   25.70
   5   9   7  167.00   10.04
  -5  -9  -7  144.32   10.40
  -5  -9  -8  323.50   14.09
   5   9   8  332.49   13.13
   5   9   9  624.75   17.77
  -5  -9  -9  568.18   18.21
  -5  -9 -10   48.30    7.93
   5   9  10   44.78    7.36
   5   9  11  176.70   11.20
   5  10  -3    3.47    8.29
  -5 -10   3    7.52    7.05
   5  10  -2  590.88   18.83
  -5 -10   2  648.47   21.59
  -5 -10   1  814.87   16.63
   5  10  -1  862.58   21.47
  -5 -10   0   35.63    5.55
   5  10   0   42.76    7.57
  -5 -10   0   40.54    7.59
   5  10   1  810.53   20.20
  -5 -10  -1  776.84   20.65
  -5 -10  -2  904.89   19.23
   5  10   2  865.44   20.52
  -5 -10  -3   25.16    5.65
   5  10   3   32.42    6.85
  -5 -10  -3   32.07    6.40
   5  10   4  386.87   14.44
  -5 -10  -4  371.49   13.78
  -5 -10  -4  394.43   13.65
   5  10   5  189.97   10.78
  -5 -10  -5  189.67   10.59
   5  10   6   92.13    9.05
  -5 -10  -6   85.09    8.62
   5  10   7  628.01   18.11
  -5 -10  -7  632.60   18.86
   5  10   8   64.17    8.27
  -5 -10  -8   67.19    8.16
   5  10   9  426.32   15.93
  -5 -10  -9  441.89   17.08
   5  10  10  443.25   16.86
  -5 -11   1  244.58   10.54
   5  11  -1  274.73   14.63
  -5 -11   1  257.07   14.36
  -5 -11   0  359.13   12.74
   5  11   0  392.49   15.96
  -5 -11   0  391.09   17.52
  -5 -11  -1    9.61    5.00
   5  11   1    7.57    6.63
  -5 -11  -1    3.03    6.72
  -5 -11  -2  795.73   19.30
   5  11   2  802.55   21.57
  -5 -11  -3  757.97   19.57
   5  11   3  779.32   21.40
  -5 -11  -4   37.61    7.35
   5  11   4   41.83    8.67
  -5 -11  -4   32.70    7.10
   5  11   5  790.78   21.69
  -5 -11  -5  786.10   21.15
   5  11   6  694.19   20.49
  -5 -11  -6  639.58   19.52
   5  11   7    6.99    6.83
  -5 -12   0   52.54    7.01
  -5 -12  -1  178.17   10.65
  -5 -12  -2    2.01    4.63
  -5 -12  -2    2.95    6.80
  -5 -12  -3  244.38   13.18
  -5 -12  -4  138.14    9.88
   6  -6   2  145.69   10.42
   6  -6   3  283.81   13.58
  -6   5   6   48.31    8.36
  -6   5   5   83.87    9.15
   6  -5  -5   77.02    8.48
  -6   5   5   88.21    8.91
   6  -5  -5   80.51    7.80
  -6   5   4  327.90   14.10
  -6   5   4  321.39   14.02
   6  -5  -4  297.56   12.77
  -6   5   3    5.39    5.64
  -6   5   3    7.75    6.70
   6  -5  -3    2.81    5.51
   6  -5  -2  369.08   14.03
  -6   5   2  425.47   16.07
   6  -5  -1  163.46   10.15
  -6   5   1  184.33   11.87
   6  -5   0  169.54    9.71
   6  -5   0  147.09    9.54
  -6   5   0  182.98   11.80
   6  -5   1  829.63   19.25
  -6   5  -1  850.71   22.77
   6  -5   2   25.66    6.33
  -6   5  -2   21.65    7.65
   6  -5   3  434.05   15.37
  -6   5  -3  433.23   16.91
   6  -5   4  714.30   19.66
  -6   5  -4  771.63   22.25
   6  -5   5  289.97   14.13
  -6   5  -5  329.61   14.95
   6  -4  -6  434.38   16.63
  -6   4   6  411.63   14.99
  -6   4   5   28.24    6.64
   6  -4  -5   32.78    7.10
  -6   4   5   33.10    6.43
   6  -4  -5   31.08    5.94
  -6   4   4  329.58   13.59
   6  -4  -4  357.54   14.15
  -6   4   4  326.31   13.56
   6  -4  -4  351.08   12.72
  -6   4   3  996.64   21.03
  -6   4   3 1031.00   22.55
   6  -4  -2  179.99    9.00
  -6   4   2  169.02    9.30
   6  -4  -2  142.75    9.21
  -6   4   2  170.92   10.82
   6  -4  -1  366.60   12.30
  -6   4   1  367.76   12.22
  -6   4   1  342.42   13.63
   6  -4   0  648.57   16.16
  -6   4   0  655.51   18.51
   6  -4   1    5.61    5.14
  -6   4  -1    3.70    6.40
   6  -4   2  477.10   14.90
  -6   4  -2  450.03   12.31
  -6   4  -2  477.49   16.11
   6  -4   3  128.36    9.28
  -6   4  -3  116.46    7.46
  -6   4  -3  124.24   10.14
   6  -4   4  381.01   14.55
  -6   4  -4  369.02   12.27
  -6   4  -4  398.82   15.74
   6  -4   5  882.46   21.37
  -6   4  -5  821.75   18.25
  -6   4  -5  869.17   22.24
   6  -4   6   97.79    9.66
  -6   4  -6   96.61    8.29
  -6   4  -6   96.35    9.48
   6  -4   7  521.01   18.24
  -6   4  -7  465.46   15.90
  -6   4  -7  504.52   17.68
  -6   4  -8 1113.72   24.83
  -6   4  -9   35.66    8.34
   6  -3  -7   82.96    9.75
   6  -3  -6   88.75    8.67
  -6   3   6   92.96    8.41
   6  -3  -5  525.60   16.44
  -6   3   5  537.39   16.28
   6  -3  -5  513.98   13.60
  -6   3   4  133.09    8.71
   6  -3  -4  118.22    8.47
  -6   3   4  141.09    9.35
   6  -3  -4  134.06    7.79
   6  -3  -4  145.92    8.10
   6  -3  -3  458.69   13.04
  -6   3   3  443.24   13.49
   6  -3  -3  440.06   13.72
  -6   3   3  433.68   14.86
   6  -3  -3  427.93   12.79
   6  -3  -2 1677.40   23.64
  -6   3   2 1620.42   23.28
  -6   3   2 1649.67   26.80
   6  -3  -1  174.16    9.11
  -6   3   1  156.55    8.00
  -6   3   1  170.51   10.24
   6  -3   0 1468.89   22.60
  -6   3   0 1468.81   20.07
   6  -3   1 1597.08   24.13
  -6   3  -1 1667.49   19.97
  -6   3  -1 1596.81   26.64
   6  -3   2   13.61    5.53
  -6   3  -2   12.66    4.46
  -6   3  -2   12.96    5.64
   6  -3   3  868.60   19.01
  -6   3  -3  873.67   20.04
   6  -3   4  744.46   18.29
  -6   3  -4  769.60   19.19
   6  -3   5    4.35    5.31
  -6   3  -5    3.74    4.64
  -6   3  -5   -0.23    5.22
  -6   3  -6  341.99   12.79
   6  -3   6  367.94   14.08
  -6   3  -6  351.71   13.65
   6  -3   7   62.14    8.07
  -6   3  -7   61.21    7.42
  -6   3  -7   64.38    7.41
   6  -3   8  417.30   16.30
  -6   3  -8  410.64   15.55
  -6   3  -8  439.93   15.66
   6  -3   9  600.96   19.37
  -6   3  -9  542.43   18.70
   6  -2  -8    8.32    7.16
   6  -2  -7  496.37   16.57
  -6   2   7  564.74   16.03
   6  -2  -6  529.92   16.27
  -6   2   6  570.24   15.94
   6  -2  -5   34.38    5.60
   6  -2  -5   35.12    6.84
  -6   2   5   27.62    6.15
   6  -2  -4 1027.24   19.84
   6  -2  -4 1050.67   17.36
  -6   2   4 1041.90   20.75
   6  -2  -3  457.35   13.16
   6  -2  -3  466.37   12.06
   6  -2  -3  485.42   13.24
  -6   2   2  159.33    7.72
   6  -2  -2  175.95    8.37
   6  -2  -2  167.59    7.86
  -6   2   2  164.75    9.18
   6  -2  -2  168.17    8.54
  -6   2   1  794.08   14.19
   6  -2  -1  777.12   14.55
  -6   2   1  771.18   17.96
   6  -2   0   12.85    4.81
  -6   2   0   17.41    3.43
  -6   2   0    7.94    5.25
   6  -2   1  715.05   15.98
  -6   2  -1  706.84   11.78
  -6   2  -1  699.01   17.24
   6  -2   2 1280.49   21.14
  -6   2  -2 1298.27   14.51
  -6   2  -2 1304.25   22.93
   6  -2   3    9.01    5.63
  -6   2  -3    9.50    4.48
  -6   2  -3   10.47    5.82
   6  -2   4 1175.20   21.29
  -6   2  -4 1131.15   19.25
   6  -2   5 1221.40   22.35
  -6   2  -5 1256.14   22.54
   6  -2   6   27.79    6.34
  -6   2  -6   23.11    5.55
  -6   2  -6   20.87    5.43
   6  -2   7 1149.07   23.20
  -6   2  -7 1188.33   22.79
   6  -2   8  457.71   15.93
  -6   2  -8  415.92   15.24
  -6   2  -8  459.73   14.75
   6  -2   9   37.14    7.55
  -6   2  -9   30.67    7.32
  -6   2  -9   32.46    6.02
   6  -2  10  170.90   11.65
  -6   2 -10  161.31   11.71
  -6   1   8  268.40   11.68
   6  -1  -8  273.14   13.45
   6  -1  -7    5.10    6.10
  -6   1   7    8.74    5.09
  -6   1   7    5.63    4.86
   6  -1  -6  584.45   16.35
  -6   1   6  628.72   14.44
  -6   1   6  589.96   15.96
   6  -1  -5  532.42   15.00
  -6   1   5  562.11   12.44
  -6   1   5  559.90   15.29
   6  -1  -4   28.06    5.53
  -6   1   4   28.26    4.16
   6  -1  -4   20.69    5.33
  -6   1   4   29.22    5.82
  -6   1   3 1448.23   23.46
   6  -1  -3 1490.60   21.91
  -6   1   3 1460.41   16.25
  -6   1   2  812.99   11.09
   6  -1  -2  785.31   14.84
  -6   1   2  808.81   17.76
   6  -1  -2  843.22   16.73
   6  -1  -1  513.52   11.19
  -6   1   1  545.82    8.05
  -6   1   1  527.95   14.62
   6  -1  -1  533.77   13.57
   6  -1   0 1069.17   14.46
  -6   1   0 1131.03   20.28
   6  -1   0 1114.20   18.80
   6  -1   1  456.31   12.83
  -6   1  -1  479.14    8.35
   6  -1   1  476.20    8.99
  -6   1  -1  460.53   11.56
  -6   1  -1  465.57   13.68
   6  -1   2   56.89    6.29
  -6   1  -2   55.39    3.09
   6  -1   2   53.87    3.37
  -6   1  -2   48.62    5.60
  -6   1  -2   55.30    6.59
   6  -1   3 1078.28   18.92
  -6   1  -3 1084.72    9.21
   6  -1   3 1093.23    9.67
  -6   1  -3 1068.49   19.68
   6  -1   4   45.55    6.56
  -6   1  -4   41.84    6.08
   6  -1   5  548.67   14.87
  -6   1  -5  535.35   14.31
   6  -1   6  660.01   16.34
  -6   1  -6  667.23   15.88
   6  -1   7   56.65    7.61
  -6   1  -7   58.86    7.55
  -6   1  -7   53.01    6.68
   6  -1   8 1436.04   25.31
  -6   1  -8 1324.77   24.95
   6  -1   9  666.00   18.24
  -6   1  -9  674.47   16.49
   6  -1  10   32.23    7.01
  -6   1 -10   36.77    7.39
   6  -1  11  496.11   17.72
  -6   1 -11  507.96   19.88
  -6   0  10  522.06   17.72
   6   0  -9  127.88   10.25
  -6   0   9  131.42    9.87
   6   0  -8  101.17    8.91
  -6   0   8  101.46    8.07
  -6   0   8   96.80    7.72
  -6   0   7  722.65   17.38
  -6   0   7  704.21   16.36
   6   0  -6   64.50    7.23
  -6   0   6   57.97    6.54
   6   0  -6   67.71    6.96
  -6   0   6   62.24    6.18
   6   0  -5  382.75   12.27
  -6   0   5  387.94   10.85
  -6   0   5  401.77   12.95
   6   0  -4  454.18   12.34
  -6   0   4  493.89   13.99
  -6   0   4  480.79   10.99
   6   0  -4  490.32   13.44
   6   0  -3    0.33    4.58
   6   0  -3    6.86    4.25
  -6   0   3    7.21    4.83
   6   0  -2 1321.08   17.60
  -6   0   2 1364.59   22.13
   6   0  -2 1374.27   20.65
   6   0  -1  231.96    7.39
  -6   0   1  246.76   10.54
   6   0   0  860.25   11.98
  -6   0   0  870.93   17.36
   6   0   0  879.34   16.38
   6   0   1 2136.25   16.37
   6   0   1 2144.41   14.72
  -6   0  -1 2096.21   22.79
  -6   0  -1 2166.48   26.59
   6   0   1 2187.95   25.29
   6   0   2  963.81    9.28
  -6   0  -2  936.63   15.75
  -6   0  -2  976.82   18.00
   6   0   2  987.86   17.48
   6   0   3  329.86   10.73
   6   0   3  327.26    3.86
  -6   0  -3  317.25    6.74
  -6   0  -3  332.42   10.33
  -6   0  -3  320.41   10.96
   6   0   4 2796.70   29.44
  -6   0  -4 2800.68   29.47
   6   0   5  891.11   17.57
  -6   0  -5  874.88   16.84
   6   0   6  674.05   15.69
  -6   0  -6  671.55   14.96
   6   0   7 1196.09   21.26
  -6   0  -7 1211.54   19.55
   6   0   8    4.21    4.87
  -6   0  -8    3.97    5.14
  -6   0  -8    1.38    4.35
   6   0   9  574.38   16.11
  -6   0  -9  547.48   17.51
  -6   0  -9  596.43   14.18
   6   0  10  153.60   10.28
  -6   0 -10  166.95   11.93
  -6   0 -10  176.21    8.47
   6   0  11  216.14   11.66
  -6   0 -11  202.91   12.70
   6   0  12  531.45   17.91
   6   1  -9  542.57   17.74
  -6  -1   9  554.51   17.02
   6   1  -8  128.67    9.90
  -6  -1   8  140.08    8.77
  -6  -1   8  140.24    9.39
   6   1  -7  348.24   13.26
  -6  -1   7  350.61   12.35
  -6  -1   7  371.77   12.94
   6   1  -6 1605.93   24.76
  -6  -1   6 1658.95   25.18
  -6  -1   6 1580.30   22.75
   6   1  -5  391.56   12.42
  -6  -1   5  392.17   12.71
   6   1  -4  270.90    9.81
  -6  -1   4  275.71   10.88
   6   1  -3 2034.39   22.69
  -6  -1   3 2066.83   26.87
   6   1  -3 2108.26   25.61
   6   1  -2  192.08    7.48
  -6  -1   2  198.12    9.43
   6   1  -2  198.31    8.80
   6   1  -1 1182.33   14.74
  -6  -1   1 1193.42   19.90
   6   1  -1 1225.95   18.91
   6   1   0 1300.64   13.75
   6   1   0 1287.96   13.67
  -6  -1   0 1328.29   20.70
   6   1   1   97.75    3.91
   6   1   1   99.16    3.53
  -6  -1  -1   98.29    7.28
   6   1   1   97.41    6.71
   6   1   2 1670.08   11.09
  -6  -1  -2 1640.99   20.11
  -6  -1  -2 1674.39   22.50
   6   1   2 1613.94   21.14
  -6  -1  -3   93.99    6.75
  -6  -1  -3  103.74    7.03
   6   1   3  110.41    6.89
   6   1   3   84.35    1.78
   6   1   4 1404.21   20.21
  -6  -1  -4 1432.49   20.16
  -6  -1  -4 1388.96   19.90
   6   1   5 2959.69   29.43
  -6  -1  -5 3050.58   28.65
   6   1   6  426.47   12.22
  -6  -1  -6  398.93   12.49
  -6  -1  -6  424.90   11.41
   6   1   7  864.82   17.48
  -6  -1  -7  830.64   18.04
  -6  -1  -7  883.66   15.70
   6   1   8 2238.44   28.26
  -6  -1  -8 2284.87   24.53
   6   1   9  462.32   14.34
  -6  -1  -9  449.30   11.66
   6   1  10  308.40   12.07
  -6  -1 -10  307.91   14.49
   6   1  11  492.29   15.61
  -6  -1 -11  472.24   17.29
   6   1  12   30.01    6.85
   6   1  12   31.83    6.53
  -6  -1 -12   21.25    7.52
   6   1  13  326.26   14.31
   6   1  13  304.88   14.67
   6   2  -9    3.25    6.47
  -6  -2   9    3.02    6.51
   6   2  -8  539.19   16.42
  -6  -2   8  552.59   16.12
  -6  -2   8  591.20   16.07
   6   2  -7  374.33   13.44
  -6  -2   7  401.01   13.30
  -6  -2   7  372.93   12.87
   6   2  -6  425.98   13.29
  -6  -2   6  472.24   14.06
  -6  -2   5 1186.84   20.98
   6   2  -5 1176.25   19.81
   6   2  -4  209.25    8.99
  -6  -2   4  212.58    9.53
   6   2  -3 1110.51   16.80
  -6  -2   3 1124.40   20.00
   6   2  -2 2578.92   23.26
  -6  -2   2 2612.15   29.47
  -6  -2   2 2568.67   17.39
   6   2  -1  239.99    7.13
  -6  -2   1  250.26    9.96
   6   2  -1  257.50    9.61
   6   2   0 1212.59   13.33
   6   2   0 1259.43   13.54
  -6  -2   0 1225.72   19.61
   6   2   0 1243.32   18.47
   6   2   1 2791.04   17.74
  -6  -2  -1 2865.56   28.77
   6   2   1 2841.10   27.10
   6   2   2  226.36    4.56
   6   2   2  223.14    3.45
  -6  -2  -2  219.72    8.26
  -6  -2  -2  228.82    8.92
   6   2   2  227.55    8.85
  -6  -2  -3  747.12   14.19
  -6  -2  -3  742.03   14.47
   6   2   3  717.38    6.21
   6   2   3  761.53   14.46
  -6  -2  -4  721.09   14.34
  -6  -2  -4  723.12   14.05
   6   2   4  730.57   14.60
   6   2   5  145.73    7.53
  -6  -2  -5  133.26    8.16
  -6  -2  -5  139.05    6.80
   6   2   6  690.27   14.37
  -6  -2  -6  662.74   14.95
  -6  -2  -6  696.66   13.15
   6   2   7  234.19    9.46
  -6  -2  -7  236.20    8.08
  -6  -2  -7  214.08    9.85
   6   2   8  392.17   12.14
  -6  -2  -8  399.32   13.65
  -6  -2  -8  412.02   10.08
   6   2   9 2239.55   27.78
  -6  -2  -9 2197.78   30.87
  -6  -2  -9 2292.73   22.49
   6   2  10   79.02    7.37
  -6  -2 -10   83.85    9.14
   6   2  11  827.11   18.69
  -6  -2 -11  787.78   21.51
   6   2  12 1211.94   23.31
   6   2  12 1129.09   24.67
  -6  -2 -12 1175.34   26.65
   6   2  13  168.19   10.83
   6   2  13  173.71   11.30
   6   3  -9  597.57   18.90
  -6  -3   9  652.26   18.85
  -6  -3   9  614.98   17.07
  -6  -3   8   31.09    6.29
   6   3  -8   27.27    7.11
  -6  -3   8   38.33    6.03
   6   3  -7  985.15   20.59
  -6  -3   7 1029.81   20.76
   6   3  -6  446.82   13.69
  -6  -3   6  471.72   14.31
   6   3  -5   93.01    7.36
  -6  -3   5  101.32    7.80
   6   3  -4  421.78   11.88
  -6  -3   4  447.51   13.50
   6   3  -3  183.67    7.99
  -6  -3   3  204.17    9.83
   6   3  -2  184.68    7.41
  -6  -3   2  169.82    9.03
  -6  -3   2  173.92    4.51
   6   3  -1 1835.73   18.48
  -6  -3   1 1862.88   24.50
   6   3   0  469.74    8.93
  -6  -3   0  485.10   13.01
   6   3   1 1522.09   14.00
  -6  -3  -1 1576.37   21.36
   6   3   1 1542.63   19.91
  -6  -3  -2 2166.51   22.04
  -6  -3  -2 2177.66   24.20
   6   3   2 2218.95   23.32
   6   3   2 2140.90   15.19
   6   3   3   22.66    4.80
  -6  -3  -3   29.17    2.28
   6   3   3   24.04    1.56
  -6  -3  -3   31.52    4.55
  -6  -3  -3   22.50    4.45
   6   3   3   21.92    2.28
  -6  -3  -4 2502.94   12.66
  -6  -3  -4 2440.03   24.53
  -6  -3  -4 2467.03   24.52
   6   3   4 2446.21   24.57
  -6  -3  -5 2090.87    9.57
  -6  -3  -5 2140.41   24.03
  -6  -3  -5 2159.60   22.24
   6   3   5 2155.48   23.50
  -6  -3  -6   20.18    1.06
   6   3   6   25.35    4.62
  -6  -3  -6   18.66    1.09
  -6  -3  -6   17.10    5.66
  -6  -3  -6   19.93    3.81
   6   3   7  240.63    8.95
  -6  -3  -7  229.91    3.32
  -6  -3  -7  229.15    9.80
  -6  -3  -7  247.44    7.67
   6   3   8  700.42   14.77
  -6  -3  -8  692.85   16.26
   6   3   9   15.14    4.74
  -6  -3  -9   18.40    6.01
  -6  -3  -9   16.29    3.07
   6   3  10  891.88   17.65
  -6  -3 -10  875.37   20.46
   6   3  11   77.71    7.16
   6   3  11   72.37    7.82
  -6  -3 -11   71.74    8.27
   6   3  12  449.54   14.09
   6   3  12  423.82   15.98
  -6  -3 -12  418.12   16.38
   6   3  13  690.49   20.77
  -6  -3 -13  717.66   21.52
   6   4  -9  211.80   12.89
  -6  -4   9  199.04   10.79
  -6  -4   9  182.76   11.73
   6   4  -8  623.52   18.25
  -6  -4   8  658.40   17.69
   6   4  -7    6.26    6.46
  -6  -4   7    2.42    4.99
   6   4  -6 1020.30   20.36
  -6  -4   6 1029.74   20.74
   6   4  -5  656.80   15.49
  -6  -4   5  661.37   16.66
   6   4  -4  244.07    9.51
  -6  -4   4  242.38   10.83
   6   4  -3 1135.14   17.56
  -6  -4   3 1120.91   20.60
   6   4  -2  808.77   14.03
  -6  -4   2  811.59   17.41
   6   4  -1   -0.12    3.57
  -6  -4   1    3.02    5.10
   6   4   0 2126.18   19.35
  -6  -4   0 2192.80   26.11
  -6  -4  -1  682.08   14.71
   6   4   1  651.83   10.50
   6   4   2  514.99    8.07
  -6  -4  -2  506.53   12.45
   6   4   2  512.04    8.87
   6   4   3 1300.06   11.51
  -6  -4  -3 1322.99   17.43
  -6  -4  -4   33.23    2.77
   6   4   4   31.13    4.98
   6   4   4   30.91    2.61
  -6  -4  -4   36.30    4.69
  -6  -4  -4   32.23    4.93
   6   4   5 1644.05   12.83
  -6  -4  -5 1660.99   20.71
  -6  -4  -5 1660.53   19.12
   6   4   5 1703.49   20.21
   6   4   6 1209.49   11.87
  -6  -4  -6 1234.84   15.95
   6   4   6 1231.95   17.51
   6   4   7   18.46    4.05
   6   4   7   17.99    2.78
  -6  -4  -7   19.36    5.19
  -6  -4  -7   19.04    3.29
   6   4   8 1673.88   21.04
  -6  -4  -8 1657.52   23.68
  -6  -4  -8 1721.49   17.22
   6   4   9 1138.00   18.10
  -6  -4  -9 1088.19   20.77
   6   4  10   54.53    5.54
  -6  -4 -10   50.70    6.99
   6   4  10   48.24    6.17
   6   4  11  879.42   16.95
  -6  -4 -11  840.44   20.39
   6   4  12  234.88   12.64
  -6  -4 -12  247.30   13.00
  -6  -4 -13   67.88    8.70
   6   4  13   56.47    7.90
  -6  -5   9  274.55   12.84
   6   5  -8  108.37    9.63
  -6  -5   8  118.10    9.01
   6   5  -7  510.82   15.92
  -6  -5   7  570.41   16.94
   6   5  -6   36.93    7.01
  -6  -5   6   33.82    6.67
   6   5  -5  511.53   14.20
  -6  -5   5  541.02   16.21
   6   5  -4  469.94   13.17
  -6  -5   4  476.87   15.02
   6   5  -3  120.21    7.43
  -6  -5   3  113.06    8.60
   6   5  -2 1190.44   17.74
  -6  -5   2 1243.46   22.25
  -6  -5   2 1223.27   11.59
   6   5  -1 1205.34   17.06
  -6  -5   1 1229.31   21.41
  -6  -5   1 1201.54   13.47
  -6  -5   0  336.24   11.49
   6   5   0  330.37    9.27
  -6  -5  -1 3619.14   33.32
   6   5   1 3550.96   26.35
   6   5   2 1083.94   13.34
  -6  -5  -2 1117.73   18.06
   6   5   2 1117.65   14.50
   6   5   3  705.10   10.52
  -6  -5  -3  733.06   12.98
  -6  -5  -3  742.72   14.43
   6   5   3  754.53   13.57
   6   5   4 2659.04   19.65
  -6  -5  -4 2734.57   24.68
   6   5   4 2684.45   24.60
   6   5   5  386.43    7.99
  -6  -5  -5  390.21   10.43
  -6  -5  -5  407.95   10.02
   6   5   5  399.85   10.15
   6   5   6  158.61    5.75
  -6  -5  -6  163.92    8.12
  -6  -5  -6  177.20    6.61
   6   5   6  169.05    7.06
   6   5   7  577.32   12.02
   6   5   7  575.80   10.51
  -6  -5  -7  575.71   13.41
  -6  -5  -7  612.24   10.82
   6   5   8   25.88    4.36
   6   5   8   17.55    3.63
  -6  -5  -8   23.89    3.18
  -6  -5  -8   13.34    5.60
   6   5   9  973.18   15.33
  -6  -5  -9  941.70   18.59
   6   5   9  927.32   19.84
   6   5  10  441.60   14.96
  -6  -5 -10  448.87   14.16
   6   5  11   69.23    7.45
  -6  -5 -11   66.71    7.69
   6   5  12  708.75   20.02
  -6  -5 -12  749.36   19.93
  -6  -5 -13  343.16   14.91
  -6  -6   9  731.76   20.76
   6   6  -8  372.01   15.30
  -6  -6   8  414.48   15.84
   6   6  -7  134.74   10.33
  -6  -6   7  147.97   10.14
   6   6  -6 1193.40   22.98
  -6  -6   6 1279.57   25.75
   6   6  -5  300.25   11.82
  -6  -6   5  300.95   13.07
   6   6  -4  390.59   12.88
  -6  -6   4  421.53   14.71
   6   6  -3 1067.33   18.79
  -6  -6   3 1134.54   22.87
  -6  -6   2  196.46   10.27
  -6  -6   2  190.90    5.34
   6   6  -2  182.37    8.54
  -6  -6   1  705.91   10.71
   6   6  -1  686.02   14.28
  -6  -6   0  395.57   12.78
  -6  -6   0  386.72    8.93
   6   6   0  387.87   10.88
   6   6   1  521.53   11.42
  -6  -6  -1  552.56   11.59
   6   6   1  536.93   12.06
   6   6   2 1351.82   16.90
  -6  -6  -2 1386.42   21.05
   6   6   3  356.24    8.96
  -6  -6  -3  377.98   10.94
  -6  -6  -4  669.84   13.50
   6   6   4  653.36   11.69
  -6  -6  -4  645.97   12.04
   6   6   4  662.48   12.62
   6   6   5 2362.86   21.82
  -6  -6  -5 2386.28   23.24
   6   6   5 2435.29   22.92
   6   6   6 1073.58   15.37
  -6  -6  -6 1073.03   16.54
   6   6   6 1074.05   18.65
   6   6   6 1105.86   15.67
   6   6   7  322.07    9.13
  -6  -6  -7  329.73   10.31
   6   6   7  325.06   11.57
  -6  -6  -7  328.75    8.11
   6   6   7  332.78    9.09
   6   6   8 2149.23   23.14
   6   6   8 2111.45   28.72
   6   6   9  482.20   12.24
   6   6   9  462.95   14.84
  -6  -6  -9  484.08   13.37
   6   6  10  282.14   12.25
  -6  -6 -10  293.39   11.40
   6   6  11  378.80   14.59
  -6  -6 -11  411.19   14.01
   6   6  12   40.62    7.48
  -6  -6 -12   27.52    6.75
  -6  -6 -13  181.64   11.60
  -6  -6 -14  166.84   11.35
  -6  -7   8  315.29   14.66
   6   7  -7  113.55   10.45
  -6  -7   7   89.57    8.96
   6   7  -6  258.16   12.84
  -6  -7   6  267.83   13.51
  -6  -7   5 1204.43   25.82
   6   7  -5 1146.87   23.12
  -6  -7   4  155.87   11.17
   6   7  -4  165.21   10.20
  -6  -7   3  310.58   13.78
   6   7  -3  294.52   11.79
  -6  -7   2 1538.63   15.66
  -6  -7   2 1479.08   26.64
   6   7  -2 1504.83   22.88
  -6  -7   1  519.84    9.93
  -6  -7   1  509.60   15.79
   6   7  -1  517.77   13.98
  -6  -7   0  615.13   11.76
  -6  -7   0  643.26   16.97
   6   7   0  640.15   14.81
   6   7   1 1301.66   19.01
  -6  -7  -1 1332.30   22.71
  -6  -7  -1 1282.29   17.85
   6   7   1 1348.40   19.81
   6   7   2   56.04    5.47
  -6  -7  -2   61.18    6.48
   6   7   2   59.12    4.49
  -6  -7  -2   50.69    5.44
   6   7   3  322.83    9.75
  -6  -7  -3  356.85   11.16
   6   7   3  347.99    9.69
   6   7   4  284.40    9.14
  -6  -7  -4  296.85    9.83
   6   7   4  294.41    9.60
  -6  -7  -4  267.73   10.44
   6   7   4  281.47    8.61
   6   7   5   29.85    4.64
  -6  -7  -5   40.36    4.44
  -6  -7  -5   45.43    4.90
  -6  -7  -5   42.04    6.17
   6   7   5   35.96    4.34
   6   7   6 1186.71   17.88
  -6  -7  -6 1204.63   16.88
   6   7   6 1208.21   20.33
   6   7   6 1229.92   16.16
  -6  -7  -6 1248.78   16.76
   6   7   7  182.64    8.19
  -6  -7  -7  183.69    7.81
   6   7   7  183.60    9.17
  -6  -7  -7  177.91    6.61
   6   7   7  182.43    6.86
   6   7   8  939.21   17.02
   6   7   8  931.08   19.69
  -6  -7  -8  934.30   16.43
   6   7   9 1805.93   24.15
   6   7   9 1812.64   28.05
  -6  -7  -9 1830.49   23.66
   6   7  10  365.56   12.24
   6   7  10  362.87   14.28
  -6  -7 -10  350.27   11.91
   6   7  11  419.97   13.40
   6   7  11  397.39   15.11
  -6  -7 -11  416.21   13.40
   6   7  12  585.44   18.62
  -6  -7 -12  560.62   16.22
  -6  -7 -12  563.54   18.07
  -6  -8   6  232.17   13.35
   6   8  -6  213.01   12.94
   6   8  -5   29.57    7.79
  -6  -8   5   31.67    7.65
  -6  -8   4  567.43   18.98
   6   8  -4  533.27   16.91
  -6  -8   3  237.62   12.81
   6   8  -3  213.66   10.88
  -6  -8   2  287.72   14.00
   6   8  -2  278.27   11.99
  -6  -8   1 1001.04   14.86
  -6  -8   1 1019.32   22.93
   6   8  -1 1051.86   20.53
  -6  -8   0   72.47    5.41
   6   8   0   81.00    7.32
  -6  -8   0   97.90    8.63
   6   8   0   80.64    7.81
   6   8   1 1136.31   19.67
  -6  -8  -1 1092.53   17.32
  -6  -8  -1 1150.14   22.53
   6   8   2 1885.71   24.32
  -6  -8  -2 1850.71   23.58
  -6  -8  -2 1931.17   27.52
  -6  -8  -3   40.32    5.73
   6   8   3   39.99    5.75
   6   8   3   41.28    4.60
  -6  -8  -3   46.51    6.19
   6   8   4  400.60   11.83
  -6  -8  -4  411.67   12.08
  -6  -8  -4  408.22   12.68
  -6  -8  -5  936.22   16.60
   6   8   5  863.82   16.74
   6   8   5  962.39   17.91
  -6  -8  -5  846.20   18.44
   6   8   5  899.61   14.18
   6   8   6   56.59    5.96
  -6  -8  -6   69.61    5.01
   6   8   6   77.31    6.63
  -6  -8  -6   69.43    5.51
  -6  -8  -6   62.44    7.52
   6   8   7  542.83   14.00
   6   8   7  605.93   15.71
  -6  -8  -7  569.62   11.83
  -6  -8  -7  619.79   12.01
  -6  -8  -7  569.93   16.55
   6   8   8  259.14   10.61
   6   8   8  287.51   11.82
  -6  -8  -8  265.60    8.89
  -6  -8  -8  252.06   12.22
   6   8   9  106.37    7.88
   6   8   9  112.67    8.80
  -6  -8  -9  100.25    9.57
   6   8  10  602.35   15.87
   6   8  10  625.06   17.91
  -6  -8 -11    3.65    6.35
   6   8  11    3.12    4.89
   6   8  11    5.42    5.05
  -6  -9   5  480.09   19.03
   6   9  -5  444.39   17.92
   6   9  -4   -4.03    7.70
  -6  -9   4   -2.35    7.79
  -6  -9   3  575.35   20.19
   6   9  -3  578.49   17.98
   6   9  -2  359.55   14.31
  -6  -9   2  392.50   16.43
   6   9  -2  366.50   14.71
  -6  -9   1   78.58    5.64
   6   9  -1   88.20    8.32
  -6  -9   1   89.26    9.56
  -6  -9   0  732.22   14.61
   6   9   0  793.28   18.51
  -6  -9   0  776.34   20.58
   6   9   1  306.57   12.13
  -6  -9  -1  330.42   13.71
   6   9   2  370.32   12.74
  -6  -9  -2  388.37   13.96
   6   9   3  704.22   16.62
  -6  -9  -3  728.09   16.67
  -6  -9  -4    5.44    4.95
   6   9   4    4.40    4.73
   6   9   4    9.22    3.77
  -6  -9  -4    4.11    4.90
   6   9   5 1044.83   20.00
  -6  -9  -5 1086.51   18.97
  -6  -9  -5 1061.14   21.49
   6   9   6  858.66   18.79
   6   9   6  977.64   19.12
  -6  -9  -6  940.47   16.91
  -6  -9  -6  840.73   20.06
  -6  -9  -7   11.80    6.29
   6   9   7    9.74    5.33
   6   9   7   15.46    5.02
   6   9   8  571.88   16.00
   6   9   8  612.25   16.93
  -6  -9  -8  570.77   17.96
   6   9   9  596.98   16.79
  -6  -9  -9  569.17   18.04
  -6  -9 -10    4.95    5.82
   6   9  10    5.43    5.28
   6   9  10    8.87    6.06
   6   9  11  259.00   12.49
   6   9  11  274.02   13.65
   6  10  -3   61.17    9.54
  -6 -10   3   76.75   10.46
   6  10  -2  705.82   20.26
  -6 -10   2  730.80   22.60
   6  10  -1  368.60   15.10
  -6 -10   1  409.35   17.27
  -6 -10   0   65.01    6.19
   6  10   0   73.05    8.97
  -6 -10   0   76.33    9.23
  -6 -10  -1 1183.99   20.64
   6  10   1 1173.76   23.44
  -6 -10  -2  522.13   14.65
   6  10   2  545.59   16.55
  -6 -10  -2  553.38   17.20
  -6 -10  -3   36.94    6.14
   6  10   3   38.83    6.55
  -6 -10  -3   47.05    6.71
   6  10   4  551.53   16.44
  -6 -10  -4  554.24   15.72
   6  10   5  132.35    9.33
  -6 -10  -5  129.32    9.34
  -6 -10  -5  149.50    8.76
   6  10   6  237.98   11.63
  -6 -10  -6  246.18   12.51
  -6 -10  -6  251.22   10.18
   6  10   7  304.06   13.00
  -6 -10  -7  303.52   13.72
  -6 -10  -8    1.19    5.58
   6  10   8    6.27    5.91
   6  10   9  374.60   14.87
  -6 -10  -9  416.62   16.62
   6  10  10  392.09   15.18
   6  10  11   12.14    6.34
   6  11  -1  127.12   10.77
  -6 -11   1  143.19   12.22
  -6 -11   0  183.07    9.22
   6  11   0  223.01   13.17
  -6 -11   0  205.27   12.86
  -6 -11  -1   17.07    5.28
   6  11   1   14.01    7.78
  -6 -11  -1   11.62    5.95
  -6 -11  -2  745.79   18.34
   6  11   2  745.94   20.63
  -6 -11  -3  358.41   14.19
   6  11   3  379.71   15.61
  -6 -11  -3  408.58   15.43
   6  11   4  247.60   13.15
  -6 -11  -4  211.80   12.22
  -6 -11  -4  228.96   11.89
   6  11   5 1402.78   27.40
  -6 -11  -5 1393.79   27.25
  -6 -11  -5 1439.32   25.08
   6  11   6  490.70   17.57
  -6 -11  -6  458.95   17.59
   6  11   7   68.85    8.86
   6  11   8  414.68   16.05
  -6 -12  -1  233.49   11.20
  -6 -12  -2    8.25    5.66
  -6 -12  -2   12.62    6.62
  -6 -12  -3  247.97   12.70
  -6 -12  -3  298.90   14.68
  -6 -12  -4  105.57    9.40
   7  -5   1  638.98   18.59
   7  -5   2    5.83    6.46
   7  -5   3  530.10   18.01
   7  -4  -5    5.93    6.45
  -7   4   5    4.19    5.86
   7  -4  -4  518.21   17.44
  -7   4   4  587.36   18.90
  -7   4   3  499.99   17.94
  -7   4   2   -0.21    6.77
   7  -4  -1  368.06   13.40
  -7   4   1  347.29   15.43
   7  -4   0  367.02   13.86
  -7   4   0  321.05   14.66
   7  -4   1   48.98    7.69
  -7   4  -1   47.91    8.64
   7  -4   2  349.34   14.12
  -7   4  -2  348.93   15.59
   7  -4   3    5.37    5.54
  -7   4  -3    3.64    6.12
   7  -4   4  190.96   12.06
  -7   4  -4  168.34    9.44
  -7   4  -4  186.38   12.96
   7  -4   5  336.15   14.97
  -7   4  -5  291.79   12.20
  -7   4  -6    9.29    5.67
  -7   4  -7  407.38   15.53
   7  -3  -6  227.56   12.85
  -7   3   6  227.20   12.55
   7  -3  -5  176.05   11.18
  -7   3   5  184.22   11.01
   7  -3  -4   19.43    6.06
  -7   3   4   13.85    6.15
   7  -3  -3  614.39   16.11
   7  -3  -3  570.53   16.33
  -7   3   3  576.03   18.12
   7  -3  -2  522.53   15.29
   7  -3  -2  533.61   15.08
  -7   3   2  556.08   17.90
   7  -3  -1    3.58    5.41
  -7   3   1    2.53    5.36
   7  -3   0 1067.74   21.38
  -7   3   0 1017.55   23.50
   7  -3   1  684.03   17.87
  -7   3  -1  688.32   19.79
   7  -3   2  174.51   10.43
  -7   3  -2  168.97   11.18
   7  -3   3  824.73   20.19
  -7   3  -3  755.76   16.99
  -7   3  -3  797.71   21.05
   7  -3   4  313.81   13.45
  -7   3  -4  306.11   11.76
  -7   3  -4  295.65   13.49
   7  -3   5   27.25    6.44
  -7   3  -5   29.71    5.93
  -7   3  -5   30.70    6.50
   7  -3   6  216.50   12.44
  -7   3  -6  211.72   11.17
  -7   3  -6  200.22   12.40
   7  -3   7   33.81    8.08
  -7   3  -7   20.17    6.48
  -7   3  -7   25.01    6.54
  -7   3  -8  242.12   13.21
  -7   3  -8  280.71   13.93
   7  -2  -7  584.77   19.06
   7  -2  -6  141.16   10.62
  -7   2   6  155.05   10.20
   7  -2  -5  173.10   10.33
  -7   2   5  188.32   11.03
   7  -2  -4  606.20   16.44
  -7   2   4  623.24   17.94
   7  -2  -3   36.02    6.31
   7  -2  -3   46.81    6.18
  -7   2   3   42.47    6.98
   7  -2  -2  155.41    8.32
  -7   2   2  159.85   10.43
   7  -2  -2  139.92    9.24
   7  -2  -1  673.72   16.92
   7  -2  -1  656.72   14.44
  -7   2   1  667.03   18.38
   7  -2   0    9.77    5.96
  -7   2   0    9.49    6.18
   7  -2   1 1535.82   24.98
  -7   2  -1 1496.00   26.67
   7  -2   2  713.12   17.81
  -7   2  -2  725.35   19.39
   7  -2   3  211.18   11.10
  -7   2  -3  177.14    9.03
  -7   2  -3  191.29   11.16
   7  -2   4 1248.76   23.68
  -7   2  -4 1166.90   21.10
   7  -2   5  489.02   16.07
  -7   2  -5  450.99   14.31
  -7   2  -5  493.86   16.17
   7  -2   6  159.61   10.74
  -7   2  -6  142.32    9.57
  -7   2  -6  157.25   10.63
   7  -2   7 1169.33   25.00
  -7   2  -7 1147.45   23.87
   7  -2   8  244.39   12.88
  -7   2  -8  270.12   13.75
  -7   2  -8  273.62   12.91
  -7   2  -9  146.37   11.72
  -7   2  -9  172.60   10.64
   7  -1  -7  110.34    9.73
  -7   1   7   78.18    8.24
   7  -1  -6  632.98   17.97
  -7   1   6  620.18   17.86
   7  -1  -5  384.94   13.73
  -7   1   5  379.01   14.13
   7  -1  -4  255.15   11.01
  -7   1   4  265.44   12.31
   7  -1  -4  273.48   11.78
   7  -1  -3 1165.82   20.09
  -7   1   3 1198.89   23.39
   7  -1  -2  295.34   10.24
  -7   1   2  301.34   12.64
   7  -1  -2  313.35   11.97
   7  -1  -1  327.25    9.89
  -7   1   1  342.55   13.36
   7  -1  -1  354.47   12.68
   7  -1   0 1660.81   19.15
  -7   1   0 1669.17   27.01
   7  -1   0 1663.51   25.10
   7  -1   1  172.32    9.59
  -7   1  -1  163.82    9.81
   7  -1   2 1017.26   20.03
  -7   1  -2  979.19   18.06
  -7   1  -2 1045.34   21.71
   7  -1   3 1019.40   20.14
  -7   1  -3  973.34   18.37
  -7   1  -3 1039.69   21.37
   7  -1   4   35.92    6.53
  -7   1  -4   29.82    5.44
  -7   1  -4   31.50    5.83
   7  -1   5  426.66   14.46
  -7   1  -5  403.89   13.13
  -7   1  -5  419.65   14.09
   7  -1   6  239.08   11.90
  -7   1  -6  223.51   11.10
  -7   1  -6  235.63   10.90
   7  -1   7  187.39   11.32
  -7   1  -7  151.28   10.39
  -7   1  -7  181.89   10.13
   7  -1   8 1223.98   24.94
  -7   1  -8 1288.92   24.00
   7  -1   9  210.20   12.07
  -7   1  -9  198.23   12.18
  -7   1  -9  228.40   11.09
   7  -1  10  107.47    9.97
  -7   1 -10  114.38   11.14
   7   0  -8  238.18   13.47
   7   0  -7  492.76   16.42
  -7   0   7  537.54   16.74
   7   0  -7  546.93   16.93
   7   0  -6   16.54    6.04
   7   0  -6   18.16    6.62
  -7   0   6   18.29    5.84
  -7   0   5  602.52   13.99
   7   0  -5  567.96   15.65
  -7   0   5  611.43   17.36
   7   0  -5  615.01   17.01
   7   0  -4  351.90   11.98
  -7   0   4  382.67   10.65
  -7   0   4  353.37   13.50
   7   0  -4  390.49   13.71
   7   0  -3  137.94    7.67
  -7   0   3  150.08    9.57
   7   0  -3  161.93    9.40
  -7   0   3  164.40    6.90
   7   0  -2  767.46   14.55
  -7   0   2  783.04   18.80
   7   0  -1   19.83    5.49
   7   0  -1   31.52    4.18
  -7   0   1   25.74    6.03
   7   0   0  652.10   11.33
  -7   0   0  674.01   17.11
   7   0   0  685.80   16.21
   7   0   1 1119.77   13.07
  -7   0  -1 1132.21   21.57
   7   0   1 1119.12   20.30
  -7   0  -2  269.11    9.96
  -7   0  -2  277.36   11.31
   7   0   2  287.31   11.09
   7   0   3  752.61   17.13
  -7   0  -3  737.43   15.83
  -7   0  -3  719.63   17.12
   7   0   4 1541.44   24.11
  -7   0  -4 1497.47   22.65
  -7   0  -4 1543.47   24.49
   7   0   5  121.63    8.43
  -7   0  -5  112.13    7.95
  -7   0  -5  130.30    8.48
   7   0   6  576.45   16.06
  -7   0  -6  560.86   15.79
   7   0   7 1159.38   22.65
  -7   0  -7 1185.97   21.32
   7   0   8    6.86    5.93
  -7   0  -8   -1.50    5.96
  -7   0  -8    3.66    4.67
   7   0   9  371.30   14.51
  -7   0  -9  368.17   15.41
  -7   0  -9  387.02   13.00
   7   0  10   97.32    9.10
  -7   0 -10   83.21    9.62
  -7   0 -10   85.97    7.22
   7   0  11  171.11   11.17
  -7   0 -11  164.88   13.03
  -7  -1   9  271.05   13.52
   7   1  -8    3.52    6.14
  -7  -1   8    5.36    5.63
  -7  -1   8   10.13    5.17
  -7  -1   7  477.22   14.85
   7   1  -7  479.33   16.10
  -7  -1   7  522.48   16.33
   7   1  -6  994.43   20.88
  -7  -1   6 1000.87   19.45
  -7  -1   6 1046.09   22.06
  -7  -1   5   53.51    6.00
   7   1  -5   63.35    7.32
  -7  -1   5   58.79    6.96
   7   1  -5   58.03    7.40
  -7  -1   4  598.62   16.70
   7   1  -4  624.97   16.77
   7   1  -3  796.11   15.54
  -7  -1   3  812.33   19.04
   7   1  -2    2.80    5.46
   7   1  -2    1.38    3.67
  -7  -1   2   12.39    4.93
   7   1  -1  714.27   12.54
  -7  -1   1  722.54   17.70
   7   1  -1  731.16   16.67
   7   1   0  290.23    7.56
  -7  -1   0  294.14   11.84
   7   1   0  306.69   11.40
   7   1   1   58.72    3.70
  -7  -1  -1   64.57    6.24
   7   1   1   59.37    6.45
  -7  -1  -2  745.60   15.35
  -7  -1  -2  731.45   16.64
   7   1   2  759.95   16.35
   7   1   3   29.02    5.27
  -7  -1  -3   31.65    5.63
  -7  -1  -3   33.39    5.97
   7   1   4  942.68   18.57
  -7  -1  -4  971.72   18.79
   7   1   5 1381.02   22.30
  -7  -1  -5 1322.66   21.40
   7   1   6    7.28    5.61
  -7  -1  -6    8.83    5.57
  -7  -1  -6    9.16    4.71
   7   1   7 1949.33   27.54
  -7  -1  -7 2011.81   25.95
   7   1   8 1396.63   24.33
  -7  -1  -8 1458.85   21.93
   7   1   9   11.51    5.71
  -7  -1  -9   15.49    6.93
  -7  -1  -9    9.67    4.37
   7   1  10  467.32   15.63
  -7  -1 -10  429.45   16.80
   7   1  11  424.29   15.80
  -7  -1 -11  405.52   17.61
   7   1  12    4.49    5.83
   7   2  -8  151.86   10.67
  -7  -2   8  144.24    9.88
  -7  -2   8  140.79    9.70
   7   2  -7   21.13    5.94
  -7  -2   7   26.29    6.03
  -7  -2   7   24.87    6.28
   7   2  -6  293.10   12.40
  -7  -2   6  309.05   13.04
   7   2  -5  888.05   18.27
  -7  -2   5  888.22   20.11
   7   2  -4    3.05    5.17
  -7  -2   4   11.30    5.20
   7   2  -3 1681.29   21.84
  -7  -2   3 1702.33   26.81
   7   2  -2 1554.97   19.45
  -7  -2   2 1608.45   25.71
   7   2  -1   73.08    5.17
  -7  -2   1   65.22    6.70
   7   2  -1   76.63    6.85
   7   2   0 1348.24   15.14
  -7  -2   0 1330.41   22.67
   7   2   1 1616.14   14.79
  -7  -2  -1 1571.51   24.05
   7   2   1 1601.94   22.66
   7   2   2    3.73    4.45
   7   2   2    5.87    2.15
  -7  -2  -2    2.28    5.16
  -7  -2  -3 1242.94   19.42
  -7  -2  -3 1210.78   20.39
   7   2   3 1243.85    8.76
  -7  -2  -4  278.69   10.81
  -7  -2  -4  271.37   10.48
   7   2   4  278.01   10.53
   7   2   5  174.06    8.75
  -7  -2  -5  172.83    8.82
  -7  -2  -5  174.92    8.47
   7   2   6  884.69   17.81
  -7  -2  -6  854.87   18.02
  -7  -2  -6  899.64   16.72
   7   2   7   21.97    5.85
  -7  -2  -7   15.30    5.91
  -7  -2  -7   24.01    4.91
   7   2   8 1187.60   21.35
  -7  -2  -8 1125.14   22.50
   7   2   9  724.06   17.57
  -7  -2  -9  720.93   14.60
   7   2  10  161.70    9.57
  -7  -2 -10  127.84    9.88
   7   2  11 1138.63   23.03
  -7  -2 -11 1101.32   26.01
   7   2  12  747.66   19.77
  -7  -2 -12  662.73   21.75
   7   2  13    5.12    5.68
   7   3  -8   26.83    7.96
  -7  -3   8   29.23    6.54
  -7  -3   8   18.77    6.76
   7   3  -7  724.86   19.02
  -7  -3   7  801.74   19.86
   7   3  -6  327.02   13.11
  -7  -3   6  357.84   13.61
   7   3  -5   69.41    7.10
  -7  -3   5   72.42    7.61
   7   3  -4  685.22   15.28
  -7  -3   4  716.41   18.04
   7   3  -3   65.53    6.22
  -7  -3   3   64.07    7.64
   7   3  -2 1401.99   18.72
  -7  -3   2 1383.01   23.78
   7   3  -1 1095.18   15.45
  -7  -3   1 1075.77   20.77
   7   3   0    5.37    5.56
   7   3   0    2.61    3.19
  -7  -3   0    7.68    5.53
   7   3   1 1646.75   15.53
  -7  -3  -1 1625.36   24.18
   7   3   1 1688.15   22.97
  -7  -3  -2 1736.95   24.36
   7   3   2 1716.20   14.35
  -7  -3  -3  243.43    5.58
  -7  -3  -3  232.03    9.88
  -7  -3  -3  235.68    9.85
   7   3   3  251.71    5.25
   7   3   3  233.52    9.69
  -7  -3  -4 2829.45   29.35
   7   3   4 2819.29   29.19
  -7  -3  -5  878.92   17.26
  -7  -3  -5  888.38   16.52
   7   3   5  899.42   17.14
   7   3   6  106.48    7.35
  -7  -3  -6  111.06    7.99
  -7  -3  -6  111.00    6.74
   7   3   7  781.98   16.41
  -7  -3  -7  818.19   17.93
  -7  -3  -7  839.70   15.30
   7   3   8  549.94   14.38
  -7  -3  -8  547.31   12.50
   7   3   9  119.02    8.24
  -7  -3  -9  120.08    9.41
  -7  -3  -9  124.07    6.44
   7   3  10  525.01   14.96
  -7  -3 -10  481.49   16.44
   7   3  11    1.46    5.04
  -7  -3 -11   -2.23    7.75
   7   3  12  445.61   14.91
  -7  -3 -12  439.94   17.28
   7   3  12  404.71   16.04
   7   4  -8  339.05   14.72
  -7  -4   8  348.55   14.51
   7   4  -7   27.21    7.49
  -7  -4   7   30.50    6.93
   7   4  -6 1102.72   22.12
  -7  -4   6 1165.58   23.76
   7   4  -5  399.02   13.35
  -7  -4   5  422.44   14.88
   7   4  -4  284.03   10.91
  -7  -4   4  280.48   12.09
   7   4  -3 1521.87   21.22
  -7  -4   3 1589.18   26.10
   7   4  -2  247.36    9.01
  -7  -4   2  261.96   11.90
   7   4  -1  324.34    9.22
  -7  -4   1  325.40   12.54
   7   4   0 1024.49   14.27
  -7  -4   0  984.27   19.47
   7   4   1  151.95    6.13
  -7  -4  -1  163.91    8.65
   7   4   1  157.88    8.07
   7   4   2  716.15    9.41
  -7  -4  -2  755.07   16.30
   7   4   2  772.86   15.61
   7   4   2  730.03   10.80
   7   4   3 1111.96   10.12
  -7  -4  -3 1106.03   17.72
  -7  -4  -3 1128.86   19.13
   7   4   3 1121.75   12.23
   7   4   3 1149.90   18.52
   7   4   4   18.60    5.54
   7   4   4   14.82    1.75
  -7  -4  -4   15.47    2.49
  -7  -4  -4   24.36    5.95
  -7  -4  -4   22.51    5.20
  -7  -4  -5 1486.01   21.49
   7   4   5 1450.86   20.61
  -7  -4  -6  397.41   12.26
   7   4   6  420.63   11.79
   7   4   7   87.24    6.42
  -7  -4  -7   88.74    7.78
  -7  -4  -7   91.25    5.79
   7   4   8 1304.97   20.37
  -7  -4  -8 1320.14   17.68
   7   4   9  937.52   18.01
  -7  -4  -9  862.28   19.41
   7   4  10  279.84   10.90
  -7  -4 -10  268.30   12.75
  -7  -4 -11 1224.16   25.36
   7   4  11 1202.31   25.20
   7   4  12  280.35   14.08
  -7  -4 -12  282.65   14.62
  -7  -5   9   59.22    7.90
  -7  -5   8  163.91   11.01
   7   5  -7  431.39   15.94
  -7  -5   7  455.44   16.23
   7   5  -6    1.65    5.97
  -7  -5   6    2.14    4.89
   7   5  -5  451.14   14.30
  -7  -5   5  461.96   15.57
   7   5  -4  138.67    8.82
  -7  -5   4  146.08   10.04
   7   5  -3  388.15   11.90
  -7  -5   3  423.65   14.72
   7   5  -2  728.88   14.73
  -7  -5   2  762.17   18.82
   7   5  -1  266.25    9.26
  -7  -5   1  254.64   11.25
  -7  -5   0  164.73    9.46
   7   5   0  162.40    7.19
  -7  -5  -1 2040.47   27.13
   7   5   1 2024.13   20.41
   7   5   2  441.33    8.83
  -7  -5  -2  463.89   13.48
   7   5   2  451.81   12.38
   7   5   2  451.70    9.83
   7   5   3 1222.65   13.35
  -7  -5  -3 1266.42   20.43
   7   5   3 1257.39   19.21
   7   5   4 2608.53   18.58
  -7  -5  -4 2572.45   26.53
   7   5   4 2632.54   27.01
   7   5   5   31.91    3.14
  -7  -5  -5   37.41    5.11
  -7  -5  -5   37.86    6.02
   7   5   5   39.71    5.32
   7   5   6  519.56    8.52
  -7  -5  -6  481.19   12.90
  -7  -5  -6  519.73   11.94
   7   5   6  500.11   12.41
   7   5   7  293.88    9.83
  -7  -5  -7  271.71   10.45
  -7  -5  -7  301.67    9.03
   7   5   8   14.61    4.43
  -7  -5  -8    3.25    5.55
  -7  -5  -8    7.42    2.98
   7   5   9  665.02   14.75
  -7  -5  -9  628.12   16.36
   7   5  10  182.48    8.53
   7   5  10  172.50   10.40
  -7  -5 -11  168.68   10.74
   7   5  11  184.94   11.35
   7   5  12  852.49   22.72
  -7  -5 -12  865.07   21.99
  -7  -5 -13  126.13   10.90
  -7  -6   8   72.54    8.59
   7   6  -7  372.67   15.50
  -7  -6   7  375.22   15.79
   7   6  -6  805.63   20.14
  -7  -6   6  885.77   22.46
   7   6  -5   70.44    8.29
  -7  -6   5   76.79    8.91
   7   6  -4  599.98   15.93
  -7  -6   4  659.45   19.01
   7   6  -3  685.85   16.10
  -7  -6   3  717.02   19.59
   7   6  -2    7.68    4.65
  -7  -6   2    8.25    5.82
  -7  -6   1  465.48   15.16
  -7  -6   1  439.20    8.90
   7   6  -1  428.83   12.06
  -7  -6   0  152.51    9.55
  -7  -6   0  139.96    6.17
   7   6   0  139.59    7.36
  -7  -6  -1  284.26   11.36
   7   6   1  309.52    9.63
   7   6   2 1210.68   16.03
  -7  -6  -2 1229.23   21.12
   7   6   2 1222.64   17.11
   7   6   3  163.72    6.62
  -7  -6  -3  164.79    8.86
   7   6   3  169.72    8.29
   7   6   4 1739.24   17.96
  -7  -6  -4 1724.35   21.16
  -7  -6  -4 1799.42   23.53
   7   6   4 1736.68   22.04
   7   6   5 1733.05   18.04
   7   6   5 1731.04   21.82
   7   6   6    0.37    3.68
   7   6   6    2.67    2.69
  -7  -6  -6    2.47    4.45
  -7  -6  -6    2.84    3.48
   7   6   7  761.12   12.52
  -7  -6  -7  762.15   13.60
   7   6   7  741.97   14.60
   7   6   8 1563.76   20.82
  -7  -6  -8 1639.12   18.74
   7   6   9   89.11    6.29
  -7  -6  -9   73.73    7.34
   7   6   9   71.67    7.45
  -7  -6 -10  423.35   14.03
   7   6  10  445.76   15.66
   7   6  11  335.94   14.43
  -7  -6 -11  323.21   13.17
   7   6  12   30.70    7.34
  -7  -6 -12   19.01    6.71
  -7  -6 -13  235.84   12.95
  -7  -7   7   29.15    7.47
   7   7  -6  532.99   17.98
  -7  -7   6  604.41   20.12
   7   7  -5  907.96   21.12
  -7  -7   5  960.46   24.12
   7   7  -4    6.19    7.02
  -7  -7   4   -0.73    6.35
  -7  -7   3 1018.22   23.92
   7   7  -3  971.52   20.14
  -7  -7   2 1341.43   26.52
   7   7  -2 1284.44   21.95
  -7  -7   1   17.90    3.25
   7   7  -1   19.83    5.54
  -7  -7   1   28.52    7.22
  -7  -7   0 1027.38   21.84
  -7  -7   0  985.86   15.05
   7   7   0  978.79   18.00
   7   7   1  594.26   13.25
  -7  -7  -1  616.40   16.66
  -7  -7  -1  572.54   12.50
   7   7   1  583.99   13.79
  -7  -7  -2    2.61    3.58
   7   7   2    3.16    3.89
  -7  -7  -2    2.31    5.19
   7   7   3  825.86   14.49
  -7  -7  -3  852.07   17.65
   7   7   4  343.55    9.64
  -7  -7  -4  346.28   11.27
   7   7   4  353.28   10.60
   7   7   5  483.51   11.32
  -7  -7  -5  495.33   11.89
  -7  -7  -5  529.97   12.87
   7   7   5  519.87   12.27
   7   7   6  453.16   10.94
  -7  -7  -6  468.78   11.92
  -7  -7  -6  484.08   11.84
   7   7   6  481.36   11.70
   7   7   7   21.15    4.24
   7   7   7   24.18    4.37
   7   7   7   18.33    5.14
  -7  -7  -7   18.82    5.01
  -7  -7  -7   25.59    4.02
   7   7   8 1071.19   17.15
  -7  -7  -8 1027.86   18.60
   7   7   8 1034.13   21.26
  -7  -7  -9 1073.65   19.97
   7   7   9 1084.24   22.60
   7   7  10   15.48    5.99
  -7  -7 -10   11.60    5.76
   7   7  11  728.65   20.30
  -7  -7 -11  769.57   18.78
   7   7  12  628.10   19.55
  -7  -7 -12  578.02   17.31
  -7  -7 -13   12.71    6.66
  -7  -8   5  124.87   11.26
   7   8  -5  108.74    9.78
  -7  -8   4  591.14   20.09
   7   8  -4  524.23   17.19
   7   8  -3   19.35    6.67
  -7  -8   3   10.16    6.99
  -7  -8   2  558.29   18.43
   7   8  -2  574.62   16.57
  -7  -8   1  989.88   23.00
   7   8  -1  961.24   20.07
   7   8   0   44.13    7.17
   7   8   0   41.93    6.37
  -7  -8   0   43.01    4.64
  -7  -8   0   42.31    8.13
   7   8   1 1341.28   21.09
  -7  -8  -1 1316.78   19.11
  -7  -8  -1 1331.31   24.74
   7   8   2  810.35   16.37
  -7  -8  -2  906.32   19.99
   7   8   2  899.51   14.69
  -7  -8  -2  806.60   16.17
  -7  -8  -3    2.93    4.56
   7   8   3    4.10    4.34
   7   8   3    1.81    3.73
  -7  -8  -3   10.23    4.83
   7   8   4  765.07   15.37
  -7  -8  -4  858.58   17.70
   7   8   4  858.71   16.45
  -7  -8  -4  790.44   17.55
   7   8   4  856.25   15.86
   7   8   5  733.42   15.10
   7   8   5  749.91   16.49
  -7  -8  -5  747.37   15.80
  -7  -8  -5  715.16   17.45
   7   8   5  763.65   14.71
  -7  -8  -6    7.11    5.52
   7   8   6    2.59    3.87
   7   8   6    5.34    4.31
   7   8   6    3.00    4.21
  -7  -8  -6    3.07    3.92
  -7  -8  -6    2.72    3.70
   7   8   7  749.86   15.54
  -7  -8  -7  755.11   14.89
   7   8   7  760.83   17.87
  -7  -8  -7  768.52   14.39
   7   8   8  271.96   10.30
  -7  -8  -8  270.85   10.01
   7   8   8  252.45   11.56
  -7  -8  -8  253.75   12.18
   7   8   9  127.02    9.34
  -7  -8  -9  129.68    8.31
  -7  -8  -9  128.70    9.44
   7   8  10  519.67   16.80
  -7  -8 -10  501.21   17.31
  -7  -8 -11   15.96    6.52
   7   8  11   20.86    6.85
   7   9  -4   19.23    7.18
  -7  -9   4   22.09    7.82
  -7  -9   3  554.55   20.27
   7   9  -3  519.84   17.56
  -7  -9   2  226.78   13.29
   7   9  -2  206.67   11.65
   7   9  -1  229.25   11.46
  -7  -9   1  231.39   13.33
   7   9  -1  227.58   11.50
  -7  -9   0  602.04   13.23
   7   9   0  573.13   16.00
  -7  -9   0  576.71   18.46
  -7  -9  -1   30.09    4.89
   7   9   1   26.65    6.64
   7   9   2  412.54   13.13
  -7  -9  -2  409.71   12.41
  -7  -9  -2  431.97   14.97
   7   9   3  587.92   15.10
  -7  -9  -3  581.13   15.23
  -7  -9  -4   13.91    5.47
   7   9   4   14.52    5.12
   7   9   4   19.72    4.30
  -7  -9  -4   17.32    4.91
   7   9   5  845.59   17.84
   7   9   5  929.77   18.03
  -7  -9  -5  893.49   17.99
  -7  -9  -5  813.81   19.23
   7   9   5  941.79   16.33
   7   9   6  575.12   15.22
   7   9   6  616.06   15.85
  -7  -9  -6  593.79   14.24
   7   9   7  151.35    8.82
   7   9   7  163.53    9.37
  -7  -9  -7  147.40   10.56
   7   9   8 1051.25   20.67
  -7  -9  -8 1024.56   23.06
   7   9   9  438.61   14.31
   7   9   9  442.61   15.40
  -7  -9  -9  413.13   16.32
   7   9  10   72.27    8.62
  -7  -9 -10   76.24    9.42
   7   9  11  401.01   15.72
   7  10  -3   49.20    9.11
   7  10  -2  836.64   22.01
  -7 -10   2  905.28   25.85
   7  10  -1  237.29   12.82
  -7 -10   1  242.93   13.92
   7  10   0  414.77   15.42
  -7 -10   0  419.87   16.94
  -7 -10  -1  964.51   18.46
  -7 -10  -1 1005.47   24.10
   7  10   2  106.91    8.84
  -7 -10  -2  117.61    8.25
  -7 -10  -2  123.59    9.70
   7  10   3  245.18   11.38
  -7 -10  -3  234.01   10.62
  -7 -10  -3  270.91   12.27
   7  10   4  552.59   16.03
  -7 -10  -4  516.58   15.59
  -7 -10  -4  552.07   15.97
  -7 -10  -5   15.02    6.21
   7  10   5   18.61    6.20
  -7 -10  -5   16.18    4.97
   7  10   6  410.15   14.19
  -7 -10  -6  383.35   14.84
  -7 -10  -6  409.12   12.69
   7  10   7  196.81   10.57
  -7 -10  -7  176.58   11.59
  -7 -10  -8   14.29    7.53
   7  10   8   20.02    5.79
   7  10   8   20.64    5.57
   7  10   9  315.95   13.28
   7  10   9  338.05   13.73
   7  10  10  171.91   10.90
   7  11   0   93.76   10.44
  -7 -11   0   94.56   10.92
  -7 -11  -1  181.33    9.82
   7  11   1  203.24   12.70
  -7 -11  -1  189.74   12.55
  -7 -11  -2  496.39   15.17
   7  11   2  527.15   17.37
  -7 -11  -3   37.42    6.98
   7  11   3   36.33    8.06
  -7 -11  -3   40.47    7.36
   7  11   4  385.02   15.55
  -7 -11  -4  363.31   14.57
  -7 -11  -4  376.03   14.35
   7  11   5 1147.98   24.54
  -7 -11  -5 1095.03   24.11
  -7 -11  -5 1169.72   23.04
   7  11   6   73.41    8.96
  -7 -11  -6   75.44    9.15
   7  11   7  389.08   15.35
   7  11   8  335.45   14.52
   7  11   9   26.64    7.01
  -7 -12  -2    3.65    5.54
  -7 -12  -3  192.11   11.56
  -7 -12  -3  224.53   12.54
  -7 -12  -4   60.78    8.16
   8  -4   1   76.44    8.99
   8  -4   2  382.33   15.88
   8  -3  -1  165.82   10.84
  -8   3   1  169.38   12.60
   8  -3   0  777.45   20.18
  -8   3   0  778.00   22.52
   8  -3   1  277.47   13.54
  -8   3  -1  250.12   14.30
   8  -3   2  203.31   11.92
  -8   3  -2  181.53   12.74
   8  -3   3  717.05   20.46
  -8   3  -3  714.21   21.97
   8  -3   4  148.86   11.34
  -8   3  -4  131.09    9.16
  -8   3  -5  129.64    9.40
  -8   3  -6  189.68   11.19
   8  -2  -5  232.89   12.21
  -8   2   5  247.85   13.79
  -8   2   4  395.94   16.44
   8  -2  -3    1.90    6.00
  -8   2   3   -0.04    6.23
   8  -2  -2  263.00   12.37
  -8   2   2  234.57   13.29
   8  -2  -1  131.10    9.38
  -8   2   1  134.98   10.42
   8  -2   0  105.91    9.16
  -8   2   0  117.05   10.36
   8  -2   1  693.83   18.84
  -8   2  -1  699.99   20.58
   8  -2   2   99.87    9.23
  -8   2  -2  101.15    9.95
   8  -2   3  189.58   11.27
  -8   2  -3  157.27    9.48
  -8   2  -3  188.18   12.10
   8  -2   4  827.78   21.13
  -8   2  -4  802.61   19.06
  -8   2  -4  843.41   22.33
   8  -2   5  195.99   12.13
  -8   2  -5  166.67   10.15
  -8   2  -5  179.07   11.99
   8  -2   6  303.81   14.27
  -8   2  -6  287.59   13.19
  -8   2  -6  336.55   14.85
  -8   2  -7  495.89   17.40
  -8   2  -7  574.97   19.29
  -8   2  -8   95.55    9.76
  -8   2  -8  111.18   10.05
   8  -1  -6  306.87   13.99
  -8   1   6  324.52   14.83
   8  -1  -5   13.53    6.12
  -8   1   5   13.97    6.18
   8  -1  -4  437.01   14.48
  -8   1   4  475.94   17.35
   8  -1  -4  468.07   16.21
   8  -1  -3  607.00   15.69
  -8   1   3  620.24   18.85
   8  -1  -3  654.38   18.23
   8  -1  -2   48.43    7.29
  -8   1   2   49.08    7.43
  -8   1   1  295.13   13.45
   8  -1  -1  305.40   13.18
  -8   1   0  988.85   23.10
   8  -1   0 1032.57   22.01
   8  -1   1    8.25    6.58
  -8   1  -1   13.93    6.94
   8  -1   2  958.08   21.28
  -8   1  -2 1022.23   23.26
   8  -1   3  316.76   13.32
  -8   1  -3  289.15   11.53
  -8   1  -3  322.56   14.31
   8  -1   4  121.88    9.87
  -8   1  -4  120.14    8.62
  -8   1  -4  130.76   10.38
   8  -1   5  649.14   18.55
  -8   1  -5  623.02   17.19
  -8   1  -5  679.76   19.09
   8  -1   6   30.04    6.77
  -8   1  -6   21.70    6.06
  -8   1  -6   28.72    7.03
   8  -1   7  404.97   15.96
  -8   1  -7  392.53   15.65
  -8   1  -7  410.32   15.59
   8  -1   8  665.70   20.45
  -8   1  -8  706.36   19.70
  -8   1  -9   42.95    9.41
  -8   1  -9   49.56    7.31
  -8   0   7  251.21   13.37
   8   0  -6   20.47    7.07
   8   0  -6   19.26    7.20
  -8   0   6   26.16    7.26
   8   0  -5  469.80   15.30
  -8   0   5  487.69   16.88
   8   0  -5  517.28   17.06
   8   0  -4  172.96    9.86
  -8   0   4  178.52   11.17
   8   0  -4  170.18   10.80
   8   0  -3  305.68   11.29
  -8   0   3  303.73   13.89
   8   0  -3  298.02   12.90
   8   0  -2  493.56   12.79
  -8   0   2  472.72   16.76
   8   0  -2  494.31   15.78
   8   0  -1    0.38    5.62
   8   0  -1    8.83    4.08
  -8   0   1    4.06    5.31
  -8   0   0 1087.81   23.62
   8   0   0 1150.19   22.71
  -8   0  -1 1347.19   25.67
   8   0   1 1389.56   24.52
   8   0   2    0.04    6.44
  -8   0  -2    9.32    5.48
   8   0   3 1263.04   23.68
  -8   0  -3 1187.34   21.22
  -8   0  -3 1238.33   24.08
   8   0   4  787.08   19.22
  -8   0  -4  749.96   17.63
  -8   0  -4  811.90   19.93
   8   0   5   86.48    8.38
  -8   0  -5   76.37    7.69
  -8   0  -5   84.23    8.26
   8   0   6  877.97   20.58
  -8   0  -6  912.35   20.95
   8   0   7  441.30   15.91
  -8   0  -7  411.77   15.11
  -8   0  -7  459.37   15.14
   8   0   8   69.76    8.92
  -8   0  -8   62.28    8.84
  -8   0  -8   64.37    7.36
   8   0   9  448.24   16.88
  -8   0  -9  485.67   15.56
   8   1  -7  690.34   19.77
  -8  -1   7  749.67   21.10
   8   1  -6  524.14   16.49
  -8  -1   6  542.69   17.69
   8   1  -5   12.12    7.28
   8   1  -5   20.19    6.43
  -8  -1   5   17.61    6.44
   8   1  -4 1032.82   19.86
  -8  -1   4 1049.63   23.39
   8   1  -3  590.19   14.34
  -8  -1   3  612.49   18.46
   8   1  -3  614.84   17.71
   8   1  -2   34.82    7.18
   8   1  -2   27.11    4.92
  -8  -1   2   19.89    6.62
   8   1  -1  790.76   14.11
  -8  -1   1  830.37   20.69
   8   1  -1  809.12   19.11
   8   1   0  143.09    6.28
  -8  -1   0  144.34   10.19
   8   1   0  147.89    9.86
  -8  -1  -1  375.07   14.14
   8   1   1  346.98   12.93
  -8  -1  -2  529.00   15.93
   8   1   2  563.32   15.87
   8   1   3    1.84    5.99
  -8  -1  -3    3.76    5.11
  -8  -1  -3    5.42    4.94
   8   1   4  961.03   20.00
  -8  -1  -4  949.52   20.38
   8   1   5  694.36   17.79
  -8  -1  -5  676.27   17.41
  -8  -1  -5  722.17   17.79
   8   1   6  117.60    8.84
  -8  -1  -6  106.69    9.14
  -8  -1  -6  121.61    8.90
   8   1   7 1453.21   25.67
  -8  -1  -7 1534.34   25.15
   8   1   8  595.19   17.75
  -8  -1  -8  618.64   16.34
   8   1   9   17.93    5.73
  -8  -1  -9   20.02    7.06
  -8  -1  -9   20.66    5.25
   8   1  10  606.75   18.82
  -8  -1 -10  552.13   19.74
   8   1  11  470.82   16.94
  -8  -2   8  151.22   10.62
  -8  -2   8  150.13   10.55
   8   2  -7    4.29    6.02
  -8  -2   7    2.88    5.93
  -8  -2   7    5.49    5.65
   8   2  -6  216.56   11.38
  -8  -2   6  226.96   12.33
  -8  -2   6  206.76   10.62
   8   2  -5  396.42   13.76
   8   2  -5  423.36   15.85
   8   2  -4  114.67    8.03
  -8  -2   4  110.81   10.28
   8   2  -4  123.38   10.06
   8   2  -3 1243.38   20.03
  -8  -2   3 1292.24   25.41
   8   2  -3 1330.92   24.92
   8   2  -2  533.84   12.70
  -8  -2   2  554.51   17.27
   8   2  -1  298.70    9.09
  -8  -2   1  290.66   12.59
   8   2  -1  280.55   12.01
   8   2   0 1501.68   17.10
  -8  -2   0 1483.13   26.21
   8   2   0 1557.06   25.05
   8   2   1  552.39    9.57
  -8  -2  -1  555.04   16.32
   8   2   1  555.43   15.65
   8   2   2   18.71    5.02
  -8  -2  -2   20.37    6.13
  -8  -2  -3  474.66   13.72
   8   2   3  491.82   14.59
  -8  -2  -4  197.36    9.66
  -8  -2  -4  210.77   10.07
   8   2   4  207.34   10.44
   8   2   5  160.59    9.59
  -8  -2  -5  144.83    9.05
  -8  -2  -5  164.73    9.15
   8   2   6 1012.80   20.54
  -8  -2  -6 1054.85   20.01
   8   2   7    2.87    6.24
  -8  -2  -7   -0.55    6.64
  -8  -2  -7    5.30    4.95
   8   2   8  915.25   20.40
  -8  -2  -8  941.24   18.68
   8   2   9  115.84    9.45
  -8  -2  -9  111.01    9.88
  -8  -2  -9  135.57    8.02
   8   2  10  177.38   11.15
  -8  -2 -10  146.10   11.92
   8   2  11 1027.35   23.59
  -8  -2 -11  966.63   25.81
   8   2  12  359.70   15.17
  -8  -3   8  304.01   14.46
  -8  -3   7  355.71   14.08
   8   3  -7  365.52   14.82
  -8  -3   7  374.52   15.34
   8   3  -6  122.79    9.62
  -8  -3   6  127.36    9.72
   8   3  -5   56.05    7.27
  -8  -3   5   58.10    7.81
   8   3  -4  385.00   12.59
  -8  -3   4  386.44   15.10
   8   3  -3    2.87    4.76
  -8  -3   3    0.26    6.15
   8   3  -2  914.23   16.19
  -8  -3   2  959.32   21.78
   8   3  -2  929.79   20.47
   8   3  -1  295.91    9.25
  -8  -3   1  286.41   13.05
   8   3  -1  312.67   12.41
   8   3   0  309.31    8.50
  -8  -3   0  314.85   12.59
   8   3   0  319.10   12.52
   8   3   1 1266.84   14.54
   8   3   1 1303.89   22.48
   8   3   2  534.21    8.77
  -8  -3  -2  555.95   15.94
   8   3   2  527.15   14.51
  -8  -3  -3  471.38   13.58
  -8  -3  -3  462.40   14.30
   8   3   3  487.66   14.11
  -8  -3  -4 1548.87   23.14
   8   3   4 1610.23   24.35
  -8  -3  -5  548.50   15.04
  -8  -3  -5  538.18   14.62
   8   3   5  561.10   15.20
   8   3   6  397.23   13.22
  -8  -3  -6  373.86   12.86
  -8  -3  -6  397.51   12.56
   8   3   7 1430.37   23.75
  -8  -3  -7 1500.25   22.52
   8   3   8    1.67    5.38
  -8  -3  -8   -0.33    6.37
  -8  -3  -8    3.19    4.18
   8   3   9  349.61   13.06
  -8  -3  -9  371.50   11.41
   8   3  10  124.03    9.28
  -8  -3 -10  101.71   10.25
   8   3  11   22.70    6.56
  -8  -3 -11   20.78    8.18
   8   3  12  316.42   13.80
   8   3  13  122.21   10.10
  -8  -4   8   28.22    7.01
   8   4  -7  171.56   11.38
  -8  -4   7  174.67   11.78
   8   4  -6  510.07   16.24
  -8  -4   6  542.53   18.31
   8   4  -5  113.55    9.02
  -8  -4   5  109.36    9.15
   8   4  -4  311.05   11.75
  -8  -4   4  319.00   14.17
   8   4  -3 1757.47   24.00
  -8  -4   3 1803.53   30.27
   8   4  -2   99.49    7.15
  -8  -4   2   97.31    9.43
   8   4  -1 1243.42   17.70
  -8  -4   1 1225.96   24.09
   8   4   0  576.36   11.53
  -8  -4   0  557.09   16.75
   8   4   0  593.99   15.91
   8   4   1   37.44    4.10
   8   4   1   37.38    6.24
  -8  -4  -1   25.61    6.41
  -8  -4  -2  787.45   18.24
   8   4   2  828.32   17.86
   8   4   2  791.63   11.62
  -8  -4  -3  231.82    9.88
  -8  -4  -3  241.88   10.57
   8   4   3  264.76    6.56
   8   4   3  244.96   10.56
  -8  -4  -4  293.01   10.74
  -8  -4  -4  299.21   11.65
   8   4   4  302.67   11.34
  -8  -4  -5 1247.49   21.39
  -8  -4  -5 1258.82   21.05
   8   4   5 1271.25   21.37
  -8  -4  -6  332.19   12.58
  -8  -4  -6  335.25   11.44
   8   4   6  306.25   11.39
   8   4   7  575.64   15.10
  -8  -4  -7  608.24   14.21
   8   4   8 1083.15   20.35
  -8  -4  -8 1037.45   21.91
   8   4   9   37.42    5.82
  -8  -4  -9   32.07    6.70
   8   4  10  616.66   16.68
  -8  -4 -10  598.14   18.59
   8   4  11  831.75   19.52
  -8  -4 -11  791.63   21.69
   8   4  12   47.95    7.23
  -8  -4 -12   45.13    9.36
  -8  -5   7  313.89   14.77
   8   5  -6   21.69    7.04
  -8  -5   6   28.15    7.20
   8   5  -5  304.98   12.61
  -8  -5   5  326.56   14.42
   8   5  -4   60.11    7.26
  -8  -5   4   62.06    8.57
   8   5  -3  430.89   12.93
  -8  -5   3  485.54   17.00
   8   5  -2 1174.58   19.04
  -8  -5   2 1229.53   25.28
   8   5  -1    6.41    4.60
  -8  -5   1    6.32    6.20
   8   5   0  915.82   15.41
  -8  -5   0  904.92   20.92
  -8  -5  -1 1282.90   23.79
   8   5   1 1272.95   16.84
   8   5   2    1.53    5.10
   8   5   2    2.35    3.42
   8   5   2    2.93    2.87
  -8  -5  -2    2.82    5.68
  -8  -5  -3 1155.12   21.22
   8   5   3 1191.91   20.61
  -8  -5  -4 1239.86   21.28
   8   5   4 1199.42   20.45
   8   5   5    4.70    5.33
  -8  -5  -5    0.75    4.98
  -8  -5  -5    0.21    4.48
  -8  -5  -6  964.22   19.01
  -8  -5  -6 1014.87   18.29
   8   5   6 1028.65   19.01
  -8  -5  -7  272.91   11.59
  -8  -5  -7  297.68   10.32
   8   5   7  291.11   11.07
   8   5   8  149.39    8.54
  -8  -5  -8  149.59    9.96
  -8  -5  -8  165.65    7.68
   8   5   9  513.92   14.29
  -8  -5  -9  491.08   15.89
   8   5  10   64.61    6.96
  -8  -5 -10   55.24    7.96
   8   5  11  256.32   11.09
  -8  -5 -11  262.96   13.83
   8   5  11  243.45   12.74
  -8  -5 -12  674.90   21.02
   8   6  -6  479.59   16.98
  -8  -6   6  490.81   18.43
   8   6  -5    3.33    6.32
  -8  -6   5    4.67    6.91
   8   6  -4  632.96   17.09
  -8  -6   4  657.65   19.93
   8   6  -3  590.66   15.77
  -8  -6   3  611.61   19.14
   8   6  -2   49.84    6.18
  -8  -6   2   51.51    7.76
  -8  -6   1  287.38   13.11
   8   6  -1  269.93   10.03
  -8  -6   0   46.39    6.83
   8   6   0   43.19    5.56
  -8  -6  -1  401.23   14.39
   8   6   1  374.04   10.63
   8   6   2  830.30   13.33
  -8  -6  -2  877.89   19.60
   8   6   2  840.86   14.64
   8   6   2  874.95   17.93
   8   6   3    3.69    5.28
   8   6   3    4.67    3.25
  -8  -6  -3    7.27    4.60
  -8  -6  -4 1230.78   21.40
   8   6   4 1198.73   20.27
  -8  -6  -5 1036.16   18.62
  -8  -6  -5 1059.02   19.15
   8   6   5 1072.60   19.10
   8   6   6   17.48    5.00
  -8  -6  -6   18.72    5.86
  -8  -6  -6   24.45    4.90
  -8  -6  -7 1174.10   18.79
   8   6   7 1153.79   19.74
   8   6   8  946.97   18.16
  -8  -6  -8  971.62   16.60
   8   6   9   21.06    5.09
  -8  -6  -9   18.40    6.35
  -8  -6 -10  624.31   17.70
   8   6  10  634.11   18.80
  -8  -6 -11  358.84   15.20
   8   6  11  391.18   16.08
  -8  -6 -12   20.92    8.14
   8   7  -5  200.53   11.72
  -8  -7   5  223.06   12.97
   8   7  -4   79.37    8.86
  -8  -7   4   74.44    9.65
  -8  -7   3 1150.79   26.44
   8   7  -3 1139.46   22.34
  -8  -7   2  665.53   20.19
   8   7  -2  639.33   16.35
   8   7  -1   19.54    5.70
  -8  -7   1   12.60    5.91
  -8  -7   0  711.49   19.69
  -8  -7   0  690.98   13.16
   8   7   0  673.64   15.61
   8   7   1  567.82   12.99
  -8  -7  -1  548.69   12.85
   8   7   1  535.13   13.68
   8   7   2   28.87    4.77
  -8  -7  -2   42.21    6.80
   8   7   3  913.52   14.93
  -8  -7  -3  924.30   19.63
   8   7   3  952.44   18.37
   8   7   4  115.86    6.11
  -8  -7  -4  118.91    8.29
   8   7   4  122.95    8.00
  -8  -7  -5  663.30   14.94
   8   7   5  688.32   15.59
  -8  -7  -6  286.33   10.57
  -8  -7  -6  280.07   10.28
   8   7   6  292.48   10.51
  -8  -7  -7  131.76    8.49
   8   7   7  144.30    8.13
  -8  -7  -8  993.96   19.67
   8   7   8 1030.03   21.66
  -8  -7  -9  363.81   13.15
   8   7   9  380.38   14.51
  -8  -7 -10  125.34    9.32
   8   7  10  128.20   10.08
  -8  -7 -11  574.26   17.62
   8   7  11  625.60   19.76
  -8  -7 -12  471.88   16.73
  -8  -8   4  283.05   15.27
   8   8  -4  271.17   13.02
   8   8  -3   14.68    5.99
  -8  -8   3   16.17    7.85
  -8  -8   2  598.05   20.17
   8   8  -2  581.39   17.11
  -8  -8   1  364.01   15.92
   8   8  -1  345.70   13.06
   8   8   0  344.40   12.21
  -8  -8   0  325.25   14.46
   8   8   0  346.06   13.08
   8   8   1 1640.75   23.20
  -8  -8  -1 1685.80   29.18
  -8  -8  -1 1582.09   21.60
   8   8   1 1561.39   23.67
   8   8   2  480.51   12.94
  -8  -8  -2  494.39   15.85
  -8  -8  -2  447.75   12.71
   8   8   3  118.50    7.30
  -8  -8  -3  114.16    8.51
  -8  -8  -3  103.62    7.60
   8   8   4 1172.53   18.63
  -8  -8  -4 1238.18   22.20
   8   8   4 1185.70   20.38
   8   8   5  194.07    8.31
  -8  -8  -5  199.22    9.51
   8   8   5  196.66    9.31
   8   8   5  193.27    9.11
  -8  -8  -6  194.95    9.11
  -8  -8  -6  228.91    9.68
   8   8   6  201.94    9.82
   8   8   6  204.46    9.16
  -8  -8  -7  479.63   13.05
  -8  -8  -7  513.35   13.02
   8   8   7  502.70   13.07
   8   8   8   34.10    6.63
  -8  -8  -8   34.31    5.87
  -8  -8  -9  269.05   11.22
   8   8   9  258.96   12.38
  -8  -8 -10  159.49    9.67
   8   8  10  142.59    9.98
   8   8  11   12.49    6.72
  -8  -9   3  567.07   21.00
   8   9  -3  579.32   18.92
   8   9  -2   34.63    7.22
  -8  -9   2   45.33    8.17
   8   9  -1  287.79   12.49
  -8  -9   1  295.59   14.93
   8   9  -1  282.08   12.75
   8   9   0  341.97   12.95
  -8  -9   0  351.13   15.03
   8   9   0  314.89   13.30
   8   9   1   58.93    7.00
  -8  -9  -1   53.60    5.72
  -8  -9  -1   67.63    8.75
   8   9   2  568.65   15.20
  -8  -9  -2  544.76   14.32
   8   9   3  259.71   10.62
  -8  -9  -3  278.10   12.66
  -8  -9  -3  271.08   11.16
   8   9   4  149.26    8.63
  -8  -9  -4  164.50    9.85
  -8  -9  -4  140.68    9.20
   8   9   4  159.36    8.74
   8   9   5  838.68   17.42
   8   9   5  880.86   18.18
  -8  -9  -5  820.35   18.16
   8   9   5  840.61   17.05
   8   9   6  260.55   10.55
   8   9   6  255.29   10.97
  -8  -9  -6  273.93   10.51
  -8  -9  -6  231.16   11.76
   8   9   7  298.56   12.31
  -8  -9  -7  278.40   13.32
   8   9   8 1219.14   24.17
  -8  -9  -8 1158.93   25.19
   8   9   9  108.78    9.27
  -8  -9  -9  101.36   10.18
   8   9  10  244.71   12.50
   8  10  -2  635.97   19.32
   8  10  -2  643.16   19.99
   8  10  -1   55.74    9.10
  -8 -10   1   51.77    8.97
   8  10   0  650.05   18.68
  -8 -10   0  670.18   20.97
   8  10   1  768.82   19.27
  -8 -10  -1  790.17   22.30
  -8 -10  -2   20.43    5.62
   8  10   2   25.69    6.90
  -8 -10  -2   27.38    7.34
   8  10   3  372.82   13.48
  -8 -10  -3  380.34   13.34
  -8 -10  -3  362.73   14.35
   8  10   4  301.52   12.20
  -8 -10  -4  280.34   12.17
  -8 -10  -4  309.41   13.04
  -8 -10  -5   11.72    6.06
   8  10   5   14.84    5.29
  -8 -10  -5    9.27    4.94
   8  10   6  386.94   13.71
  -8 -10  -6  380.68   12.87
  -8 -10  -6  350.04   14.54
  -8 -10  -7  334.36   14.96
  -8 -10  -8   61.13    9.10
   8  10   8   75.26    7.83
   8  10   9  558.78   17.45
   8  10  10   28.52    6.90
   8  11   0   18.34    7.32
   8  11   1  395.47   15.69
  -8 -11  -1  407.78   17.12
   8  11   2  392.61   15.55
  -8 -11  -2  385.86   13.64
  -8 -11  -2  396.24   16.15
  -8 -11  -3    0.26    5.28
   8  11   3    4.97    6.31
  -8 -11  -3    9.40    5.74
   8  11   4  518.78   16.97
  -8 -11  -4  521.99   16.67
  -8 -11  -4  546.61   17.42
   8  11   5  573.45   17.58
  -8 -11  -5  574.43   18.35
  -8 -11  -6    0.99    7.67
   8  11   6    4.62    6.72
   8  11   7  506.67   16.75
  -8 -12  -3  123.66    9.47
  -8 -12  -4   11.55    6.13
   9  -2  -2  555.30   18.63
   9  -2  -1   63.58    9.09
   9  -2   0  301.44   14.36
   9  -2   1  328.82   15.11
   9  -2   2    9.51    6.50
   9  -2   3  438.00   17.34
  -9   2  -4  718.41   19.48
  -9   2  -5   24.21    7.00
   9  -1  -3  456.77   17.07
   9  -1  -2   10.62    6.47
  -9   1   2    3.32    7.27
  -9   1   1  630.78   21.00
   9  -1  -1  634.76   19.62
   9  -1   0  326.31   14.77
  -9   1   0  333.11   15.56
   9  -1   1   70.99    8.41
  -9   1  -1   70.90    9.18
   9  -1   2  403.26   15.76
  -9   1  -2  420.99   17.52
   9  -1   3   93.86    8.94
  -9   1  -3   98.15    9.81
   9  -1   4   70.36    9.08
  -9   1  -4   62.07    7.71
  -9   1  -4   87.49   10.29
  -9   1  -5  380.89   14.46
  -9   1  -5  382.85   16.66
  -9   1  -6    0.77    5.36
  -9   1  -6    4.74    6.24
  -9   1  -7  434.53   17.36
   9   0  -5  243.08   12.30
   9   0  -5  289.40   14.47
   9   0  -4   22.11    7.28
  -9   0   4   16.70    6.65
  -9   0   3  140.81   11.61
   9   0  -3  142.63   10.93
  -9   0   2  145.33   10.73
   9   0  -2  132.13   10.42
   9   0  -1   39.91    7.88
  -9   0   1   36.18    7.35
  -9   0   0  795.70   22.58
   9   0   0  746.81   20.47
  -9   0  -1  482.68   17.51
   9   0   1  442.06   16.48
   9   0   2  187.60   11.56
  -9   0  -2  180.33   11.72
   9   0   3  759.65   20.45
  -9   0  -3  821.64   21.94
   9   0   4  318.47   14.12
  -9   0  -4  298.99   12.75
  -9   0  -4  323.40   14.73
   9   0   5  105.80   10.14
  -9   0  -5   93.84    8.86
  -9   0  -5  103.00    9.61
   9   0   6  604.09   19.13
  -9   0  -6  596.68   18.97
   9   0   7  124.26    9.86
  -9   0  -7  138.76    9.95
  -9   0  -8  164.58   11.08
  -9   0  -9  532.78   17.68
   9   1  -6   52.53    9.14
   9   1  -5  290.99   13.03
  -9  -1   5  313.80   15.59
   9   1  -5  300.15   15.03
   9   1  -4  639.41   17.09
  -9  -1   4  672.39   21.09
  -9  -1   3  166.84   12.53
   9   1  -3  155.53   11.34
  -9  -1   2   94.77    9.87
   9   1  -2   87.04    9.37
  -9  -1   1  648.77   20.19
   9   1  -1  599.45   18.26
  -9  -1   0   88.65    9.57
   9   1   0   95.64    9.09
  -9  -1  -1  547.78   18.37
   9   1   1  542.13   17.43
  -9  -1  -2  362.09   14.94
   9   1   2  350.17   14.26
   9   1   3  143.12   10.48
  -9  -1  -3  163.50   11.18
   9   1   4 1093.35   23.55
  -9  -1  -4 1040.73   21.92
  -9  -1  -4 1117.23   24.16
   9   1   5  125.26   10.27
  -9  -1  -5  114.40    9.08
  -9  -1  -5  141.13   10.32
   9   1   6  579.43   18.34
  -9  -1  -6  590.02   18.08
   9   1   7  880.21   22.16
  -9  -1  -7  885.12   21.49
   9   1   8  237.30   12.90
  -9  -1  -8  213.71   12.60
  -9  -1  -8  235.11   11.71
   9   1   9  194.05   11.96
  -9  -1  -9  197.86   11.06
   9   2  -6  394.71   15.46
   9   2  -6  418.48   17.91
   9   2  -5   95.00    8.53
  -9  -2   5   86.64    9.84
   9   2  -5  119.13   10.94
   9   2  -4  289.69   12.10
  -9  -2   4  326.92   15.68
   9   2  -4  325.44   15.65
   9   2  -3  662.90   15.89
  -9  -2   3  679.69   20.65
   9   2  -3  707.83   20.67
   9   2  -2  102.77    7.28
  -9  -2   2  107.93   10.25
   9   2  -2  107.21    9.69
  -9  -2   1  566.16   19.08
   9   2  -1  596.49   18.40
  -9  -2   0 2189.83   34.28
   9   2   0 2253.67   32.89
  -9  -2  -1  153.11   11.25
   9   2   1  155.38   11.10
  -9  -2  -2  441.65   15.68
   9   2   2  420.79   14.82
  -9  -2  -3  571.11   17.66
   9   2   3  558.12   16.70
   9   2   4    5.64    5.47
  -9  -2  -4   12.69    6.27
  -9  -2  -4   17.56    6.19
   9   2   5  498.34   16.26
  -9  -2  -5  469.12   15.56
   9   2   6  223.28   11.53
  -9  -2  -6  194.60   11.19
  -9  -2  -6  200.79   10.87
   9   2   7   83.88    8.83
  -9  -2  -7   79.15    8.42
  -9  -2  -7   97.77    8.25
   9   2   8  490.72   16.38
  -9  -2  -8  473.26   17.36
   9   2   9  111.64    9.91
  -9  -2  -9  101.87   10.28
  -9  -2  -9  113.38    8.37
   9   2  10  271.54   13.79
   9   3  -6   16.81    7.03
  -9  -3   6   11.87    7.46
   9   3  -5  407.77   14.69
  -9  -3   5  400.29   16.68
   9   3  -5  419.68   17.66
   9   3  -4  220.21   11.06
  -9  -3   4  241.41   13.23
   9   3  -3   53.27    8.33
   9   3  -3   38.31    6.13
  -9  -3   3   47.32    8.06
   9   3  -2  247.13    9.79
  -9  -3   2  232.89   13.01
   9   3  -2  252.18   12.89
   9   3  -1  165.96    7.79
  -9  -3   1  133.25   10.80
   9   3  -1  151.50   10.10
  -9  -3   0  342.14   14.77
   9   3   0  384.10   14.64
  -9  -3  -1 1056.16   23.56
   9   3   1 1096.03   22.89
   9   3   2   22.35    7.04
  -9  -3  -2   26.64    6.41
  -9  -3  -3  695.67   18.82
   9   3   3  720.11   18.46
  -9  -3  -4 1298.65   23.39
  -9  -3  -4 1299.14   24.70
   9   3   4 1315.86   23.94
  -9  -3  -5  191.07   10.87
  -9  -3  -5  212.17   11.11
   9   3   5  197.19   11.30
   9   3   6  565.48   16.78
  -9  -3  -6  538.76   16.66
  -9  -3  -6  556.87   15.96
   9   3   7 1043.48   22.12
  -9  -3  -7 1065.09   21.19
   9   3   8    3.89    5.32
  -9  -3  -8    4.12    5.73
  -9  -3  -8    0.01    4.95
   9   3   9  315.94   13.31
  -9  -3  -9  340.14   12.33
   9   3  10  139.87    9.93
  -9  -3 -10  137.84   11.70
   9   3  11   57.56    7.99
   9   4  -6  243.42   12.99
   9   4  -5    1.46    6.53
  -9  -4   5    2.73    5.97
   9   4  -4  520.52   15.48
  -9  -4   4  475.56   18.02
   9   4  -3  596.16   15.37
  -9  -4   3  578.19   19.25
   9   4  -2    2.65    6.14
   9   4  -2    8.47    4.90
  -9  -4   2   -0.01    6.43
   9   4  -1  852.17   15.73
   9   4  -1  879.87   21.32
   9   4   0  534.51   11.94
   9   4   0  570.00   17.05
   9   4   1   54.25    7.74
  -9  -4  -1   41.31    6.67
  -9  -4  -2  388.70   14.70
   9   4   2  413.35   14.36
   9   4   3   20.67    6.40
  -9  -4  -3   15.81    5.77
  -9  -4  -4  339.91   12.34
  -9  -4  -4  328.71   13.04
   9   4   4  356.27   13.07
  -9  -4  -5  723.40   17.74
  -9  -4  -5  718.21   17.80
   9   4   5  694.78   17.47
  -9  -4  -6  122.71    9.61
  -9  -4  -6  130.84    8.61
   9   4   6  130.92    8.93
   9   4   7  776.63   18.89
  -9  -4  -7  736.03   19.46
  -9  -4  -7  782.48   17.95
   9   4   8  939.76   20.73
  -9  -4  -8  972.59   19.18
   9   4   9   19.79    5.67
  -9  -4  -9   12.62    7.45
   9   4  10  765.67   19.73
  -9  -4 -10  697.76   20.79
   9   4  11  422.10   15.72
   9   4  12   11.65    5.97
   9   5  -5  217.92   11.33
  -9  -5   5  219.99   13.69
   9   5  -4    2.17    4.94
  -9  -5   4    1.95    5.98
   9   5  -3  274.42   11.53
  -9  -5   3  305.28   14.78
   9   5  -2  559.48   14.40
  -9  -5   2  560.40   18.73
   9   5  -1   38.61    5.81
  -9  -5   1   29.94    7.38
   9   5   0 1312.63   18.98
  -9  -5   0 1262.66   26.09
   9   5   0 1307.02   24.49
  -9  -5  -1  582.83   18.22
   9   5   1  608.43   17.28
   9   5   1  563.65   12.30
  -9  -5  -2  190.04   11.38
   9   5   2  170.36   10.94
  -9  -5  -3 1138.12   22.92
   9   5   3 1120.02   21.93
  -9  -5  -4  446.30   14.61
   9   5   4  443.26   14.57
   9   5   5   35.33    6.68
  -9  -5  -5   34.47    6.39
  -9  -5  -5   34.36    6.09
  -9  -5  -6  907.08   19.12
   9   5   6  868.58   19.09
   9   5   7   71.04    7.94
  -9  -5  -7   83.37    7.26
   9   5   8  534.79   15.51
  -9  -5  -8  561.97   14.59
   9   5   9  375.54   13.32
  -9  -5  -9  345.99   14.43
   9   5  10   15.97    6.00
  -9  -5 -10   19.82    7.39
   9   5  11  475.23   15.93
  -9  -5 -11  496.24   18.28
   9   6  -5  165.79   11.52
   9   6  -4  771.22   19.52
  -9  -6   4  810.07   24.01
   9   6  -3  285.18   12.19
  -9  -6   3  276.63   15.26
   9   6  -2  140.50    9.10
  -9  -6   2  133.36   11.30
  -9  -6   1  581.45   18.72
   9   6  -1  572.41   14.54
   9   6   0    1.22    4.46
  -9  -6   0    4.54    6.37
   9   6   1  739.80   18.56
   9   6   1  735.84   14.86
  -9  -6  -2  234.96   11.96
   9   6   2  213.95    8.45
   9   6   2  212.85   10.86
  -9  -6  -3  558.73   16.97
   9   6   3  543.23   15.85
  -9  -6  -4  946.63   20.54
   9   6   4  935.64   19.77
  -9  -6  -5  402.31   13.17
  -9  -6  -5  438.22   14.12
   9   6   5  430.88   14.05
  -9  -6  -6  113.19    8.69
  -9  -6  -6  109.93    8.08
   9   6   6  106.34    8.14
  -9  -6  -7 1234.91   23.16
  -9  -6  -7 1288.13   21.73
   9   6   7 1281.79   22.59
   9   6   8  252.20   11.18
  -9  -6  -8  258.99   12.37
  -9  -6  -8  265.56   10.41
   9   6   9  179.92    9.82
  -9  -6  -9  181.42   11.12
   9   6  10  749.86   18.19
  -9  -6 -10  705.27   20.11
  -9  -6 -11  129.11   11.57
   9   7  -4  293.83   13.67
  -9  -7   4  302.26   15.87
  -9  -7   3 1032.34   26.79
   9   7  -3 1033.68   22.16
  -9  -7   2  157.32   12.48
   9   7  -2  159.82   10.13
  -9  -7   1  241.36   13.63
   9   7  -1  242.95   11.13
  -9  -7   0  880.42   23.29
   9   7   0  879.36   18.12
  -9  -7  -1  409.71   16.18
   9   7   1  387.14   12.29
  -9  -7  -2  297.63   13.51
   9   7   2  260.02    9.83
   9   7   2  274.53   12.31
  -9  -7  -3  572.13   17.19
   9   7   3  551.44   15.75
   9   7   4   14.67    5.75
  -9  -7  -4   11.28    5.60
  -9  -7  -5  274.93   11.60
   9   7   5  270.33   11.25
  -9  -7  -6  194.62    9.85
  -9  -7  -6  205.79    9.96
   9   7   6  202.21    9.95
  -9  -7  -7  206.86   10.73
  -9  -7  -7  215.44    9.93
   9   7   7  225.62   10.40
  -9  -7  -8  948.94   20.61
   9   7   8 1069.15   20.40
   9   7   9  186.72    9.79
  -9  -7  -9  194.56   11.20
  -9  -7 -10  276.89   13.23
   9   7  10  275.74   13.78
  -9  -7 -11  672.10   19.98
   9   8  -3   29.57    7.42
  -9  -8   2  254.62   14.57
   9   8  -2  289.62   13.35
   9   8  -1   24.63    6.80
  -9  -8   1   32.05    7.84
   9   8   0  303.39   11.63
  -9  -8   0  320.30   15.04
   9   8   0  323.84   12.67
   9   8   1 1260.26   20.86
  -9  -8  -1 1270.00   26.78
   9   8   1 1253.71   21.97
  -9  -8  -2  251.19   12.92
  -9  -8  -2  234.24   10.33
  -9  -8  -3  569.52   17.39
  -9  -8  -3  544.40   15.25
   9   8   3  583.53   16.47
  -9  -8  -4 1326.06   24.76
   9   8   4 1282.51   22.96
  -9  -8  -5  100.61    8.35
   9   8   5   98.73    7.82
  -9  -8  -6  313.86   12.14
   9   8   6  326.72   12.02
  -9  -8  -7  300.66   11.94
  -9  -8  -7  306.33   11.36
   9   8   7  296.00   11.51
   9   8   8   -0.25    5.03
  -9  -8  -8   -1.59    5.65
  -9  -8  -9  288.28   12.47
   9   8   9  306.03   13.66
  -9  -8 -10  108.46    9.30
   9   8  10  130.21   10.72
  -9  -8 -11   55.26    8.19
   9   9  -2    6.13    7.11
   9   9  -1  206.95   11.16
  -9  -9   1  195.60   13.70
   9   9  -1  191.87   11.73
   9   9   0  194.88   10.69
  -9  -9   0  202.01   12.74
   9   9   0  193.10   10.99
   9   9   1   48.13    6.61
  -9  -9  -1   47.83    8.58
   9   9   2  494.39   14.15
  -9  -9  -2  490.81   17.25
  -9  -9  -2  469.27   13.67
  -9  -9  -3   58.33    7.89
  -9  -9  -3   55.80    6.31
   9   9   3   60.41    7.25
  -9  -9  -4  474.87   15.90
  -9  -9  -4  462.40   14.93
   9   9   4  502.84   14.99
  -9  -9  -5  797.24   19.24
  -9  -9  -5  792.85   19.92
   9   9   5  834.39   18.67
  -9  -9  -6    0.75    6.26
   9   9   6    1.99    5.20
   9   9   6    2.57    5.13
  -9  -9  -6    3.54    4.96
   9   9   7  656.20   18.10
  -9  -9  -7  568.55   18.23
   9   9   8  706.28   19.51
  -9  -9  -8  682.99   20.85
   9   9   9   10.97    5.65
   9   9  10  202.07   12.09
   9  10  -2  189.99   12.90
   9  10  -1   33.40    7.57
   9  10  -1   47.42    8.81
   9  10   0  601.01   18.18
   9  10   1  579.43   17.36
  -9 -10  -1  591.55   20.47
   9  10   2    6.90    6.08
  -9 -10  -2    9.82    6.93
   9  10   3  548.21   15.96
  -9 -10  -3  540.39   15.78
  -9 -10  -4  128.91    9.91
  -9 -10  -4  120.77    9.39
   9  10   4  126.96    8.98
  -9 -10  -5  137.08    9.26
  -9 -10  -5  140.05   10.01
  -9 -10  -6  261.98   11.60
  -9 -10  -6  239.10   12.96
  -9 -10  -7   56.15    7.96
   9  10   8  234.04   11.99
   9  10   9  382.90   15.04
   9  11   1  258.85   13.32
   9  11   2  201.74   11.84
  -9 -11  -3   51.17    7.39
   9  11   3   53.02    8.33
  -9 -11  -3   52.28    8.66
  -9 -11  -4  729.02   19.87
  -9 -11  -4  868.99   22.08
  -9 -11  -5  243.88   12.96
  -9 -11  -5  273.74   12.96
  10   0  -1  176.13   13.06
  10   0   0  507.29   18.99
  10   0   1   54.84    9.01
  10   0   2  337.49   15.74
  10   1  -2  345.95   16.43
  10   1  -1  279.89   14.71
  10   1   0    8.80    7.43
 -10  -1   0   24.96    8.41
 -10  -1  -1  220.36   13.43
  10   1   1  222.08   13.33
 -10  -1  -2  168.40   12.46
  10   1   2  205.41   13.08
  10   1   3  120.42   10.82
 -10  -1  -3  122.32   10.22
  10   1   4  415.27   16.34
 -10  -1  -4  371.57   16.53
  10   1   5    6.42    7.32
 -10  -1  -5   -0.01    6.59
 -10  -1  -5    6.66    6.98
 -10  -1  -6  475.56   17.84
 -10  -1  -6  488.63   17.95
 -10  -1  -7  730.79   21.55
 -10  -1  -8  101.16    9.97
 -10  -1  -9  356.16   15.12
  10   2  -3  296.36   15.88
  10   2  -2    8.27    7.74
 -10  -2   2    7.80    6.85
 -10  -2   1  633.07   21.66
  10   2  -1  572.94   19.80
 -10  -2   0  802.41   23.31
  10   2   0  872.58   23.11
  10   2   1   16.38    7.49
 -10  -2  -1   15.87    8.09
 -10  -2  -2  686.03   21.47
  10   2   2  680.08   20.11
 -10  -2  -3  613.02   19.86
  10   2   3  643.32   19.99
  10   2   4   21.92    6.72
 -10  -2  -4   22.07    7.92
  10   2   5  411.04   15.88
 -10  -2  -5  424.14   16.49
  10   2   6    7.49    5.86
 -10  -2  -6   10.45    6.20
 -10  -2  -6    2.66    5.65
  10   2   7   99.76    9.25
 -10  -2  -7   91.92   10.50
 -10  -2  -7   94.15    8.98
 -10  -2  -8  253.19   12.83
 -10  -2  -9   22.13    5.87
  10   3  -3  174.10   12.70
 -10  -3   2  218.81   13.73
  10   3  -2  237.10   13.98
  10   3  -1   20.28    7.95
 -10  -3   1   16.43    8.10
 -10  -3   0  333.93   15.97
  10   3   0  370.43   16.04
 -10  -3  -1  599.34   20.27
  10   3   1  584.18   19.02
  10   3   2   34.80    8.10
 -10  -3  -2   38.43    8.67
 -10  -3  -3 1187.69   26.57
  10   3   3 1293.15   26.47
 -10  -3  -4  986.41   23.96
  10   3   4  913.48   22.53
 -10  -3  -5  137.96   10.84
 -10  -3  -5  150.75   10.77
  10   3   5  157.89   11.39
  10   3   6  905.26   22.37
 -10  -3  -6  850.31   21.96
  10   3   7  277.11   13.46
 -10  -3  -7  272.07   14.35
 -10  -3  -7  278.70   13.10
  10   3   8   -1.30    6.10
 -10  -3  -8    1.46    7.48
 -10  -3  -8    0.22    5.10
  10   4  -4  685.05   18.36
  10   4  -3  137.01    8.95
 -10  -4   3  135.68   12.38
  10   4  -3  167.83   12.57
 -10  -4   2  167.74   12.73
  10   4  -2  168.98   12.38
 -10  -4   1  696.52   22.40
  10   4  -1  717.73   21.26
 -10  -4   0  302.25   15.93
  10   4   0  367.43   15.87
 -10  -4  -1  150.75   11.13
  10   4   1  135.88   11.18
 -10  -4  -2  439.67   16.59
  10   4   2  468.11   16.25
  10   4   3    7.59    6.85
 -10  -4  -3    3.12    6.90
 -10  -4  -4  597.01   18.63
  10   4   4  587.89   18.15
 -10  -4  -5  299.83   13.68
 -10  -4  -5  326.65   14.39
  10   4   5  321.76   13.77
 -10  -4  -6   77.29    8.96
 -10  -4  -6   76.36    8.04
  10   4   6   73.79    8.97
  10   4   7  583.83   17.72
 -10  -4  -7  610.70   19.08
 -10  -4  -7  640.96   17.97
  10   4   8  486.15   16.73
 -10  -4  -8  458.37   16.96
 -10  -4  -8  464.82   15.26
  10   4   9   26.01    7.67
  10   4  10  779.92   21.34
  10   5  -4   14.53    6.66
  10   5  -3  304.41   12.71
  10   5  -2  104.38    8.03
 -10  -5   2  112.27   10.35
  10   5  -2  124.23   10.92
 -10  -5   1   99.80   10.80
  10   5  -1  120.92   10.32
 -10  -5   0  583.58   20.35
  10   5   0  663.36   19.68
 -10  -5  -1  122.67   10.16
  10   5   1  127.08    9.78
 -10  -5  -2  183.46   11.71
  10   5   2  204.10   12.29
 -10  -5  -3 1153.68   25.55
  10   5   3 1160.14   24.14
 -10  -5  -4  319.96   14.26
  10   5   4  318.22   13.89
 -10  -5  -5  223.24   11.21
 -10  -5  -5  253.74   12.46
  10   5   5  214.29   11.65
 -10  -5  -6  573.43   17.17
  10   5   6  527.15   16.99
  10   5   7   23.93    6.87
 -10  -5  -7   21.11    6.68
 -10  -5  -7   27.50    6.49
  10   5   8  350.39   14.24
 -10  -5  -8  334.25   15.12
 -10  -5  -8  362.98   13.38
  10   5   9  269.96   13.14
 -10  -5  -9  233.06   13.41
  10   5  10   95.68    9.38
  10   5  11  576.16   18.43
  10   6  -4  441.30   16.08
  10   6  -3   35.14    7.16
  10   6  -2  214.11   10.82
 -10  -6   2  234.60   14.90
 -10  -6   1  517.03   19.70
  10   6  -1  524.10   18.16
  10   6  -1  505.05   14.50
  10   6   0    1.11    6.72
 -10  -6   0    6.43    5.95
 -10  -6  -1  360.77   16.10
  10   6   1  352.05   14.57
  10   6   2   43.74    7.75
 -10  -6  -2   28.80    6.42
 -10  -6  -3  356.26   15.18
  10   6   3  357.49   14.44
 -10  -6  -4  783.72   20.65
  10   6   4  752.21   19.56
 -10  -6  -5   81.02    8.06
  10   6   5   73.37    8.06
 -10  -6  -6  486.43   15.68
  10   6   6  473.13   15.59
 -10  -6  -7  828.06   20.62
  10   6   7  885.02   20.72
  10   6   8   38.94    7.21
 -10  -6  -8   50.83    8.38
  10   6   9  286.55   12.80
 -10  -6  -9  282.86   13.92
  10   6  10  582.13   17.65
  10   7  -3  543.77   17.44
  10   7  -2    4.44    6.42
 -10  -7   1  691.70   22.85
  10   7  -1  607.16   16.65
 -10  -7   0  755.42   23.01
  10   7   0  782.97   21.38
  10   7   0  738.02   17.41
  10   7   1    5.47    6.83
 -10  -7  -1    1.49    6.57
 -10  -7  -2  572.26   19.53
  10   7   2  596.74   18.03
 -10  -7  -3  315.22   14.94
  10   7   3  308.26   13.88
  10   7   4    2.58    5.08
 -10  -7  -4    5.93    5.12
 -10  -7  -5  142.79    9.68
  10   7   5  150.25   10.07
  10   7   6   38.64    7.10
 -10  -7  -6   34.53    6.29
 -10  -7  -7  434.17   15.14
 -10  -7  -7  455.07   14.83
  10   7   7  460.28   15.27
  10   7   8  568.13   16.97
 -10  -7  -8  527.55   16.90
  10   7   9    8.33    5.30
 -10  -7  -9    2.85    6.96
 -10  -7 -10  492.84   17.97
  10   8  -2  323.78   14.13
  10   8  -1    4.20    5.67
 -10  -8   0  530.00   20.38
  10   8   0  496.62   15.74
 -10  -8  -1  601.77   20.54
  10   8   1  583.90   18.48
  10   8   2   15.20    7.08
 -10  -8  -2    2.93    7.78
 -10  -8  -3 1051.56   24.87
  10   8   3 1037.54   22.95
 -10  -8  -4  719.37   20.04
  10   8   4  748.44   19.47
  10   8   5    2.20    6.23
 -10  -8  -5    6.61    5.94
 -10  -8  -6  451.26   15.15
  10   8   6  456.88   15.25
 -10  -8  -7  237.09   11.76
 -10  -8  -7  270.69   11.92
  10   8   7  258.27   12.03
  10   8   8    9.61    5.22
 -10  -8  -8   15.30    6.57
 -10  -8  -9  179.93   10.85
  10   8   9  199.22   12.02
 -10  -8 -10   65.76    8.67
  10   9  -1  304.93   14.05
  10   9   0   60.48    8.07
 -10  -9  -1   86.95   10.07
 -10  -9  -2  299.94   15.03
  10   9   2  289.01   13.34
  10   9   3    8.60    6.01
 -10  -9  -3   15.43    6.33
 -10  -9  -4  341.69   14.70
 -10  -9  -4  318.49   13.31
 -10  -9  -5  525.24   17.09
 -10  -9  -5  488.80   16.52
  10   9   5  517.31   16.48
 -10  -9  -6   71.74    8.09
  10   9   6   66.12    8.31
  10   9   7  959.80   22.36
  10   9   8  422.83   16.25
  10   9   9    7.38    5.62
 -10 -10  -3  557.27   19.19
  10  10   3  607.30   18.45
 -10 -10  -4  136.99   10.39
 -10 -10  -4  131.95    9.82
  10  10   4  142.88   10.58
 -10 -10  -5  224.30   12.50
 -10 -10  -5  193.36   11.68
 -10 -10  -6  284.86   14.28
  10  11   3  150.51   11.12
 -10 -11  -5   72.29    8.59
 -11  -3  -4  254.33   14.70
 -11  -3  -5  277.96   15.21
 -11  -3  -6  954.20   24.62
 -11  -3  -7  195.45   12.75
 -11  -3  -8   46.66    7.94
 -11  -4  -2  374.74   17.60
  11   4   2  357.26   16.38
  11   4   3   18.41    7.44
 -11  -4  -3   15.25    8.18
 -11  -4  -4  541.71   19.32
  11   4   4  564.35   19.28
 -11  -4  -5   97.82    9.86
  11   4   5   94.37    9.99
 -11  -4  -6  322.76   15.22
 -11  -4  -7  415.78   16.24
 -11  -4  -8   30.19    6.91
  11   5   1    6.97    7.49
 -11  -5  -1   12.04    7.60
 -11  -5  -2  441.14   18.28
  11   5   2  430.52   17.68
 -11  -5  -3  735.17   22.64
  11   5   3  798.50   22.38
  11   5   4    7.09    8.16
 -11  -5  -4    2.32    7.90
 -11  -5  -5  686.16   21.21
  11   5   5  672.99   20.42
 -11  -5  -6  296.66   14.12
 -11  -5  -6  292.40   14.60
  11   5   6  291.11   14.49
  11   5   7   15.73    7.43
 -11  -5  -7    7.00    6.15
 -11  -5  -8  236.00   12.07
  11   6   2   27.58    8.09
 -11  -6  -2   22.12    7.59
 -11  -6  -3  200.49   13.44
  11   6   3  181.99   12.09
 -11  -6  -4  622.60   20.43
  11   6   4  634.35   19.97
  11   6   5    6.20    7.42
 -11  -6  -5    8.16    6.90
 -11  -6  -6  696.51   20.18
  11   6   6  664.13   19.66
 -11  -6  -7  480.35   16.71
  11   6   7  461.18   17.01
  11   6   8    3.48    5.38
 -11  -7  -2  435.83   18.77
  11   7   2  442.27   17.10
 -11  -7  -3  278.09   15.11
  11   7   3  291.20   14.96
  11   7   4    1.43    6.74
 -11  -7  -4    4.87    7.16
 -11  -7  -5  288.38   14.23
  11   7   5  290.26   14.00
  11   7   6   22.38    7.39
 -11  -7  -6   24.08    7.11
 -11  -7  -7  305.48   14.77
 -11  -7  -7  337.34   14.26
  11   7   7  306.37   14.31
  11   7   8  254.84   13.27
  11   7   9   58.41    8.27
 -11  -8  -3  800.41   23.69
  11   8   3  818.31   22.66
 -11  -8  -4  245.06   14.06
  11   8   4  219.90   13.24
 -11  -8  -5   79.55    9.34
  11   8   5   65.90    8.91
 -11  -8  -6  549.25   18.15
  11   8   6  542.05   17.85
  11   8   7  193.00   11.55
  11   8   8   83.38    8.61
 -11  -9  -4  221.90   12.98
  11   9   4  248.38   13.29
  11   9   5   57.51    8.42
 -11  -9  -5   76.60    9.18
 -11  -9  -6  153.79   11.04
  11   9   6  155.49   11.45
  11   9   8  182.94   12.02
 -11 -10  -5  192.66   11.79
  11  10   5  194.67   12.10
   0   0   0    0.00    0.00
;
_shelx_hkl_checksum              40189
loop_
_space_group_symop_operation_xyz
'x, y, z'
'-x, -y, -z'
loop_
_atom_site_label
_atom_site_type_symbol
_atom_site_fract_x
_atom_site_fract_y
_atom_site_fract_z
_atom_site_U_iso_or_equiv
_atom_site_adp_type
_atom_site_occupancy
_atom_site_site_symmetry_order
_atom_site_calc_flag
_atom_site_refinement_flags_posn
_atom_site_refinement_flags_adp
Sn1 Sn 0.04881(2) 0.79971(2) 0.17963(2) 0.01351(6) Uani 1 1 d . .
Si1 Si 0.07091(7) 1.17840(6) 0.10167(5) 0.01630(12) Uani 1 1 d . .
O1 O 0.10690(18) 0.98717(16) 0.10926(13) 0.0218(3) Uani 1 1 d . .
C1 C -0.0691(2) 1.3119(2) -0.01832(18) 0.0190(4) Uani 1 1 d . .
H1A H -0.0432 1.4086 -0.0507 0.023 Uiso 1 1 calc R U
H1B H -0.1916 1.3564 0.0266 0.023 Uiso 1 1 calc R U
C2 C -0.0353(3) 1.2658(3) 0.25903(19) 0.0291(5) Uani 1 1 d . .
H2A H 0.0359 1.1947 0.3236 0.044 Uiso 1 1 calc R U
H2B H -0.1508 1.2692 0.2848 0.044 Uiso 1 1 calc R U
H2C H -0.0466 1.3792 0.2514 0.044 Uiso 1 1 calc R U
C3 C 0.2828(3) 1.1864(3) 0.0583(2) 0.0277(5) Uani 1 1 d . .
H3A H 0.3461 1.1383 -0.0228 0.042 Uiso 1 1 calc R U
H3B H 0.3514 1.1222 0.1256 0.042 Uiso 1 1 calc R U
H3C H 0.2629 1.3030 0.0491 0.042 Uiso 1 1 calc R U
C11 C 0.2647(2) 0.6380(2) 0.27874(18) 0.0197(4) Uani 1 1 d . .
C12 C 0.2797(3) 0.7366(3) 0.3675(2) 0.0348(5) Uani 1 1 d . .
H12A H 0.2963 0.8322 0.3178 0.052 Uiso 1 1 calc R U
H12B H 0.1732 0.7770 0.4320 0.052 Uiso 1 1 calc R U
H12C H 0.3793 0.6644 0.4101 0.052 Uiso 1 1 calc R U
C13 C 0.2389(3) 0.4894(3) 0.3531(2) 0.0366(6) Uani 1 1 d . .
H13A H 0.1324 0.5286 0.4177 0.055 Uiso 1 1 calc R U
H13B H 0.2291 0.4275 0.2945 0.055 Uiso 1 1 calc R U
H13C H 0.3386 0.4158 0.3953 0.055 Uiso 1 1 calc R U
C14 C 0.4295(3) 0.5772(3) 0.1787(2) 0.0353(5) Uani 1 1 d . .
H14A H 0.4462 0.6734 0.1306 0.053 Uiso 1 1 calc R U
H14B H 0.5292 0.5036 0.2209 0.053 Uiso 1 1 calc R U
H14C H 0.4197 0.5154 0.1201 0.053 Uiso 1 1 calc R U
C21 C -0.2100(2) 0.8962(2) 0.29661(18) 0.0208(4) Uani 1 1 d . .
C22 C -0.2044(3) 0.9221(3) 0.4291(2) 0.0323(5) Uani 1 1 d . .
H22A H -0.1276 0.8156 0.4708 0.048 Uiso 1 1 calc R U
H22B H -0.1601 1.0042 0.4209 0.048 Uiso 1 1 calc R U
H22C H -0.3218 0.9631 0.4806 0.048 Uiso 1 1 calc R U
C23 C -0.3288(3) 1.0608(3) 0.2305(2) 0.0291(5) Uani 1 1 d . .
H23A H -0.3316 1.0429 0.1455 0.044 Uiso 1 1 calc R U
H23B H -0.4465 1.1021 0.2816 0.044 Uiso 1 1 calc R U
H23C H -0.2849 1.1432 0.2219 0.044 Uiso 1 1 calc R U
C24 C -0.2775(3) 0.7667(3) 0.3101(2) 0.0304(5) Uani 1 1 d . .
H24A H -0.2006 0.6611 0.3527 0.046 Uiso 1 1 calc R U
H24B H -0.3952 0.8076 0.3612 0.046 Uiso 1 1 calc R U
H24C H -0.2800 0.7485 0.2252 0.046 Uiso 1 1 calc R U
loop_
_atom_site_aniso_label
_atom_site_aniso_U_11
_atom_site_aniso_U_22
_atom_site_aniso_U_33
_atom_site_aniso_U_23
_atom_site_aniso_U_13
_atom_site_aniso_U_12
Sn1 0.01380(8) 0.01293(9) 0.01309(8) -0.00106(5) -0.00358(5) -0.00496(6)
Si1 0.0199(3) 0.0145(3) 0.0169(3) -0.0016(2) -0.0066(2) -0.0080(2)
O1 0.0276(7) 0.0163(7) 0.0246(7) 0.0006(5) -0.0084(6) -0.0116(6)
C1 0.0214(10) 0.0154(9) 0.0192(9) -0.0036(7) -0.0061(8) -0.0056(8)
C2 0.0366(12) 0.0318(12) 0.0231(11) -0.0083(9) -0.0084(9) -0.0149(10)
C3 0.0249(11) 0.0252(11) 0.0380(12) -0.0078(9) -0.0078(9) -0.0123(9)
C11 0.0163(9) 0.0212(10) 0.0189(10) 0.0015(8) -0.0070(8) -0.0057(8)
C12 0.0302(12) 0.0404(14) 0.0369(13) -0.0093(10) -0.0185(10) -0.0101(10)
C13 0.0363(13) 0.0335(13) 0.0384(13) 0.0159(10) -0.0198(11) -0.0158(11)
C14 0.0199(11) 0.0439(14) 0.0292(12) -0.0029(10) -0.0048(9) -0.0043(10)
C21 0.0170(9) 0.0248(11) 0.0198(10) -0.0055(8) -0.0020(8) -0.0082(8)
C22 0.0265(11) 0.0457(14) 0.0213(11) -0.0136(10) 0.0017(9) -0.0124(10)
C23 0.0198(10) 0.0274(12) 0.0345(12) -0.0084(9) -0.0059(9) -0.0035(9)
C24 0.0260(11) 0.0358(13) 0.0316(12) -0.0045(10) 0.0022(9) -0.0187(10)
loop_
_atom_type_symbol
_atom_type_description
_atom_type_scat_dispersion_real
_atom_type_scat_dispersion_imag
_atom_type_scat_source
C C 0.0033 0.0016 'International Tables Vol C Tables 4.2.6.8 and 6.1.1.4'
H H 0.0000 0.0000 'International Tables Vol C Tables 4.2.6.8 and 6.1.1.4'
O O 0.0106 0.0060 'International Tables Vol C Tables 4.2.6.8 and 6.1.1.4'
Si Si 0.0817 0.0704 'International Tables Vol C Tables 4.2.6.8 and 6.1.1.4'
Sn Sn -0.6537 1.4246 'International Tables Vol C Tables 4.2.6.8 and 6.1.1.4'
loop_
_geom_angle_atom_site_label_1
_geom_angle_atom_site_label_2
_geom_angle_atom_site_label_3
_geom_angle
_geom_angle_site_symmetry_1
_geom_angle_site_symmetry_3
O1 Sn1 C1 105.84(7) . 2_575
O1 Sn1 C11 100.41(6) . .
C1 Sn1 C11 110.11(7) 2_575 .
O1 Sn1 C21 108.75(7) . .
C1 Sn1 C21 113.55(7) 2_575 .
C11 Sn1 C21 116.80(7) . .
O1 Si1 C3 108.46(9) . .
O1 Si1 C1 110.58(7) . .
C3 Si1 C1 110.56(9) . .
O1 Si1 C2 112.36(9) . .
C3 Si1 C2 106.05(10) . .
C1 Si1 C2 108.74(9) . .
Si1 O1 Sn1 152.28(9) . .
Si1 C1 Sn1 117.91(9) . 2_575
Si1 C1 H1A 107.8 . .
Sn1 C1 H1A 107.8 2_575 .
Si1 C1 H1B 107.8 . .
Sn1 C1 H1B 107.8 2_575 .
H1A C1 H1B 107.2 . .
Si1 C2 H2A 109.5 . .
Si1 C2 H2B 109.5 . .
H2A C2 H2B 109.5 . .
Si1 C2 H2C 109.5 . .
H2A C2 H2C 109.5 . .
H2B C2 H2C 109.5 . .
Si1 C3 H3A 109.5 . .
Si1 C3 H3B 109.5 . .
H3A C3 H3B 109.5 . .
Si1 C3 H3C 109.5 . .
H3A C3 H3C 109.5 . .
H3B C3 H3C 109.5 . .
C13 C11 C14 109.49(18) . .
C13 C11 C12 110.59(18) . .
C14 C11 C12 109.08(18) . .
C13 C11 Sn1 110.22(13) . .
C14 C11 Sn1 107.76(13) . .
C12 C11 Sn1 109.66(13) . .
C11 C12 H12A 109.5 . .
C11 C12 H12B 109.5 . .
H12A C12 H12B 109.5 . .
C11 C12 H12C 109.5 . .
H12A C12 H12C 109.5 . .
H12B C12 H12C 109.5 . .
C11 C13 H13A 109.5 . .
C11 C13 H13B 109.5 . .
H13A C13 H13B 109.5 . .
C11 C13 H13C 109.5 . .
H13A C13 H13C 109.5 . .
H13B C13 H13C 109.5 . .
C11 C14 H14A 109.5 . .
C11 C14 H14B 109.5 . .
H14A C14 H14B 109.5 . .
C11 C14 H14C 109.5 . .
H14A C14 H14C 109.5 . .
H14B C14 H14C 109.5 . .
C23 C21 C22 110.08(17) . .
C23 C21 C24 109.80(17) . .
C22 C21 C24 109.10(18) . .
C23 C21 Sn1 109.43(13) . .
C22 C21 Sn1 110.91(13) . .
C24 C21 Sn1 107.48(13) . .
C21 C22 H22A 109.5 . .
C21 C22 H22B 109.5 . .
H22A C22 H22B 109.5 . .
C21 C22 H22C 109.5 . .
H22A C22 H22C 109.5 . .
H22B C22 H22C 109.5 . .
C21 C23 H23A 109.5 . .
C21 C23 H23B 109.5 . .
H23A C23 H23B 109.5 . .
C21 C23 H23C 109.5 . .
H23A C23 H23C 109.5 . .
H23B C23 H23C 109.5 . .
C21 C24 H24A 109.5 . .
C21 C24 H24B 109.5 . .
H24A C24 H24B 109.5 . .
C21 C24 H24C 109.5 . .
H24A C24 H24C 109.5 . .
H24B C24 H24C 109.5 . .
loop_
_geom_bond_atom_site_label_1
_geom_bond_atom_site_label_2
_geom_bond_distance
_geom_bond_site_symmetry_2
Sn1 O1 1.9687(13) .
Sn1 C1 2.1359(17) 2_575
Sn1 C11 2.1741(18) .
Sn1 C21 2.1750(19) .
Si1 O1 1.6072(13) .
Si1 C3 1.855(2) .
Si1 C1 1.8606(19) .
Si1 C2 1.867(2) .
C1 Sn1 2.1358(17) 2_575
C1 H1A 0.9900 .
C1 H1B 0.9900 .
C2 H2A 0.9800 .
C2 H2B 0.9800 .
C2 H2C 0.9800 .
C3 H3A 0.9800 .
C3 H3B 0.9800 .
C3 H3C 0.9800 .
C11 C13 1.513(3) .
C11 C14 1.517(3) .
C11 C12 1.520(3) .
C12 H12A 0.9800 .
C12 H12B 0.9800 .
C12 H12C 0.9800 .
C13 H13A 0.9800 .
C13 H13B 0.9800 .
C13 H13C 0.9800 .
C14 H14A 0.9800 .
C14 H14B 0.9800 .
C14 H14C 0.9800 .
C21 C23 1.523(3) .
C21 C22 1.525(3) .
C21 C24 1.529(3) .
C22 H22A 0.9800 .
C22 H22B 0.9800 .
C22 H22C 0.9800 .
C23 H23A 0.9800 .
C23 H23B 0.9800 .
C23 H23C 0.9800 .
C24 H24A 0.9800 .
C24 H24B 0.9800 .
C24 H24C 0.9800 .
loop_
_geom_torsion_atom_site_label_1
_geom_torsion_atom_site_label_2
_geom_torsion_atom_site_label_3
_geom_torsion_atom_site_label_4
_geom_torsion
_geom_torsion_site_symmetry_4
C3 Si1 O1 Sn1 148.72(17) .
C1 Si1 O1 Sn1 -89.89(18) .
C2 Si1 O1 Sn1 31.8(2) .
O1 Si1 C1 Sn1 -30.85(13) 2_575
C3 Si1 C1 Sn1 89.28(12) 2_575
C2 Si1 C1 Sn1 -154.67(11) 2_575
