#------------------------------------------------------------------------------
#$Date: 2019-11-24 06:51:59 +0200 (Sun, 24 Nov 2019) $
#$Revision: 237013 $
#$URL: file:///home/coder/svn-repositories/cod/cif/4/08/78/4087811.cif $
#------------------------------------------------------------------------------
#
# This file is available in the Crystallography Open Database (COD),
# http://www.crystallography.net/
#
# All data on this site have been placed in the public domain by the
# contributors.
#
data_4087811
loop_
_publ_author_name
'Milani, Jessica'
'Pridmore, Natalie E.'
'Whitwood, Adrian C.'
'Fairlamb, Ian J. S.'
'Perutz, Robin N.'
_publ_section_title
;
 The Role of Fluorine Substituents in the Regioselectivity of
 Intramolecular C--H Bond Functionalization of Benzylamines at
 Palladium(II)
;
_journal_issue                   17
_journal_name_full               Organometallics
_journal_page_first              4376
_journal_paper_doi               10.1021/acs.organomet.5b00608
_journal_volume                  34
_journal_year                    2015
_chemical_formula_moiety         'C18 H22 Cl2 F2 N2 Pd2'
_chemical_formula_sum            'C18 H22 Cl2 F2 N2 Pd2'
_chemical_formula_weight         588.07
_space_group_crystal_system      triclinic
_space_group_IT_number           2
_space_group_name_Hall           '-P 1'
_space_group_name_H-M_alt        'P -1'
_atom_sites_solution_hydrogens   geom
_atom_sites_solution_primary     iterative
_audit_creation_date             2015-01-16
_audit_creation_method
;
Olex2 1.2
(compiled 2015.01.06 svn.r3119 for OlexSys, GUI svn.r4979)
;
_cell_angle_alpha                70.599(9)
_cell_angle_beta                 72.092(9)
_cell_angle_gamma                80.881(8)
_cell_formula_units_Z            1
_cell_length_a                   7.1636(7)
_cell_length_b                   8.0381(8)
_cell_length_c                   9.4603(9)
_cell_measurement_reflns_used    2736
_cell_measurement_temperature    110.05(10)
_cell_measurement_theta_max      31.9560
_cell_measurement_theta_min      4.1400
_cell_volume                     487.95(9)
_computing_cell_refinement
;
CrysAlisPro, Agilent Technologies,
Version 1.171.37.33 (release 27-03-2014 CrysAlis171 .NET)
(compiled Mar 27 2014,17:12:48)
;
_computing_data_collection
;
CrysAlisPro, Agilent Technologies,
Version 1.171.37.33 (release 27-03-2014 CrysAlis171 .NET)
(compiled Mar 27 2014,17:12:48)
;
_computing_data_reduction
;
CrysAlisPro, Agilent Technologies,
Version 1.171.37.33 (release 27-03-2014 CrysAlis171 .NET)
(compiled Mar 27 2014,17:12:48)
;
_computing_molecular_graphics    'Olex2 (Dolomanov et al., 2009)'
_computing_publication_material  'Olex2 (Dolomanov et al., 2009)'
_computing_structure_refinement  'ShelXL (Sheldrick, 2008)'
_computing_structure_solution
;
Superflip (Palatinus & Chapuis, 2007;Palatinus & van der Lee, 2008;
Palatinus et al., 2012)
;
_diffrn_ambient_environment      N~2~
_diffrn_ambient_temperature      110.05(10)
_diffrn_detector                 'CCD plate'
_diffrn_detector_area_resol_mean 16.1450
_diffrn_detector_type            Eos
_diffrn_measured_fraction_theta_full 0.990
_diffrn_measured_fraction_theta_max 0.888
_diffrn_measurement_details
;
#__ type_ start__ end____ width___ exp.time_
  1 omega  -20.00   57.00   1.0000    1.5000
omega____ theta____ kappa____ phi______ frames
    -       25.4797  -99.0000   60.0000 77

#__ type_ start__ end____ width___ exp.time_
  2 omega   11.00   69.00   1.0000    1.5000
omega____ theta____ kappa____ phi______ frames
    -       25.4797 -103.0000  160.0000 58

#__ type_ start__ end____ width___ exp.time_
  3 omega  -34.00   87.00   1.0000    1.5000
omega____ theta____ kappa____ phi______ frames
    -       25.4797    0.0000 -150.0000 121

#__ type_ start__ end____ width___ exp.time_
  4 omega  -39.00   39.00   1.0000    1.5000
omega____ theta____ kappa____ phi______ frames
    -       25.4797  -57.0000 -180.0000 78

#__ type_ start__ end____ width___ exp.time_
  5 omega  -69.00   -9.00   1.0000    1.5000
omega____ theta____ kappa____ phi______ frames
    -      -26.1047  103.0000  -97.0000 60

#__ type_ start__ end____ width___ exp.time_
  6 omega  -95.00  -58.00   1.0000    1.5000
omega____ theta____ kappa____ phi______ frames
    -      -26.1047 -178.0000  -90.0000 37
;
_diffrn_measurement_device       'four-circle diffractometer'
_diffrn_measurement_device_type  'SuperNova, Dual, Cu at zero, Eos'
_diffrn_measurement_method       '\w scans'
_diffrn_orient_matrix_UB_11      -0.0218815000
_diffrn_orient_matrix_UB_12      0.0277042000
_diffrn_orient_matrix_UB_13      0.0674459000
_diffrn_orient_matrix_UB_21      -0.0641266000
_diffrn_orient_matrix_UB_22      -0.0695682000
_diffrn_orient_matrix_UB_23      0.0419566000
_diffrn_orient_matrix_UB_31      0.0792436000
_diffrn_orient_matrix_UB_32      -0.0563893000
_diffrn_orient_matrix_UB_33      0.0228208000
_diffrn_radiation_monochromator  mirror
_diffrn_radiation_probe          x-ray
_diffrn_radiation_type           MoK\a
_diffrn_radiation_wavelength     0.71073
_diffrn_reflns_av_R_equivalents  0.0234
_diffrn_reflns_av_unetI/netI     0.0455
_diffrn_reflns_Laue_measured_fraction_full 0.990
_diffrn_reflns_Laue_measured_fraction_max 0.888
_diffrn_reflns_limit_h_max       10
_diffrn_reflns_limit_h_min       -5
_diffrn_reflns_limit_k_max       12
_diffrn_reflns_limit_k_min       -11
_diffrn_reflns_limit_l_max       14
_diffrn_reflns_limit_l_min       -13
_diffrn_reflns_number            5092
_diffrn_reflns_point_group_measured_fraction_full 0.990
_diffrn_reflns_point_group_measured_fraction_max 0.888
_diffrn_reflns_theta_full        25.242
_diffrn_reflns_theta_max         32.140
_diffrn_reflns_theta_min         3.273
_diffrn_source                   'SuperNova (Mo) X-ray Source'
_exptl_absorpt_coefficient_mu    2.139
_exptl_absorpt_correction_T_max  0.834
_exptl_absorpt_correction_T_min  0.737
_exptl_absorpt_correction_type   analytical
_exptl_absorpt_process_details
;
CrysAlisPro, Agilent Technologies,
Version 1.171.37.33 (release 27-03-2014 CrysAlis171 .NET)
(compiled Mar 27 2014,17:12:48)
Analytical numeric absorption correction using a multifaceted crystal
			model based on expressions derived by R.C. Clark & J.S. Reid.
(Clark, R. C. & Reid, J. S. (1995). Acta Cryst. A51, 887-897)
Empirical absorption correction using spherical harmonics,
 implemented in SCALE3 ABSPACK scaling algorithm.
;
_exptl_crystal_colour            'clear light yellow'
_exptl_crystal_colour_lustre     clear
_exptl_crystal_colour_modifier   light
_exptl_crystal_colour_primary    yellow
_exptl_crystal_density_diffrn    2.001
_exptl_crystal_description       irregular
_exptl_crystal_F_000             288
_exptl_crystal_size_max          0.23
_exptl_crystal_size_mid          0.1067
_exptl_crystal_size_min          0.0992
_refine_diff_density_max         0.640
_refine_diff_density_min         -0.922
_refine_diff_density_rms         0.137
_refine_ls_extinction_method     none
_refine_ls_goodness_of_fit_ref   1.051
_refine_ls_hydrogen_treatment    constr
_refine_ls_matrix_type           full
_refine_ls_number_parameters     120
_refine_ls_number_reflns         3033
_refine_ls_number_restraints     0
_refine_ls_restrained_S_all      1.051
_refine_ls_R_factor_all          0.0296
_refine_ls_R_factor_gt           0.0257
_refine_ls_shift/su_max          0.001
_refine_ls_shift/su_mean         0.000
_refine_ls_structure_factor_coef Fsqd
_refine_ls_weighting_details
'w=1/[\s^2^(Fo^2^)+(0.0186P)^2^] where P=(Fo^2^+2Fc^2^)/3'
_refine_ls_weighting_scheme      calc
_refine_ls_wR_factor_gt          0.0522
_refine_ls_wR_factor_ref         0.0557
_reflns_Friedel_coverage         0.000
_reflns_number_gt                2791
_reflns_number_total             3033
_reflns_threshold_expression     'I > 2\s(I)'
_iucr_refine_instructions_details
;
TITL rnp1501 in P1
CELL 0.71073 7.163572 8.038119 9.460332 70.5993 72.0918 80.8812
ZERR 1 0.000743 0.000769 0.000894 0.0087 0.0091 0.0083
LATT 1
SFAC C H Cl F N Pd
UNIT 18 22 2 2 2 2
 
L.S. 8
PLAN  25
MORE -1
BOND $H
CONF
fmap 2 53
acta
OMIT 4 5 2
REM <olex2.extras>
REM <HklSrc "%.\\rnp1501.hkl">
REM </olex2.extras>
 
WGHT    0.018600
FVAR       6.10094
C1    1    0.184659   -0.138898    0.826435    11.00000    0.00983    0.01230 =
         0.00885   -0.00263   -0.00202   -0.00010
C2    1    0.188205   -0.323527    0.883248    11.00000    0.01280    0.01209 =
         0.01386   -0.00386   -0.00430    0.00021
AFIX  43
H2    2    0.150661   -0.386846    0.831217    11.00000   -1.20000
AFIX   0
C3    1    0.247683   -0.412611    1.017243    11.00000    0.01525    0.01101 =
         0.01461   -0.00037   -0.00369    0.00241
AFIX  43
H3    2    0.251215   -0.535331    1.055075    11.00000   -1.20000
AFIX   0
C4    1    0.301046   -0.316420    1.092657    11.00000    0.01073    0.01900 =
         0.01053    0.00070   -0.00474   -0.00055
C5    1    0.299700   -0.134202    1.041965    11.00000    0.01127    0.01743 =
         0.01000   -0.00459   -0.00446   -0.00359
AFIX  43
H5    2    0.335315   -0.072659    1.096390    11.00000   -1.20000
AFIX   0
C6    1    0.242732   -0.045618    0.905623    11.00000    0.00647    0.01300 =
         0.00900   -0.00112   -0.00142   -0.00095
C7    1    0.234045    0.150911    0.838356    11.00000    0.01095    0.01206 =
         0.00899   -0.00431   -0.00251   -0.00382
AFIX  23
H7A   2    0.335318    0.199273    0.858841    11.00000   -1.20000
H7B   2    0.107198    0.201145    0.885345    11.00000   -1.20000
AFIX   0
C8    1    0.478032    0.173729    0.588414    11.00000    0.01142    0.01948 =
         0.01404   -0.00768   -0.00027   -0.00411
AFIX 137
H8A   2    0.526934    0.055442    0.632518    11.00000   -1.50000
H8B   2    0.548140    0.256145    0.603273    11.00000   -1.50000
H8C   2    0.496509    0.195783    0.479002    11.00000   -1.50000
AFIX   0
C9    1    0.196017    0.381449    0.604600    11.00000    0.02058    0.00947 =
         0.01497   -0.00205   -0.00756   -0.00154
AFIX 137
H9A   2    0.219057    0.411239    0.493863    11.00000   -1.50000
H9B   2    0.266386    0.457191    0.627300    11.00000   -1.50000
H9C   2    0.057920    0.396760    0.652412    11.00000   -1.50000
AFIX   0
CL1   3    0.050359    0.199751    0.387433    11.00000    0.02499    0.01158 =
         0.01533    0.00059   -0.01298   -0.00609
F1    4    0.359355   -0.404684    1.224053    11.00000    0.02645    0.02069 =
         0.01568    0.00208   -0.01340   -0.00374
N1    5    0.264914    0.195145    0.666614    11.00000    0.00982    0.01062 =
         0.00908   -0.00314   -0.00206   -0.00123
PD1   6    0.116116    0.013459    0.635158    11.00000    0.01030    0.00870 =
         0.00850   -0.00214   -0.00412   -0.00118
HKLF 4
 
REM  rnp1501 in P1
REM R1 =  0.0257 for    2791 Fo > 4sig(Fo)  and  0.0296 for all    3033 data
REM    120 parameters refined using      0 restraints
 
END  
     
WGHT      0.0186      0.0000 

REM Highest difference peak  0.640,  deepest hole -0.922,  1-sigma level  0.137
Q1    1   0.1958 -0.4196  0.8161  11.00000  0.05    0.64
Q2    1   0.6994  0.1830  0.4152  11.00000  0.05    0.48
Q3    1   0.2611  0.2090  0.8648  11.00000  0.05    0.47
Q4    1  -0.0077  0.2237  0.9423  11.00000  0.05    0.47
Q5    1   0.6487  0.2034  0.5866  11.00000  0.05    0.46
Q6    1   0.3186 -0.3385  1.1240  11.00000  0.05    0.46
Q7    1   0.4097 -0.4331  0.8235  11.00000  0.05    0.45
Q8    1   0.7405  0.2008  0.5038  11.00000  0.05    0.45
Q9    1   0.1586  0.2348  0.1709  11.00000  0.05    0.45
Q10   1   0.0370  0.1371  0.6638  11.00000  0.05    0.45
Q11   1   0.4401 -0.2947  0.9182  11.00000  0.05    0.45
Q12   1   0.4801  0.1168  0.5415  11.00000  0.05    0.45
Q13   1   0.1850  0.6789  0.5460  11.00000  0.05    0.45
Q14   1   0.1253 -0.4415  0.8390  11.00000  0.05    0.43
Q15   1   0.3963 -0.5043  1.0204  11.00000  0.05    0.43
Q16   1  -0.1229  0.2049  0.3835  11.00000  0.05    0.42
Q17   1   0.6093  0.0158  0.7744  11.00000  0.05    0.42
Q18   1   0.2955  0.6167  0.6154  11.00000  0.05    0.42
Q19   1   0.0386  0.2062  0.8430  11.00000  0.05    0.42
Q20   1   0.2533 -0.3294  1.0363  11.00000  0.05    0.41
Q21   1   0.7316 -0.0392  0.6361  11.00000  0.05    0.41
Q22   1   0.4499 -0.6140  1.0486  11.00000  0.05    0.41
Q23   1  -0.0365  0.3227  0.7866  11.00000  0.05    0.41
Q24   1   0.2415  0.1592  0.7656  11.00000  0.05    0.41
Q25   1  -0.0004  0.0756  0.8857  11.00000  0.05    0.41

REM The information below was added by Olex2.
REM
REM R1 = 0.0257 for 2791 Fo > 4sig(Fo) and 0.0296 for all 5093 data
REM n/a parameters refined using n/a restraints
REM Highest difference peak 0.64, deepest hole -0.92
REM Mean Shift 0, Max Shift -0.001.

REM +++ Tabular Listing of Refinement Information +++
REM R1_all = 0.0296
REM R1_gt = 0.0257
REM wR_ref = 0.0557
REM GOOF = 1.051
REM Shift_max = -0.001
REM Shift_mean = 0
REM Reflections_all = 5093
REM Reflections_gt = 2791
REM Parameters = n/a
REM Hole = -0.92
REM Peak = 0.64
REM Flack = n/a

;
_cod_data_source_file            om5b00608_si_002.cif
_cod_data_source_block           3c6_rnp1501
_cod_database_code               4087811
_shelxl_version_number           2013-4
_chemical_oxdiff_formula         'C18 H22 Cl2 F2 N2 Pd2'
_chemical_oxdiff_usercomment     'Jess Milani JM-C-254'
_shelx_space_group_comment
;
The symmetry employed for this shelxl refinement is uniquely defined
by the following loop, which should always be used as a source of
symmetry information in preference to the above space-group names.
They are only intended as comments.
;
_reflns_odcompleteness_completeness 99.10
_reflns_odcompleteness_iscentric 1
_reflns_odcompleteness_theta     26.32
_olex2_refinement_description
;
1. Fixed Uiso
 At 1.2 times of:
  All C(H) groups, All C(H,H) groups
 At 1.5 times of:
  All C(H,H,H) groups
2.a Secondary CH2 refined with riding coordinates:
 C7(H7A,H7B)
2.b Aromatic/amide H refined with riding coordinates:
 C2(H2), C3(H3), C5(H5)
2.c Idealised Me refined as rotating group:
 C8(H8A,H8B,H8C), C9(H9A,H9B,H9C)
;
_olex2_date_sample_data_collection 2015-01-09
_olex2_exptl_crystal_mounting_method 'oil on loop'
_olex2_submission_special_instructions 'No special instructions were received'
loop_
_space_group_symop_operation_xyz
'x, y, z'
'-x, -y, -z'
loop_
_atom_site_label
_atom_site_type_symbol
_atom_site_fract_x
_atom_site_fract_y
_atom_site_fract_z
_atom_site_U_iso_or_equiv
_atom_site_adp_type
_atom_site_occupancy
_atom_site_site_symmetry_order
_atom_site_calc_flag
_atom_site_refinement_flags_posn
C1 C 0.1847(3) -0.1389(3) 0.8264(2) 0.0107(4) Uani 1 1 d .
C2 C 0.1882(3) -0.3235(3) 0.8832(3) 0.0129(4) Uani 1 1 d .
H2 H 0.1507 -0.3868 0.8312 0.015 Uiso 1 1 calc R
C3 C 0.2477(3) -0.4126(3) 1.0172(3) 0.0150(5) Uani 1 1 d .
H3 H 0.2512 -0.5353 1.0551 0.018 Uiso 1 1 calc R
C4 C 0.3010(3) -0.3164(3) 1.0927(3) 0.0144(5) Uani 1 1 d .
C5 C 0.2997(3) -0.1342(3) 1.0420(2) 0.0121(4) Uani 1 1 d .
H5 H 0.3353 -0.0727 1.0964 0.015 Uiso 1 1 calc R
C6 C 0.2427(3) -0.0456(3) 0.9056(2) 0.0102(4) Uani 1 1 d .
C7 C 0.2340(3) 0.1509(3) 0.8384(2) 0.0101(4) Uani 1 1 d .
H7A H 0.3353 0.1993 0.8588 0.012 Uiso 1 1 calc R
H7B H 0.1072 0.2011 0.8853 0.012 Uiso 1 1 calc R
C8 C 0.4780(3) 0.1737(3) 0.5884(3) 0.0147(5) Uani 1 1 d .
H8A H 0.5269 0.0554 0.6325 0.022 Uiso 1 1 calc GR
H8B H 0.5481 0.2561 0.6033 0.022 Uiso 1 1 calc GR
H8C H 0.4965 0.1958 0.4790 0.022 Uiso 1 1 calc GR
C9 C 0.1960(3) 0.3814(3) 0.6046(3) 0.0147(5) Uani 1 1 d .
H9A H 0.2191 0.4112 0.4939 0.022 Uiso 1 1 calc GR
H9B H 0.2664 0.4572 0.6273 0.022 Uiso 1 1 calc GR
H9C H 0.0579 0.3968 0.6524 0.022 Uiso 1 1 calc GR
Cl1 Cl 0.05036(9) 0.19975(7) 0.38743(7) 0.01615(12) Uani 1 1 d .
F1 F 0.3594(2) -0.40468(19) 1.22405(16) 0.0208(3) Uani 1 1 d .
N1 N 0.2649(3) 0.1951(2) 0.6666(2) 0.0098(4) Uani 1 1 d .
Pd1 Pd 0.11612(2) 0.01346(2) 0.63516(2) 0.00885(5) Uani 1 1 d .
loop_
_atom_site_aniso_label
_atom_site_aniso_U_11
_atom_site_aniso_U_22
_atom_site_aniso_U_33
_atom_site_aniso_U_23
_atom_site_aniso_U_13
_atom_site_aniso_U_12
C1 0.0098(10) 0.0123(10) 0.0088(10) -0.0026(8) -0.0020(8) -0.0001(8)
C2 0.0128(10) 0.0121(11) 0.0139(11) -0.0039(8) -0.0043(8) 0.0002(8)
C3 0.0153(11) 0.0110(11) 0.0146(11) -0.0004(8) -0.0037(9) 0.0024(9)
C4 0.0107(10) 0.0190(12) 0.0105(10) 0.0007(8) -0.0047(8) -0.0005(9)
C5 0.0113(10) 0.0174(11) 0.0100(10) -0.0046(8) -0.0045(8) -0.0036(8)
C6 0.0065(9) 0.0130(11) 0.0090(10) -0.0011(8) -0.0014(8) -0.0010(8)
C7 0.0110(10) 0.0121(10) 0.0090(10) -0.0043(8) -0.0025(8) -0.0038(8)
C8 0.0114(10) 0.0195(12) 0.0140(11) -0.0077(9) -0.0003(8) -0.0041(9)
C9 0.0206(12) 0.0095(10) 0.0150(11) -0.0021(8) -0.0076(9) -0.0015(9)
Cl1 0.0250(3) 0.0116(3) 0.0153(3) 0.0006(2) -0.0130(2) -0.0061(2)
F1 0.0265(8) 0.0207(8) 0.0157(7) 0.0021(6) -0.0134(6) -0.0037(6)
N1 0.0098(8) 0.0106(9) 0.0091(9) -0.0031(7) -0.0021(7) -0.0012(7)
Pd1 0.01030(9) 0.00870(9) 0.00850(9) -0.00214(6) -0.00412(6) -0.00118(6)
loop_
_atom_type_symbol
_atom_type_description
_atom_type_scat_dispersion_real
_atom_type_scat_dispersion_imag
_atom_type_scat_source
C C 0.0033 0.0016 'International Tables Vol C Tables 4.2.6.8 and 6.1.1.4'
H H 0.0000 0.0000 'International Tables Vol C Tables 4.2.6.8 and 6.1.1.4'
Cl Cl 0.1484 0.1585 'International Tables Vol C Tables 4.2.6.8 and 6.1.1.4'
F F 0.0171 0.0103 'International Tables Vol C Tables 4.2.6.8 and 6.1.1.4'
N N 0.0061 0.0033 'International Tables Vol C Tables 4.2.6.8 and 6.1.1.4'
Pd Pd -0.9988 1.0072 'International Tables Vol C Tables 4.2.6.8 and 6.1.1.4'
loop_
_exptl_crystal_face_index_h
_exptl_crystal_face_index_k
_exptl_crystal_face_index_l
_exptl_crystal_face_perp_dist
_exptl_oxdiff_crystal_face_indexfrac_h
_exptl_oxdiff_crystal_face_indexfrac_k
_exptl_oxdiff_crystal_face_indexfrac_l
_exptl_oxdiff_crystal_face_x
_exptl_oxdiff_crystal_face_y
_exptl_oxdiff_crystal_face_z
8 -4 -4 0.0534 8.0000 -4.0000 -4.0000 -0.5557 -0.4026 0.7682
-8 4 4 0.0534 -8.0000 4.0000 4.0000 0.5557 0.4026 -0.7682
2 1 1 0.0707 2.0000 1.0000 1.0000 0.0514 -0.1559 0.1249
-2 -1 -1 0.0547 -2.0000 -1.0000 -1.0000 -0.0514 0.1559 -0.1249
-3 3 -11 0.1042 -3.0000 3.0000 -11.0000 -0.5931 -0.4778 -0.6579
-1 -10 2 0.0810 -1.0000 -10.0000 2.0000 -0.1203 0.8437 0.5303
6 9 11 0.0521 6.0000 9.0000 11.0000 0.8600 -0.5494 0.2190
-6 -9 -11 0.0471 -6.0000 -9.0000 -11.0000 -0.8600 0.5494 -0.2190
1 10 -2 0.0897 1.0000 10.0000 -2.0000 0.1203 -0.8437 -0.5303
loop_
_geom_angle_atom_site_label_1
_geom_angle_atom_site_label_2
_geom_angle_atom_site_label_3
_geom_angle
_geom_angle_site_symmetry_1
_geom_angle_site_symmetry_3
C2 C1 C6 119.2(2) . .
C2 C1 Pd1 127.10(18) . .
C6 C1 Pd1 113.67(16) . .
C1 C2 H2 119.9 . .
C3 C2 C1 120.2(2) . .
C3 C2 H2 119.9 . .
C2 C3 H3 120.6 . .
C4 C3 C2 118.9(2) . .
C4 C3 H3 120.6 . .
C3 C4 C5 123.3(2) . .
F1 C4 C3 118.6(2) . .
F1 C4 C5 118.1(2) . .
C4 C5 H5 121.2 . .
C4 C5 C6 117.5(2) . .
C6 C5 H5 121.2 . .
C1 C6 C7 116.03(19) . .
C5 C6 C1 120.9(2) . .
C5 C6 C7 123.0(2) . .
C6 C7 H7A 110.1 . .
C6 C7 H7B 110.1 . .
C6 C7 N1 108.11(18) . .
H7A C7 H7B 108.4 . .
N1 C7 H7A 110.1 . .
N1 C7 H7B 110.1 . .
H8A C8 H8B 109.5 . .
H8A C8 H8C 109.5 . .
H8B C8 H8C 109.5 . .
N1 C8 H8A 109.5 . .
N1 C8 H8B 109.5 . .
N1 C8 H8C 109.5 . .
H9A C9 H9B 109.5 . .
H9A C9 H9C 109.5 . .
H9B C9 H9C 109.5 . .
N1 C9 H9A 109.5 . .
N1 C9 H9B 109.5 . .
N1 C9 H9C 109.5 . .
Pd1 Cl1 Pd1 94.58(2) 2_556 .
C7 N1 Pd1 106.47(13) . .
C8 N1 C7 109.72(16) . .
C8 N1 Pd1 108.86(14) . .
C9 N1 C7 109.27(17) . .
C9 N1 C8 108.51(17) . .
C9 N1 Pd1 113.95(14) . .
C1 Pd1 Cl1 176.61(6) . .
C1 Pd1 Cl1 95.16(7) . 2_556
C1 Pd1 N1 81.96(8) . .
Cl1 Pd1 Cl1 85.42(2) 2_556 .
N1 Pd1 Cl1 177.07(5) . 2_556
N1 Pd1 Cl1 97.49(5) . .
loop_
_geom_bond_atom_site_label_1
_geom_bond_atom_site_label_2
_geom_bond_distance
_geom_bond_site_symmetry_2
C1 C2 1.399(3) .
C1 C6 1.400(3) .
C1 Pd1 1.975(2) .
C2 H2 0.9300 .
C2 C3 1.391(3) .
C3 H3 0.9300 .
C3 C4 1.371(3) .
C4 C5 1.381(3) .
C4 F1 1.365(2) .
C5 H5 0.9300 .
C5 C6 1.400(3) .
C6 C7 1.493(3) .
C7 H7A 0.9700 .
C7 H7B 0.9700 .
C7 N1 1.495(3) .
C8 H8A 0.9600 .
C8 H8B 0.9600 .
C8 H8C 0.9600 .
C8 N1 1.488(3) .
C9 H9A 0.9600 .
C9 H9B 0.9600 .
C9 H9C 0.9600 .
C9 N1 1.480(3) .
Cl1 Pd1 2.3351(6) 2_556
Cl1 Pd1 2.4658(6) .
N1 Pd1 2.0820(19) .
Pd1 Cl1 2.3352(6) 2_556
loop_
_geom_torsion_atom_site_label_1
_geom_torsion_atom_site_label_2
_geom_torsion_atom_site_label_3
_geom_torsion_atom_site_label_4
_geom_torsion
C1 C2 C3 C4 0.5(3)
C1 C6 C7 N1 -28.7(3)
C2 C1 C6 C5 -1.4(3)
C2 C1 C6 C7 -179.72(19)
C2 C3 C4 C5 -0.3(4)
C2 C3 C4 F1 -179.97(19)
C3 C4 C5 C6 -0.7(3)
C4 C5 C6 C1 1.6(3)
C4 C5 C6 C7 179.8(2)
C5 C6 C7 N1 153.00(19)
C6 C1 C2 C3 0.4(3)
C6 C7 N1 C8 -78.9(2)
C6 C7 N1 C9 162.22(17)
C6 C7 N1 Pd1 38.72(18)
F1 C4 C5 C6 178.95(18)
Pd1 C1 C2 C3 177.37(16)
Pd1 C1 C6 C5 -178.82(15)
Pd1 C1 C6 C7 2.9(3)
loop_
_refln_index_h
_refln_index_k
_refln_index_l
_refln_F_squared_meas
_refln_F_squared_sigma
_refln_scale_group_code
0 0 -2 114.256 68.4342 4
0 0 -3 179374 2313.89 4
0 0 -4 408086 4068.61 4
0 0 -5 104567 2322.52 4
0 0 -6 4263.96 522.581 4
0 0 -7 97713.4 2728.57 4
0 0 7 94902.1 3320.18 1
0 0 8 83324.6 3385.49 1
0 0 -8 80038.6 2674.9 4
0 0 9 7142.88 1100.25 1
0 0 -9 8278.3 940.628 4
0 0 10 2986.86 804.586 1
0 0 11 24731.4 2357.36 1
0 0 12 10812 1685.79 1
0 -1 12 12916.6 1471.57 6
0 -1 11 59907.5 3792.68 1
0 -1 11 58059.3 2938.32 6
0 -1 10 32274.7 2584.08 1
0 -1 9 13510.5 1545.42 1
0 -1 8 44967.8 2597.94 1
0 1 -8 52384.2 2018.46 4
0 -1 7 97044.1 3477.83 1
0 1 -7 97528.4 2553.16 4
0 -1 6 13246.9 1176.58 1
0 1 -6 13535.7 861.916 4
0 -1 5 7503.74 807.064 1
0 1 -5 8830.07 622.324 4
0 1 -4 297268 3156.87 4
0 -1 4 302872 4489.49 1
0 1 -3 138767 1284.75 5
0 -1 3 138587 2642.88 1
0 1 -3 139740 1794.41 4
0 -1 2 2560.2 181.79 4
0 -1 2 2193.15 295.399 1
0 1 -2 2593.7 189.175 4
0 -1 1 216272 2272.84 1
0 1 -1 211361 1760.86 6
0 1 2 478.866 147.866 3
0 1 3 122110 2382.05 3
0 -1 -4 200181 1560.79 2
0 1 4 200594 1459.02 5
0 -1 -5 30777.4 1358.61 4
0 -1 -6 25477.8 1351.63 4
0 -1 -7 34744.8 1711.77 4
0 -1 -8 24442.9 1551.31 4
0 -1 -9 9547.67 1053.29 4
0 -1 -10 5564 862.101 4
0 1 10 5471.3 1038.59 1
0 1 11 19825.8 2037.68 1
0 1 12 6960.45 1290.66 1
0 -2 11 56370.3 3770.83 1
0 -2 10 21125.4 2153.29 1
0 -2 10 20254.4 1624.13 6
0 -2 9 2469.99 695.119 1
0 -2 9 2011.25 489.895 6
0 -2 8 29939.2 2217.92 1
0 -2 8 28508.7 1662.15 6
0 -2 7 91921.9 3567.59 1
0 -2 7 97533.1 2834.59 6
0 -2 6 26697.3 1770.17 1
0 -2 6 29779.9 1450.33 6
0 2 -6 27116 1103 4
0 -2 5 28622.3 808.594 2
0 2 -5 28535.4 995.288 4
0 2 -5 25039.8 707.607 5
0 -2 5 29351.3 1687.77 1
0 -2 4 70363 1371.87 2
0 2 -4 68403.1 1312.33 4
0 2 -3 56793.9 962.499 4
0 -2 3 56176.4 1455.6 6
0 -2 2 3592.7 428.069 1
0 -2 2 3293.01 174.416 4
0 -2 2 3450.49 314.99 6
0 2 -1 12334.7 632.891 3
0 -2 1 11688.8 662.003 1
0 -2 1 12327.1 519.498 6
0 2 0 63476.1 1347.08 3
0 -2 0 68284.2 1397.74 1
0 2 1 44994.3 1174.94 3
0 2 2 5136.08 457.509 3
0 2 3 127619 2604.12 3
0 2 4 10928.6 864.078 3
0 2 5 669.953 295.061 3
0 -2 -5 440.871 206.475 4
0 2 6 4647.07 314.813 5
0 -2 -6 4730.84 627.369 4
0 -2 -6 5763.65 376.06 2
0 -2 -7 37756.6 819.198 2
0 -2 -7 39414.8 1916.73 4
0 -2 -8 38166.4 2024.57 4
0 -2 -9 4264.29 717.535 4
0 -2 -10 18565.2 1614.67 4
0 -2 -11 21477.8 1853.93 4
0 2 11 18963.7 1967.81 1
0 -2 -12 6661.84 1089.28 4
0 2 12 7881.18 1333.91 1
0 -3 10 2591.29 769.822 1
0 -3 9 255.469 177.101 6
0 -3 9 1028.75 455.125 1
0 -3 8 29382.2 2269.28 1
0 -3 8 25782.7 1616.42 6
0 -3 7 26020.1 1494.56 6
0 -3 7 26837 2027.9 1
0 -3 6 14332.6 1372.98 1
0 -3 6 13778.1 1011.58 6
0 -3 5 1176.29 218.624 2
0 -3 5 873.688 239.777 6
0 -3 5 1237.26 400.36 1
0 -3 4 42089.1 1971.45 1
0 -3 3 23028.7 1332.86 1
0 -3 3 23172.3 983.122 6
0 -3 2 21517.1 874.022 6
0 3 -2 20745 1043.68 3
0 -3 2 20364.9 1142.3 1
0 3 -1 87315.5 1990.58 3
0 -3 1 90147 2135.54 1
0 3 0 56053.3 1494.75 3
0 -3 0 57115.2 1600.38 1
0 3 1 3067.27 363.735 3
0 3 2 60391.5 1713.93 3
0 3 3 108659 2551.5 3
0 3 4 105094 2803.76 3
0 3 5 1679.28 403.199 3
0 -3 -6 56832.5 2263.9 4
0 3 6 56709.7 2481.67 3
0 3 7 127600 3972.76 3
0 -3 -7 128087 2277.44 2
0 -3 -7 126302 3611.15 4
0 -3 -8 63989.3 2741.73 4
0 -3 -9 26976.3 1892.32 4
0 -3 -10 14973.5 1510.46 4
0 -3 -11 75601.6 3544.17 4
0 -3 -12 19445.9 1916.32 4
0 -3 -13 4255.76 965.545 4
0 -4 10 882.484 485.161 1
0 -4 9 5665.12 1127.78 1
0 -4 8 28439.4 1708.55 6
0 -4 8 27917.1 2297.92 1
0 -4 7 14551 1145.72 6
0 -4 7 16624.2 1660.38 1
0 -4 6 2907.58 653.493 1
0 -4 6 3511.89 532.513 6
0 -4 5 27271.9 1853.34 1
0 -4 5 27029.8 1343.72 6
0 4 -5 26227.6 1647.8 3
0 -4 5 26681.7 1242.27 2
0 -4 4 87595 2244.47 6
0 -4 4 85561.1 3026.71 1
0 4 -4 83941.5 2727.04 3
0 -4 3 30174.9 1657.33 1
0 4 -3 28850.4 1485.65 3
0 -4 2 29155.4 603.833 4
0 4 -2 32921.2 1484.26 3
0 -4 2 33704.3 1610 1
0 -4 1 111890 2726.1 1
0 4 -1 117560 2636.21 3
0 -4 0 41803.1 1593 1
0 4 0 43784.1 1545.09 3
0 4 1 79514.4 2072.44 3
0 4 2 69716.1 2043.5 3
0 4 3 218658 3908.76 3
0 4 4 146713 3476.64 3
0 4 5 3301.06 597.354 3
0 -4 -6 54443.5 2342.06 4
0 4 6 57311.6 2565.19 3
0 -4 -7 125135 3773.52 4
0 4 7 127430 4102.51 3
0 -4 -7 130010 2793.73 2
0 4 8 48490.9 2705.57 3
0 -4 -8 50298.1 2528.93 4
0 -4 -8 51595.7 1691.9 2
0 -4 -9 1607.9 516.016 4
0 -4 -10 66279.9 3263.12 4
0 -4 -11 59268.1 3247.32 4
0 -4 -12 12481.4 1600.6 4
0 -4 -13 3311.63 849.856 4
0 5 -9 21190.3 2035.71 3
0 -5 9 20025.3 2200.24 1
0 5 -8 55642.7 3100.56 3
0 -5 8 53606.3 3347.03 1
0 -5 7 28148.1 2264.91 1
0 5 -7 31386.2 2183.98 3
0 -5 6 81.7691 162.765 1
0 5 -6 -75.1322 224.136 3
0 -5 6 511.01 222.467 6
0 -5 5 105870 3845.88 1
0 -5 5 109575 2853.55 2
0 5 -5 106927 3531.91 3
0 5 -4 81628.4 2922.93 3
0 -5 4 77782.1 3071.83 1
0 5 -3 77076.7 2654.32 3
0 -5 3 80174 2896.35 1
0 -5 2 5339.16 723.582 1
0 5 -2 3867.36 573.201 3
0 -5 2 4457.14 247.843 4
0 -5 1 164036 3660.05 1
0 5 -1 159997 3453.76 3
0 -5 0 250984 4412.28 1
0 5 0 259645 4257.44 3
0 5 1 71616.5 2220.38 3
0 5 3 130476 3240.29 3
0 5 4 109153 3175.85 3
0 5 5 22953.2 1558.13 3
0 5 6 30713 1956.42 3
0 -5 -6 29099.8 1801.01 4
0 5 7 74107.3 3233.23 3
0 -5 -7 76132.8 3089.7 4
0 -5 -8 34050.8 2181.27 4
0 5 8 33077.5 2303.96 3
0 -5 -8 34031.2 1620 2
0 -5 -9 1151.65 475.694 4
0 5 9 -123.018 268.259 3
0 -5 -10 17684.3 1767.42 4
0 -5 -11 22171.7 2068.25 4
0 -5 -12 844.632 449.259 4
0 -6 8 35332.9 2811.12 1
0 6 -8 32527 2479.04 3
0 6 -7 25475.2 2063.2 3
0 -6 7 29644.2 2436.93 1
0 -6 6 190.268 260.064 1
0 6 -6 -94.3341 124.428 3
0 -6 5 24486.5 1960.13 1
0 6 -5 26001.6 1875.24 3
0 -6 4 87580.7 2896.92 2
0 -6 4 85220.3 3464.83 1
0 6 -4 88847 3268.1 3
0 -6 3 33568.2 2032.97 1
0 6 -3 33695.6 1913.82 3
0 -6 2 7284.74 918.155 1
0 6 -2 7560.32 867.516 3
0 6 -1 72880.2 2565.39 3
0 -6 1 68593.4 2636.96 1
0 -6 1 75172.6 1599.96 4
0 6 0 96331.3 2880.2 3
0 -6 0 93898.8 3017.48 1
0 6 1 7514.42 804.102 3
0 6 3 37632.5 1885.63 3
0 6 4 112914 3435.62 3
0 6 5 1596.25 461.821 3
0 6 6 22302.3 1741.98 3
0 -6 -6 24379.8 1729.07 4
0 -6 -7 24410.8 1833.12 4
0 6 7 26126.4 1991.79 3
0 -6 -8 5851.34 972.997 4
0 -6 -8 6631.94 810.215 2
0 6 8 6255.51 1033.41 3
0 -6 -9 79.3348 283.044 4
0 -6 -9 33.3982 74.7578 2
0 6 9 325.573 283.91 3
0 6 10 13489.4 1698.2 3
0 -6 -10 16438.2 1769.61 4
0 -6 -11 14234.1 1708.17 4
0 -6 -12 -28.0038 103.13 4
0 -7 7 16836.3 1920.13 1
0 7 -6 1515.72 527.602 3
0 -7 6 2399.39 704.608 1
0 -7 5 28188.9 2233.02 1
0 7 -5 27941 2060.8 3
0 -7 4 15871.9 1361.37 2
0 7 -4 19584.9 1641.13 3
0 -7 4 17028.1 1659.44 1
0 7 -3 3341.93 674.284 3
0 -7 3 4152.42 809.295 1
0 7 -2 6184.27 858.807 3
0 -7 2 6243.05 926.024 1
0 -7 1 9334.42 1072.15 1
0 7 -1 9960.69 1050.48 3
0 7 0 38426.1 1998.03 3
0 7 1 204.872 204.336 3
0 7 3 22999.2 1614.44 3
0 7 4 4316.43 720.146 3
0 -7 -5 2868.17 618.777 4
0 7 5 1722.74 486.132 3
0 -7 -6 38699.9 2280.25 4
0 7 6 39671.5 2408.37 3
0 7 7 15113.9 1583.58 3
0 -7 -7 15497.9 1521.72 4
0 7 8 1600.13 586.429 3
0 -7 -8 -51.4245 174.961 4
0 -7 -8 1036.02 345.819 2
0 -7 -9 4939.18 964.668 4
0 7 9 2812.76 743.245 3
0 -7 -9 3170.06 619.654 2
0 -7 -10 40352.3 2827.95 4
0 7 10 42555.9 3063.78 3
0 -7 -11 7873.19 1321.66 4
0 -8 6 2673.97 762.893 1
0 -8 5 21335.6 2083.15 1
0 8 -4 4922.5 885.616 3
0 -8 4 3802.26 862.37 1
0 8 -3 74.3912 203.502 3
0 -8 3 -135.837 246.177 1
0 -8 3 -220.569 209.776 2
0 8 -2 16564.5 1496.93 3
0 -8 2 13082.4 1447.6 1
0 8 -1 51406.1 2561.25 3
0 8 0 8741.02 1065.45 3
0 8 1 6832.04 939.067 3
0 -8 -2 46589 2065.42 4
0 8 2 45116.6 2378.84 3
0 8 3 49464.8 2544.76 3
0 -8 -3 52371.4 2347.12 4
0 8 4 8922.37 1114.84 3
0 -8 -4 10034.8 1089.3 4
0 8 5 742.688 392.11 3
0 -8 -5 769.319 342.023 4
0 -8 -6 76014.5 3309.2 4
0 8 6 79803.4 3566.8 3
0 8 7 44020.9 2801.11 3
0 -8 -7 42625.2 2619.07 4
0 -8 -8 6564.34 1089.01 4
0 8 8 5151.04 1029.06 3
0 -8 -8 6042.15 929.657 2
0 -8 -9 6963.73 1006.41 2
0 -8 -9 8044.13 1288.85 4
0 8 9 4441.51 1014.71 3
0 8 10 38613.8 3026.45 3
0 -8 -10 39418.8 2905.91 4
0 -8 -11 23541.1 2364.35 4
0 8 11 23670.7 2466.37 3
0 -9 5 18049.6 2008.46 1
0 -9 4 15650.6 1811.39 1
0 -9 3 29.6925 231.122 1
0 -9 3 735.203 416.785 2
0 9 -2 27580.7 2064.12 3
0 -9 2 28571.4 2164.47 2
0 -9 1 34091.3 2346.08 2
0 9 -1 34647.5 2267.9 3
0 9 0 15860.4 1528.35 3
0 9 1 775.369 377.362 3
0 9 2 40793.7 2448.83 3
0 -9 -3 73302.7 2903.21 4
0 9 3 72838.6 3309.84 3
0 9 4 20723.4 1806.76 3
0 -9 -4 18447.1 1552.04 4
0 9 5 7172.23 1112.6 3
0 -9 -5 11482 1293.83 4
0 -9 -6 50621.8 2830.85 4
0 9 6 47120.3 2916.32 3
0 -9 -7 50375 2976.31 4
0 -9 -7 49508.6 2843.9 2
0 9 7 51940.2 3186.36 3
0 9 8 14837.7 1779.2 3
0 -9 -8 17753.7 1712.92 2
0 -9 -8 18539.5 1889.19 4
0 9 9 14334.8 1818.76 3
0 -9 -9 11808.7 1405.39 2
0 -9 -9 12144.5 1609.28 4
0 -9 -10 38638 2978.61 4
0 9 10 37604.1 3108.03 3
0 -10 2 10909.2 1435.98 2
0 -10 1 42129.4 2827.31 2
0 -10 0 31904.4 2460.69 2
0 10 1 2921.06 701.01 3
0 -10 -1 4993.3 973.067 2
0 10 2 16842.2 1709.89 3
0 10 3 47812.8 2877.54 3
0 10 4 5894.51 1040.73 3
0 -10 -5 188.843 280.171 4
0 10 5 747.933 396.958 3
0 -10 -6 25054.9 2093.67 4
0 10 6 24415.4 2226.28 3
0 -10 -6 23131.8 2092.39 2
0 -10 -7 20177.3 1948.55 2
0 10 7 20895.1 2139.69 3
0 -10 -7 21826.2 2038.43 4
0 -10 -8 4588.86 1001.29 4
0 -10 -8 4332.23 921.881 2
0 10 8 4461.25 1047.79 3
0 -10 -9 15278.7 1864.83 4
0 -10 -9 13749.8 1628.15 2
0 10 9 12057.8 1755.56 3
0 -11 -1 4575.33 1007.88 2
0 -11 -2 15888.1 1845.03 2
0 -11 -3 22843.9 2210.37 2
0 -11 -4 3025.81 849.801 2
0 11 4 2472.2 710.694 3
0 -11 -5 2062.17 650.815 2
0 11 5 2072.17 668.976 3
0 -11 -6 12301.9 1617.54 2
0 11 6 14131.2 1793.44 3
0 11 7 8434.58 1434.88 3
0 -11 -7 7806.58 1271.72 4
0 11 8 -11.093 67.1834 3
0 -11 -8 -340.903 327.106 4
1 -11 -7 24931.4 2298.18 4
-1 10 9 4993.79 1094.39 3
1 -10 -9 3728.5 836.309 2
1 -10 -8 25523.9 2257.09 2
-1 10 8 25467.9 2435.77 3
1 -10 -8 27938.7 2482.37 4
1 -10 -7 34534.4 2634.38 4
1 -10 -7 30176.6 2444.56 2
-1 10 7 32296.4 2669.57 3
-1 10 6 7219.3 1237.49 3
1 -10 -6 4339.15 963.87 2
1 -10 -6 5904.25 1046.18 4
-1 10 5 8290.7 1242.32 3
1 -10 -5 5878.62 1095.92 2
1 -10 -5 7816.69 1157.74 4
1 -10 -4 45479.5 2965.31 2
-1 10 4 49805.7 2928.9 3
1 -10 -3 35315.4 2610.31 2
1 -10 -2 239.219 298.758 2
1 -10 -1 23125.1 2117.95 2
1 -10 0 18655.5 1892.33 2
1 -10 1 41269 2848.19 2
1 -10 2 -31.2146 154.654 2
-1 9 10 8556.25 1475.89 3
-1 9 9 1279.16 596.51 3
1 -9 -9 1233.27 514.975 2
1 -9 -9 1331.02 598.004 4
1 -9 -8 40689.9 2879.52 4
-1 9 8 37581.6 2862.29 3
1 -9 -8 41116.9 2670.29 2
1 -9 -7 46254.1 2919.4 4
-1 9 7 45095 2992.64 3
1 -9 -7 40821.9 2637.21 2
1 -9 -6 7561.05 1145.26 4
-1 9 6 9976.25 1359.65 3
1 -9 -6 8004.74 1188.12 2
-1 9 5 7759.63 1150.17 3
1 -9 -5 8233.54 1186.35 2
1 -9 -5 6728.16 1021.2 4
-1 9 4 39238 2473.14 3
1 -9 -4 39348.9 2312.04 4
1 -9 -4 39447.8 2574.67 2
-1 9 3 51012.2 2714.23 3
1 -9 -3 48354 2842.27 2
1 -9 -2 7764.31 1164.34 2
-1 9 2 7852.84 1051.52 3
-1 9 1 2951.2 655.097 3
1 -9 -1 4027.85 831.203 2
1 -9 0 46700.6 2782.38 2
1 -9 1 31744 2324.17 2
1 -9 2 2552.42 675.881 2
1 -9 3 1469.22 563.516 1
1 -9 3 2415.18 630.318 2
1 -9 4 17806.8 2018.06 1
1 -8 -10 7464.78 1315.95 4
1 -8 -9 -156.591 233.79 4
-1 8 9 524.896 371.454 3
1 -8 -9 212.744 205.836 2
1 -8 -8 11857.8 1332.25 2
-1 8 8 9527.25 1391.53 3
1 -8 -8 12458.2 1552.42 4
1 -8 -7 24007 2023.05 4
-1 8 7 22664.3 2037.62 3
1 -8 -7 22236.6 1812.61 2
-1 8 6 3651.26 811.758 3
1 -8 -6 4230.57 800.353 4
1 -8 -6 3670.08 756.106 2
1 -8 -5 1797.04 516.017 2
1 -8 -5 2247.24 560.099 4
-1 8 5 1598.59 520.095 3
1 -8 -4 23831.7 1710.01 4
-1 8 4 23430.9 1781.77 3
1 -8 -4 23222.8 1829.32 2
1 -8 -3 22104 1773.38 2
1 -8 -3 22029.6 1557.83 4
-1 8 3 22053.6 1662.49 3
1 -8 -2 1918.95 529.07 2
1 -8 -2 2091.98 468.706 4
-1 8 2 1756.49 447.238 3
-1 8 1 21008.3 1571.75 3
1 -8 -1 20701.6 1716.89 2
1 -8 0 18940.6 1638.36 2
-1 8 0 19763.2 1498.45 3
-1 8 -1 16082.7 1356.21 3
1 -8 1 15564.4 1493.67 2
1 -8 2 1138.24 436.359 2
1 -8 2 1456.97 567.31 1
1 -8 3 7411.45 1030.8 2
1 -8 3 6970.43 1126.42 1
1 -8 4 40073.4 2788.6 1
1 -8 4 41349.5 2426.43 2
1 -8 5 1409.83 556.333 1
1 -8 6 9049.28 1445.5 1
1 -7 -11 22063.7 2285.83 4
1 -7 -10 8278.09 1341.82 4
1 -7 -9 199.364 316.195 4
-1 7 9 501.191 360.324 3
1 -7 -8 5286.04 820.069 2
-1 7 8 5862.33 1048.29 3
1 -7 -8 5504.63 1006.22 4
1 -7 -7 16394.8 1604.8 4
1 -7 -7 16297 1432.67 2
-1 7 7 14693 1577.13 3
1 -7 -6 19180.5 1537.77 2
-1 7 6 21211.9 1780.67 3
1 -7 -6 18185 1605.51 4
-1 7 5 44920.4 2442.44 3
1 -7 -5 39794.2 2203.19 2
1 -7 -5 40931.5 2267.42 4
-1 7 4 7630.68 963.919 3
1 -7 -4 7458.13 914.499 4
1 -7 -4 7903.01 991.182 2
1 -7 -3 13253.5 1264.64 2
-1 7 3 12974.9 1190.53 3
1 -7 -3 13496.6 1155.55 4
-1 7 2 530.553 245.758 3
1 -7 -2 250.489 167.946 4
-1 7 1 40897.8 1982.83 3
1 -7 -1 36753.8 2109.58 2
1 -7 -1 38480.3 1665.95 4
1 -7 0 35681.3 2077.48 2
-1 7 0 40780.7 1965.86 3
-1 7 -1 6304.44 779.915 3
1 -7 1 6057.38 932.137 1
1 -7 1 5695.59 835.7 2
1 -7 2 24151.6 1881.44 1
-1 7 -2 24359.3 1571.87 3
1 -7 2 21163.7 1589.75 2
1 -7 3 63204.8 2764.03 2
1 -7 3 64471.2 3163.68 1
-1 7 -3 62406.3 2600.97 3
1 -7 4 26776.6 2145.63 1
1 -7 4 27975.6 1837.57 2
-1 7 -4 27555.1 1803.73 3
1 -7 5 95.2405 235.031 1
1 -7 6 32754.3 2603.44 1
1 -7 7 30526.3 2625.41 1
1 -6 -11 19019.5 2051.19 4
1 -6 -10 6491.67 1157.76 4
1 -6 -9 17470.2 1787.89 4
-1 6 8 40337.6 2639.69 3
1 -6 -8 41584.6 2603.41 4
1 -6 -8 39592 2019.72 2
1 -6 -7 35904.2 2283.66 4
-1 6 7 32368.6 2244.91 3
1 -6 -7 35460.2 1913.19 2
1 -6 -6 48.8866 111.702 4
1 -6 -6 -73.316 152.952 2
-1 6 6 -81.8332 141.791 3
1 -6 -5 60970.4 2651.1 4
-1 6 5 58494 2666.95 3
1 -6 -5 59287.5 2462.62 2
-1 6 4 76195.9 2838.68 3
1 -6 -4 69434.8 2654.97 4
1 -6 -4 76927.1 2797.2 2
-1 6 3 43517.9 2018.96 3
1 -6 -3 42732.2 1946.65 4
-1 6 2 3409.35 546.065 3
1 -6 -2 3583.98 529.399 4
-1 6 1 129056 3200.57 3
1 -6 -1 130994 2898.86 4
-1 6 0 137676 3260.04 3
1 -6 0 138468 2656.01 4
-1 6 -1 5061.97 633.946 3
1 -6 1 4273.64 724.251 1
1 -6 1 4316.04 678.753 2
1 -6 2 22576.5 1690.16 1
-1 6 -2 22795.2 1390.57 3
1 -6 2 22133.9 1486.22 2
1 -6 3 73755.8 2724.87 2
-1 6 -3 74739.5 2642.42 3
1 -6 3 76906 3195.67 1
1 -6 4 87002.8 3575.33 1
-1 6 -4 90751.1 3065.2 3
1 -6 4 84281.9 2907.78 2
-1 6 -5 4258.31 690.791 3
1 -6 5 3854.27 833.931 1
1 -6 6 33378 2455.2 1
-1 6 -6 27531.1 1904.11 3
1 -6 7 47159.4 3096.99 1
1 -6 8 25351 2411.89 1
1 -5 -12 33142.9 2779.67 4
1 -5 -11 38684.4 2851.67 4
1 -5 -10 976.567 431.072 4
1 -5 -9 22230.8 1935.25 4
1 -5 -8 71619.9 2407.16 2
1 -5 -8 80084.4 3473.79 4
-1 5 7 53947.2 2808.69 3
1 -5 -7 50995.4 2614.2 4
1 -5 -7 51859.6 2096.59 2
1 -5 -6 786.087 333.788 4
1 -5 -6 729.525 246.855 2
-1 5 6 752.811 339.125 3
-1 5 5 68444.3 2765.22 3
1 -5 -5 68418.8 2678.11 4
1 -5 -5 66445.7 2354.33 2
1 -5 -4 188427 4157.22 4
1 -5 -4 187289 3940.87 2
-1 5 4 192066 4283.11 3
-1 5 3 58213.3 2177.23 3
1 -5 -3 61871.6 2211.66 4
-1 5 2 19188 1169.97 3
1 -5 -2 21094.8 1190.01 4
-1 5 1 86743.2 2347.57 3
1 -5 -1 86031.1 2202.34 4
-1 5 0 122814 2727.89 3
1 -5 0 123270 2304.98 4
-1 5 -1 36211.8 1509.05 3
1 -5 1 36125.9 1039.2 4
1 -5 1 33704 1814.41 1
-1 5 -2 10884.7 866.372 3
1 -5 2 8875.41 851.713 2
1 -5 2 12546.6 1161.27 1
-1 5 -3 108329 2913.31 3
1 -5 3 106193 2946.72 2
1 -5 3 107570 3501.27 1
1 -5 4 57748.5 2177.93 2
1 -5 4 55501.5 2656.57 1
-1 5 -4 60420.6 2319.59 3
1 -5 5 4174.87 599.689 2
-1 5 -5 4904.03 717.647 3
1 -5 5 2827.37 686.313 1
-1 5 -6 9664.97 1062.02 3
1 -5 6 8053 1149.97 1
1 -5 7 43175.1 2145.86 6
1 -5 7 38528.8 2664.39 1
-1 5 -7 39655.9 2299.8 3
1 -5 8 16638.1 1888.33 1
1 -5 8 17233.3 1435.67 6
-1 5 -8 16734.5 1605.66 3
1 -5 9 5188.46 1106.83 1
1 -4 -12 48272.4 3234.05 4
1 -4 -11 23116.6 2131.42 4
1 -4 -10 15510.3 1638.96 4
1 -4 -9 26731 2041.89 4
1 -4 -8 104798 3836.02 4
1 -4 -7 64056.4 2037.41 2
1 -4 -7 66488.2 2869.6 4
1 -4 -6 4394.83 544.69 2
-1 4 6 4760.56 762.038 3
1 -4 -6 3578.86 638.71 4
-1 4 5 67275.7 2636.1 3
1 -4 -5 68137.7 2119.39 2
1 -4 -5 70647.6 2609.24 4
1 -4 -4 91864 2759.69 4
1 -4 -4 95075.4 2501.47 2
-1 4 4 92387.9 2836.18 3
1 -4 -3 81846.1 2400.32 4
-1 4 3 85466.5 2471.65 3
1 -4 -3 82782.1 2354.73 2
1 -4 -2 5817.25 588.501 4
-1 4 2 5458.92 570.967 3
-1 4 1 46557.7 1525.7 3
1 -4 -1 47775.5 1506.44 4
1 -4 0 57070.2 1445.34 4
-1 4 0 58415.7 1641.14 3
1 -4 0 57757.3 2096.05 1
-1 4 -1 47345 1506.48 3
1 -4 1 50110.8 1101.86 4
1 -4 1 47223.1 1922.67 1
-1 4 -2 1735.61 315.844 3
1 -4 2 1132.73 335.881 1
1 -4 2 1628.85 335.81 2
1 -4 3 51768.7 2245.97 1
-1 4 -3 54376.4 1869.86 3
1 -4 3 53258.3 1857.3 2
1 -4 4 362.608 241.788 1
1 -4 4 297.373 171.426 2
-1 4 -4 506.035 213.948 3
1 -4 4 279.787 158.921 6
-1 4 -5 33976.7 1731.23 3
1 -4 5 35843.5 1501.93 2
1 -4 5 35419.1 2137.25 1
1 -4 5 36801.9 1662.63 6
1 -4 6 8817.34 867.61 6
1 -4 6 9343.56 1170.5 1
-1 4 -6 8223.96 928.441 3
1 -4 7 21421.9 1900.7 1
1 -4 7 23614.3 1522.43 6
1 -4 8 2599 555.269 6
1 -4 8 1376.89 573.865 1
1 -4 9 2215.82 691.536 1
1 -4 9 1379.32 436.173 6
1 -4 10 10677.8 1657.2 1
1 -3 -13 1972.99 675.665 4
1 -3 -12 21742 2113 4
1 -3 -11 11460.5 1458.01 4
1 -3 -10 6697.73 1082.96 4
1 -3 -9 20084.6 1734.32 4
1 -3 -8 52708.2 2627.66 4
1 -3 -7 10848.1 719.904 2
1 -3 -7 11047 1151.69 4
1 -3 -6 1137.39 252.424 2
1 -3 -6 1301.06 391.613 4
1 -3 -5 7407.98 814.45 4
-1 3 5 5667.27 741.313 3
1 -3 -5 6398.42 569.66 2
1 -3 -4 136522 2628.04 2
1 -3 -4 144505 3249.79 4
-1 3 4 146124 3402.91 3
1 -3 -3 24014.6 1097.62 2
1 -3 -3 20182.3 1118.66 4
-1 3 3 21360.2 1172.65 3
1 -3 -2 9846.79 708.965 4
-1 3 2 10061.3 713.81 3
1 -3 -2 9702.69 703.397 2
-1 3 1 145560 2370.99 3
1 -3 -1 143010 2403.89 4
1 -3 -1 143717 2676.11 2
1 -3 0 20986.5 788.14 4
1 -3 0 22305.3 1050.16 2
-1 3 0 20140.1 811.326 3
1 -3 0 22582.9 1159.16 1
1 -3 1 44709 1652.31 1
1 -3 1 45816.1 919.465 4
-1 3 -1 44505.3 1231.32 3
1 -3 1 46465.7 1512.15 2
1 -3 2 10462.6 723.989 2
-1 3 -2 10028.6 640.206 3
1 -3 2 10754.5 869.317 1
1 -3 3 77474.2 1966.97 2
-1 3 -3 76568 1973.09 3
1 -3 3 76429.8 2503.61 1
1 -3 4 42358.5 1574.22 6
1 -3 4 40533.6 1409.16 2
1 -3 4 41402.8 2000.29 1
1 -3 5 288.292 126.643 2
1 -3 5 147.368 173.572 1
1 -3 5 247.531 156.032 6
1 -3 6 37465.8 2211.62 1
1 -3 6 38852.7 1752.5 6
1 -3 7 39834.3 1903.82 6
1 -3 7 40637.3 2489.8 1
1 -3 8 3965.84 654.746 6
1 -3 8 2680.24 695.693 1
1 -3 9 7748.94 1265.64 1
1 -3 9 8027.73 996.238 6
1 -3 10 21319.9 2213.57 1
1 -3 10 19573.5 1642.66 6
1 -3 11 23306.4 1877.2 6
-1 2 12 10875.4 1632.9 1
1 -2 -12 11387.5 1465.97 4
1 -2 -11 9288.81 1279.33 4
1 -2 -10 743.036 376.291 4
1 -2 -9 769.623 346.13 4
1 -2 -8 28175.4 1852.06 4
1 -2 -7 3750.13 321.219 2
1 -2 -7 4637.02 719.589 4
1 -2 -6 7452.08 498.625 2
1 -2 -6 6509.38 779.685 4
1 -2 -5 49032.3 1971.03 4
1 -2 -5 55244.1 1400.23 2
1 -2 -4 77323.1 1668.93 2
1 -2 -4 77719 2285.3 4
1 -2 -3 7507.9 652.953 4
-1 2 3 7550.26 660.96 3
1 -2 -3 7713.44 529.706 2
1 -2 -2 94935.5 2062.02 4
1 -2 -2 95585.3 1849.43 2
1 -2 -1 122826 1871.98 3
1 -2 -1 120524 2011.03 4
-1 2 1 118306 1879.15 3
1 -2 -1 117076 2066.27 2
1 -2 0 174957 2494.6 2
-1 2 0 175065 2017.92 4
1 -2 0 169288 2737.17 1
-1 2 0 172201 1828.88 3
1 -2 0 176467 1823.7 3
1 -2 0 176818 2034.91 4
1 -2 1 889.991 114.274 4
1 -2 1 765.443 212.486 1
1 -2 1 950.948 191.944 2
-1 2 -1 1192.04 128.681 4
-1 2 -1 777.537 132.769 3
1 -2 2 236373 3624.93 1
1 -2 2 246593 2953.22 2
1 -2 3 297348 4480.47 1
1 -2 3 287590 3528.65 6
1 -2 3 292800 3206.06 2
1 -2 4 37627 1765.16 1
1 -2 4 37999 1152.7 2
1 -2 5 13214.6 666.758 2
1 -2 5 12581.3 891.83 6
1 -2 5 10595.9 1041.16 1
-1 2 -5 11795.4 493.235 4
-1 2 -6 108184 1791.61 4
1 -2 6 112832 1755.88 2
1 -2 6 112200 2881.16 6
1 -2 7 98262.1 3673.13 1
1 -2 7 107611 3068.9 6
1 -2 8 22799.6 1918.57 1
1 -2 8 25119.9 1593.02 6
1 -2 9 17982.9 1451.86 6
1 -2 9 17205.1 1789.67 1
1 -2 10 69002.4 3848.63 1
1 -2 10 74461.6 3149.39 6
1 -2 11 40717.4 3159.18 1
1 -2 11 34655.2 2281.48 6
1 -2 12 585.073 318.681 6
1 -1 -11 9432.96 1245.96 4
-1 1 11 10554.2 1542.06 1
1 -1 -10 445.924 280.278 4
1 -1 -9 34541.1 2101.82 4
1 -1 -8 66100.3 2724.1 4
1 -1 -7 14066.7 1181.24 4
1 -1 -6 15120.9 1134.73 4
1 -1 -5 156122 3356.03 4
1 -1 -4 124195 2729.63 4
1 -1 -4 128202 1725.34 2
-1 1 3 9000.08 412.122 5
1 -1 -3 8564.75 449.827 2
1 -1 -3 9880.62 454.013 5
1 -1 -3 8490.48 645.081 4
1 -1 -2 8247.37 445.88 2
1 -1 -2 8846.89 425.945 5
-1 1 2 8621.93 408.045 5
-1 1 2 8196.61 439.03 2
1 -1 -2 7750.47 550.781 4
1 -1 -1 938724 4626.85 2
-1 1 1 938411 4617.56 3
1 -1 0 151604 1734.32 4
-1 1 0 156670 1750.47 5
1 -1 0 154565 1891.71 2
1 -1 1 565.963 126.574 2
-1 1 -1 550.464 109.817 5
1 -1 1 662.738 158.837 1
-1 1 -1 576.251 87.0658 4
1 -1 1 483.168 82.1066 4
1 -1 2 181316 2777.44 1
-1 1 -2 182217 2042.84 2
-1 1 -2 186850 1903.52 5
1 -1 2 183895 1893.99 5
1 -1 3 343352 2810.29 2
-1 1 -3 339548 2534.55 5
1 -1 3 335781 4287.71 1
1 -1 3 330808 2553.09 5
1 -1 4 147390 1786.17 2
1 -1 4 146078 3173.71 1
-1 1 -4 149691 1643.91 5
1 -1 5 90.826 44.0104 2
1 -1 5 51.3211 99.7375 1
1 -1 6 142066 3847.99 1
-1 1 -6 142600 2532.85 4
-1 1 -7 121953 2584.91 4
1 -1 7 118854 3836.19 1
1 -1 8 15672.7 1524.11 1
1 -1 8 15242.1 1224.03 6
-1 1 -8 17323.4 1074.23 4
1 -1 9 661.877 396.566 1
1 -1 9 1482.08 427.597 6
1 -1 10 41062.2 2875.36 1
1 -1 10 45335.8 2449.57 6
1 -1 11 26799.7 2503.13 1
1 -1 11 27588.7 2029.57 6
1 -1 12 289.962 223.659 6
-1 0 11 31119.7 2704.06 1
-1 0 10 5896.27 1124.88 1
1 0 -9 47449.7 2366.23 4
-1 0 9 42013.6 2686.8 1
1 0 -8 83853.7 2962.07 4
1 0 -7 20942.4 1378.03 4
1 0 -6 -67.8365 150.788 4
1 0 -5 269413 4176.3 4
-1 0 4 184653 1550.82 2
1 0 -4 185860 3164.22 4
1 0 -4 189743 1466.51 5
-1 0 3 12048 432.007 2
1 0 -3 11442.9 385.507 5
1 0 -3 11376.6 704.649 4
1 0 -2 66331.6 1500.62 4
1 0 -2 66316.7 936.077 5
1 0 -1 456283 3409.16 4
1 0 1 2923.98 167.515 3
1 0 2 112059 1791.18 1
-1 0 -2 110809 1344.33 2
-1 0 -2 112584 1562.49 3
1 0 2 115591 1230.82 5
1 0 2 113038 1575.86 3
1 0 3 311675 2019.91 5
1 0 3 307605 3559.92 1
-1 0 -3 309002 2218.75 2
1 0 4 197850 1570.71 5
1 0 4 201057 3358.69 1
1 0 5 52791.6 1967.95 1
1 0 5 42978.5 640.755 5
-1 0 -6 38913 1475.13 4
1 0 6 38119.9 1865.01 1
1 0 7 53056.4 2451.83 1
-1 0 -7 58947.5 1976.57 4
-1 0 -8 22140.4 1324.68 4
1 0 8 22099.7 1732.92 1
-1 0 -9 225.318 149.696 4
1 0 9 179.837 182.552 1
1 0 10 34752.8 2555.04 1
1 0 11 16359.3 1899.68 1
1 0 12 549.121 375.496 1
1 0 12 823.004 367.099 6
-1 -1 11 29899.2 2722.13 1
-1 -1 10 1017.07 517.749 1
-1 -1 9 19443.2 1878.66 1
-1 -1 8 81082 3517.53 1
1 1 -8 83326 2811.46 4
1 1 -7 52834.8 2091.26 4
-1 -1 7 52506.7 2615.61 1
1 1 -6 5700.41 635.71 4
-1 -1 6 7107.94 888.621 1
1 1 -5 76659.5 2119.15 4
-1 -1 5 65721.5 801.391 2
1 1 -4 71162.9 1858.96 4
1 1 -3 21200.1 918.477 4
1 1 -2 715.53 158.419 4
1 1 -1 16787.3 635.019 4
-1 -1 1 16554.9 630.426 4
1 1 0 197385 2114.85 3
1 1 1 67420.5 1174.45 3
1 1 2 11722.9 579.689 3
1 1 3 12766.4 737.646 3
1 1 4 722.019 214.844 3
1 1 5 10429.5 867.756 3
-1 -1 -6 18207.5 461.902 2
1 1 6 17267.7 430.815 5
-1 -1 -7 36423.4 1672.41 4
-1 -1 -8 -164.896 183.163 4
1 1 8 -107.043 191.176 1
1 1 9 27074.8 2003.09 1
-1 -1 -9 28298 1709.73 4
1 1 10 28222.4 2204.12 1
-1 -1 -10 24917.3 1700.87 4
1 1 11 9626.61 1420.7 1
1 1 12 1242.29 607.073 1
-1 -2 11 9793.25 1603.88 1
-1 -2 10 963.98 514.698 1
-1 -2 9 27807 1751.99 6
-1 -2 9 30322.3 2442.03 1
-1 -2 8 32728.7 2324.92 1
-1 -2 8 35815.7 1863.09 6
1 2 -7 1364.1 342.12 4
-1 -2 7 1882.33 531.621 1
1 2 -6 8783.75 745.13 4
-1 -2 6 7439.44 962.949 1
1 2 -5 33451.2 1332.39 4
-1 -2 5 35994.4 1869.87 1
1 2 -4 54107 1540.38 4
-1 -2 4 51229 2010.53 1
1 2 -3 3879.41 379.684 4
-1 -2 3 3589.88 485.767 1
-1 -2 3 3220.4 327.899 6
1 2 -2 56016.3 1299.01 4
-1 -2 2 58090.7 1129.78 6
-1 -2 2 59088.8 1653.81 1
1 2 -1 123123 2291.38 3
-1 -2 1 120994 2002.44 1
-1 -2 1 125755 1782.44 4
-1 -2 1 125332 1275.02 6
1 2 0 3464.69 267.233 1
-1 -2 0 3645.4 269.144 1
1 2 0 2935.35 344.54 3
1 2 1 429.663 139.22 3
1 2 1 265.144 73.0482 1
1 2 2 14777.6 754.632 3
1 2 3 110298 2304.28 3
1 2 4 1879.35 365.184 3
1 2 5 29075.4 1518.77 3
1 2 6 73343.6 2636.62 3
1 2 7 64903.7 2672.95 3
-1 -2 -8 17758.7 1329.02 4
-1 -2 -9 12219.5 1172.82 4
-1 -2 -10 69005.6 2953.75 4
1 2 10 66768.7 3312.6 1
-1 -2 -11 18674.9 1628.94 4
1 2 11 18892.7 1904.12 1
1 2 12 4355.84 967.683 1
-1 -3 10 2882.97 854.928 1
-1 -3 9 14540.8 1772.74 1
-1 -3 8 11451.3 1434.57 1
-1 -3 8 10243.1 983.763 6
-1 -3 7 2268.03 621.612 1
-1 -3 7 2326.12 446.657 6
-1 -3 6 26447.7 1869.87 1
-1 -3 6 27348.1 1359.68 6
-1 -3 5 66630.4 2710.26 1
1 3 -5 69752.4 1785.04 4
-1 -3 4 27382.3 1589.03 1
-1 -3 3 23724.4 922.833 6
-1 -3 3 24404.2 1346.78 1
-1 -3 2 168529 3133.77 1
-1 -3 2 170271 2155.78 6
1 3 -2 166535 3308.69 3
-1 -3 1 53884.9 1543.05 1
1 3 -1 53849.9 1746.32 3
-1 -3 0 110523 1902.98 1
1 3 0 106216 2307.2 3
1 3 1 38086.3 1038.55 1
1 3 1 38591.6 1361.82 3
1 3 2 289205 3791.28 3
1 3 3 373071 4647.48 3
1 3 4 1612.76 351.287 3
1 3 5 33583.1 1696.66 3
1 3 6 171348 4171.92 3
1 3 7 132282 3939.65 3
1 3 8 2289.31 579.633 3
-1 -3 -8 2033.78 495.124 4
-1 -3 -9 67278.2 2872.28 4
-1 -3 -10 73039 3172.76 4
-1 -3 -11 38672.1 2454.01 4
1 3 12 1726.05 632.818 1
-1 -3 -12 395.985 269.604 4
-1 -3 -13 35622.1 2596.99 4
1 3 13 38510.3 3061.82 1
-1 -4 9 27825 2482.44 1
-1 -4 8 29985.1 2416.09 1
-1 -4 7 -29.4484 227.051 1
-1 -4 6 88729.2 2489.39 6
-1 -4 6 82597.5 3437.23 1
1 4 -5 27791.1 1809.95 3
-1 -4 5 29872.9 1928.98 1
-1 -4 5 28474.1 1291.11 6
1 4 -4 98351.3 3192.05 3
-1 -4 4 103677 3267.05 1
1 4 -3 1625.43 407.37 3
-1 -4 3 1565.18 260.077 6
-1 -4 3 1112.6 352.67 1
1 4 -2 141189 3348.43 3
-1 -4 2 145230 3208.49 1
-1 -4 1 190633 3297.81 1
1 4 -1 194648 3719.4 3
1 4 0 133708 2941.81 3
-1 -4 0 129535 2485.49 1
1 4 1 31615.9 1400.97 3
1 4 2 217325 3706.23 3
1 4 3 159906 3363.9 3
1 4 4 62500.8 2240.86 3
1 4 5 28968 1647.3 3
1 4 6 138989 3899.91 3
1 4 7 102718 3619.85 3
1 4 8 1650.46 510.166 3
1 4 9 39117.4 2513.77 3
-1 -4 -9 37160 2232.19 4
-1 -4 -10 23937.1 1909.4 4
-1 -4 -11 24587.9 2024.87 4
-1 -4 -12 -136.994 262.263 4
1 4 13 20060.5 2187.9 1
-1 -4 -13 15905.3 1790.75 4
1 5 -9 28801.4 2501.81 3
-1 -5 9 28462.4 2587.3 1
-1 -5 8 37171.7 2807.62 1
1 5 -8 38730.2 2762.21 3
1 5 -7 1728.78 555.63 3
-1 -5 7 1956.56 643.622 1
-1 -5 6 21650.9 1865.73 1
1 5 -6 22850.3 1858.76 3
-1 -5 5 91196.7 3516.85 1
1 5 -5 81622 3304.56 3
-1 -5 4 79719.4 3062.89 1
1 5 -4 83535.3 3154.25 3
1 5 -3 639.059 285.74 3
-1 -5 3 1290.57 387.59 1
-1 -5 2 86028.5 2701.82 1
1 5 -2 90797.5 2939.24 3
-1 -5 1 145374 3241.33 1
1 5 -1 137510 3454.44 3
1 5 0 43128.1 1863.86 3
-1 -5 0 42440.7 1659.26 1
1 5 1 3355.09 525.35 3
1 5 2 99022.3 2798.02 3
1 5 3 190461 4000.65 3
1 5 4 13740.4 1129.76 3
1 5 5 23680.4 1565.8 3
1 5 6 53058.1 2494.72 3
1 5 7 24825.2 1850.5 3
1 5 8 1119.48 467.02 3
1 5 9 5806.2 1034.4 3
-1 -5 -9 6010.48 958.803 4
1 5 10 21416.1 2025.87 3
-1 -5 -10 23695.6 1962.71 4
-1 -5 -11 5474.87 1015.52 4
-1 -5 -12 4805.75 1000.34 4
-1 -5 -13 2552.95 757.319 4
1 6 -8 21384 2121.68 3
-1 -6 8 18951.9 2065.65 1
-1 -6 7 5727.09 1104.06 1
1 6 -7 7165.26 1178.91 3
1 6 -6 11513.7 1400.94 3
-1 -6 6 10200 1329.68 1
1 6 -5 32937.2 2243.4 3
-1 -6 5 37971.6 2409.98 1
1 6 -4 7345.31 1015.87 3
-1 -6 4 8568.53 1070.45 1
-1 -6 3 1608.16 434.625 1
1 6 -3 1109.09 418.413 3
-1 -6 2 7426.84 877.163 1
1 6 -2 6796.77 877.635 3
1 6 -1 47443.9 2216.84 3
-1 -6 1 47367.5 2050.37 1
-1 -6 0 3573.46 555.966 1
1 6 0 2274.68 482.849 3
1 6 1 35929.3 1851.98 3
1 6 2 44566.4 2053.28 3
1 6 4 837.489 334.723 3
1 6 5 39217.2 2136.24 3
1 6 6 35361.6 2147.75 3
1 6 7 5275.76 894.922 3
1 6 8 1783 564.376 3
1 6 9 54432.6 3167.67 3
-1 -6 -9 58405.4 3055.57 4
-1 -6 -10 22578.6 2008.97 4
1 6 10 20076 2034.06 3
1 6 11 2977.45 828.26 3
-1 -6 -11 3666.48 857.865 4
-1 -6 -12 8942.04 1403.71 4
1 7 -7 -313.977 358.879 3
-1 -7 7 -460.807 482.462 1
-1 -7 6 13510.6 1611.23 1
1 7 -6 13462.7 1612.52 3
-1 -7 5 10903.1 1350.65 1
1 7 -5 11013.9 1398.76 3
1 7 -4 2698.75 653.974 3
-1 -7 4 2112.03 579.362 1
1 7 -3 4156.14 788.694 3
-1 -7 3 1774.57 503.276 1
1 7 -2 28076 1923.39 3
-1 -7 2 27462.7 1807.23 1
-1 -7 1 15727.7 1316.11 1
1 7 -1 14543.9 1332.33 3
1 7 0 347.489 251.933 3
1 7 1 34671.1 1972.52 3
1 7 2 31228.1 1878.9 3
1 7 4 2722.11 589.225 3
1 7 5 116189 3898.51 3
1 7 6 38197.6 2340.04 3
1 7 7 2936.08 703.184 3
1 7 8 8131.53 1226.99 3
-1 -7 -9 53805.2 3051.59 4
1 7 9 59909.9 3429.38 3
1 7 10 44509 3112.06 3
-1 -7 -10 44814.4 2933.86 4
-1 -7 -11 2892.61 805.02 4
1 7 11 3226.81 873.861 3
-1 -7 -12 10640.7 1579.78 4
-1 -8 6 19029.3 2021.88 1
1 8 -6 22986.4 2160.59 3
1 8 -5 30165.8 2390.92 3
-1 -8 5 32237.2 2492.15 1
-1 -8 4 -219.432 212.721 1
1 8 -4 -146.338 160.723 3
1 8 -3 15396 1595.29 3
-1 -8 3 15847.5 1567.63 1
1 8 -2 61209.3 3031.98 3
-1 -8 2 59944.7 2907.81 1
1 8 -1 26651 1959.46 3
-1 -8 1 26283.5 1858.49 1
1 8 0 1295.7 491.756 3
1 8 1 38020.6 2260 3
1 8 2 89718.7 3458.26 3
1 8 3 48554.9 2569.19 3
1 8 4 1525.63 489.565 3
1 8 5 49834.6 2721.78 3
1 8 6 69451.2 3340.82 3
1 8 7 29830.9 2269.06 3
-1 -8 -8 3198.71 757.999 4
1 8 8 2800.49 778.647 3
-1 -8 -9 50329.6 3087.86 4
1 8 9 47538.3 3182.46 3
-1 -8 -10 51899.6 3266.21 4
1 8 10 49688.1 3389.52 3
-1 -8 -11 6483.28 1207.41 4
1 8 11 6640.48 1321.49 3
1 9 -4 3836.03 851.998 3
1 9 -2 47804.5 2885.87 3
-1 -9 2 48530.8 2821.31 1
1 9 -1 51385.5 2921.97 3
1 9 0 2484.17 648.432 3
1 9 1 15360.9 1554.71 3
1 9 2 71342.3 3344.04 3
1 9 3 29308.1 2156.08 3
1 9 4 1083.44 442.252 3
1 9 5 25982 2107.62 3
1 9 6 44807.6 2850.49 3
-1 -9 -7 21179.9 1902.92 4
1 9 7 26735.1 2267.64 3
-1 -9 -8 7770.51 1206.4 4
1 9 8 7603.32 1269.52 3
1 9 9 27570.5 2532.87 3
-1 -9 -9 26391.8 2333.56 4
-1 -9 -10 17016.2 1962.33 4
1 9 10 12695.1 1786.44 3
-1 -9 -10 15569 1597.68 2
1 10 -2 54779.3 3251.02 3
-1 -10 2 53744.8 3179.43 2
1 10 -1 10129.3 1370.63 3
1 10 0 11973.3 1488.04 3
1 10 1 7609.78 1177.73 3
1 10 3 15356.1 1671.43 3
1 10 4 -45.1086 219.165 3
1 10 5 10368.4 1439.25 3
-1 -10 -5 11394.4 1331.37 4
-1 -10 -6 14652.5 1590.08 4
1 10 6 15372.1 1788.57 3
1 10 7 1381.85 558.064 3
-1 -10 -7 2285.55 705.418 4
-1 -10 -8 1258.91 575.472 4
1 10 8 2090.72 700.213 3
-1 -10 -9 12318.7 1655.8 4
1 10 9 15374.3 1969.02 3
-1 -10 -10 2832.28 742.393 2
1 11 1 11910.9 1565.97 3
1 11 2 21883 2123.72 3
1 11 3 1018.71 449.186 3
1 11 4 12299 1625.15 3
1 11 5 12087.7 1624.61 3
1 11 6 19324.6 2111.65 3
-1 -11 -7 -843.909 424.074 4
1 11 7 603.538 424.913 3
-1 -11 -8 12688.9 1661.08 4
1 11 8 10210.7 1604.92 3
1 12 4 7837.44 1347.73 3
2 -10 -8 21115.9 2086.08 2
2 -10 -7 11982.4 1616.3 4
2 -10 -7 9810.26 1415.67 2
2 -10 -6 2424.68 750.108 2
2 -10 -6 2163.07 684.194 4
2 -10 -5 12857.9 1617.84 2
2 -10 -4 37194 2753.02 2
2 -10 -3 4063.14 922.601 2
2 -10 -2 3510.78 855.792 2
2 -10 -1 20148.5 2027.79 2
2 -10 0 26861.6 2314.99 2
2 -10 1 2462.57 738.305 2
2 -10 2 5716.29 1073.89 2
2 -10 3 12295.7 1575.41 2
-2 9 8 19816.5 2071.99 3
2 -9 -8 22099.6 2010.47 2
2 -9 -8 22387.3 2242.74 4
2 -9 -7 9267.87 1299.42 2
2 -9 -7 7841.99 1272.4 4
-2 9 7 8121.63 1266.03 3
2 -9 -6 50.3744 191.359 4
2 -9 -6 289.985 317.324 2
-2 9 6 136.689 254.822 3
-2 9 5 17698.5 1711.74 3
2 -9 -5 17516.5 1698.28 4
2 -9 -5 16421.7 1710.27 2
2 -9 -4 27591.8 2208.08 2
2 -9 -4 26025.3 1964.78 4
2 -9 -3 6830.34 1116.9 2
2 -9 -2 2909.69 733.848 2
2 -9 -1 17488.6 1746.09 2
2 -9 0 15273.7 1638.23 2
2 -9 1 1463.54 489.657 2
2 -9 2 2825.84 726.717 2
2 -9 3 21938.6 1953.87 2
2 -9 4 8088.68 1453.3 1
2 -8 -9 3779.87 955.239 4
2 -8 -8 13488.7 1660.87 4
-2 8 8 10160.4 1437 3
2 -8 -8 11799 1371.05 2
2 -8 -7 18934.1 1876.84 4
-2 8 7 15471 1689.47 3
2 -8 -7 17279.4 1637.35 2
2 -8 -6 8555.82 1206.89 4
-2 8 6 8206.23 1170.91 3
2 -8 -6 8264.78 1147.6 2
2 -8 -5 7282.45 1082.06 2
-2 8 5 10195 1248.72 3
2 -8 -5 8017.05 1093.77 4
2 -8 -4 12148.4 1281.85 4
2 -8 -4 12073.2 1364.96 2
-2 8 4 12847.3 1332.45 3
-2 8 3 697.689 330.055 3
2 -8 -3 877.797 337.434 4
2 -8 -3 842.594 420.512 2
2 -8 -2 10997.6 1301.3 2
2 -8 -2 10880.1 1069.29 4
-2 8 2 10919.3 1108.7 3
2 -8 -1 26053.5 1987.63 2
2 -8 0 13897.7 1446 2
2 -8 1 6987.94 1027.59 2
2 -8 2 35759 2317.94 2
2 -8 3 23774.4 2191.13 1
2 -8 3 26252.7 1994.15 2
2 -8 4 2717.11 674.397 2
2 -8 4 2287.93 755.388 1
2 -8 5 17550.3 2010.58 1
2 -8 6 35263.9 2945.87 1
2 -7 -10 5400.13 1137.7 4
2 -7 -9 17470.7 1917.98 4
2 -7 -8 21189.5 2006.03 4
2 -7 -8 21979.6 1726.07 2
-2 7 7 9889.31 1306.52 3
2 -7 -7 9714.42 1134.02 2
2 -7 -7 8980.34 1263.79 4
2 -7 -6 21764 1697.61 2
-2 7 6 26001.4 1989.65 3
2 -7 -6 24670.9 1962.94 4
2 -7 -5 38959.9 2261.74 2
2 -7 -5 41212.6 2393.26 4
-2 7 5 37585.2 2257.06 3
2 -7 -4 31864.1 2040.88 2
2 -7 -4 31048.5 1958.84 4
-2 7 4 31369.9 1951.49 3
-2 7 3 1656.34 460.538 3
2 -7 -3 1961.28 486.001 4
2 -7 -3 1664.62 500.149 2
2 -7 -2 41103.9 1997.75 4
-2 7 2 41744.5 2013.15 3
2 -7 -2 39553.8 2264.8 2
-2 7 1 102127 3012.24 3
2 -7 -1 100980 2848.75 4
2 -7 -1 98248.7 3558.84 2
-2 7 0 3939.02 583.87 3
2 -7 0 5272.91 837.998 2
2 -7 1 4548.4 770.474 2
-2 7 -1 5567.82 680.317 3
2 -7 2 56822.7 3045.7 1
2 -7 2 55155 2659.17 2
2 -7 3 44251.5 2770 1
2 -7 3 46289.6 2429 2
2 -7 4 10440.4 1411.22 1
2 -7 4 13777.8 1335 2
2 -7 5 29060.2 2420.87 1
2 -7 6 43046.1 3054.03 1
2 -7 7 24425.6 2404.02 1
2 -6 -11 2295.92 755.64 4
2 -6 -10 14458.3 1779.3 4
2 -6 -9 43420.7 2931.3 4
2 -6 -8 44274.7 2816.95 4
2 -6 -8 42757.6 2211.02 2
2 -6 -7 2474.75 535.441 2
2 -6 -7 2667.41 654.874 4
-2 6 7 1857.24 562.501 3
2 -6 -6 32219.4 2151.15 4
2 -6 -6 30847 1854.71 2
-2 6 6 29282.4 2029.54 3
2 -6 -5 171543 4356.26 2
2 -6 -5 166258 4611.83 4
-2 6 5 170135 4584.84 3
2 -6 -4 37987.9 2076.38 4
-2 6 4 41171.7 2115.07 3
2 -6 -4 37807.2 2056.96 2
2 -6 -3 528.61 279.433 4
2 -6 -3 235.199 201.804 2
-2 6 3 39.6932 109.952 3
2 -6 -2 73373.6 2523.06 4
2 -6 -2 73294.3 2837.08 2
-2 6 2 74334.5 2480.28 3
2 -6 -1 142375 3946.99 2
-2 6 1 140910 3217.06 3
2 -6 -1 144973 3276.62 4
2 -6 0 47798.4 2282.66 2
-2 6 0 50049.1 1844.66 3
2 -6 0 49645.6 1731.65 4
2 -6 1 23.6553 122.325 2
-2 6 -1 36.7862 105.356 3
2 -6 2 69040.4 3093.08 1
-2 6 -2 70750.9 2196.08 3
2 -6 2 72205.6 2796.9 2
-2 6 -3 93055.3 2647.3 3
2 -6 3 100452 3846.77 1
2 -6 3 94892.1 3189.2 2
2 -6 4 16359.5 1611.71 1
2 -6 4 13157 1208.48 2
2 -6 5 2280.79 636.945 1
2 -6 5 2205.55 495.323 2
2 -6 6 27166 2266.02 1
2 -6 7 24941.8 2274.13 1
2 -6 8 9585.89 1489.98 1
2 -5 -11 7390.33 1306.23 4
2 -5 -10 3451.54 886.536 4
2 -5 -9 48773.7 3048 4
2 -5 -8 44219.1 2730.65 4
2 -5 -8 44460.8 2033.04 2
2 -5 -7 3285.19 715.067 4
2 -5 -7 3599.79 591.864 2
-2 5 6 36420.6 2185.68 3
2 -5 -6 37312.1 1869.6 2
2 -5 -6 36202.5 2203.52 4
-2 5 5 68604.4 2795.33 3
2 -5 -5 68817 2518.21 2
2 -5 -5 65831.9 2789.6 4
-2 5 4 51418.5 2249.19 3
2 -5 -4 49208.2 2145.98 2
2 -5 -4 51114.1 2304.38 4
-2 5 3 2266.13 455.689 3
2 -5 -3 2868.03 530.038 2
2 -5 -3 2671.8 518.064 4
2 -5 -2 56320.6 2104.41 4
-2 5 2 60431.9 2073.84 3
2 -5 -2 58006.7 2310.32 2
2 -5 -1 95521.1 2534.33 4
-2 5 1 87103.1 2296.45 3
2 -5 -1 90408.7 2879.84 2
2 -5 0 44908.1 1578.7 4
-2 5 0 47438.3 1594.1 3
2 -5 0 45458 2041.65 2
2 -5 1 401.992 136.271 4
2 -5 1 392.53 217.309 2
2 -5 1 405.668 246.758 1
-2 5 -1 643.049 183.078 3
-2 5 -2 61774.1 1835.84 3
2 -5 2 61283.1 2357.19 2
2 -5 2 63101.9 2750.23 1
2 -5 3 9097.65 1083.23 1
2 -5 3 9891.14 948.392 2
-2 5 -3 10835.5 820.824 3
2 -5 4 37120.7 2271.09 1
2 -5 4 39330.6 1890.84 2
-2 5 -4 40815.5 1710.13 3
-2 5 -5 3037.56 519.453 3
2 -5 5 4463.09 815.382 1
2 -5 5 3586.5 610.112 2
2 -5 6 24270.6 2018.68 1
2 -5 7 13957.7 1651.84 1
2 -5 8 -43.3317 145.465 1
2 -5 9 7877.7 1077.9 6
2 -5 9 5699.8 1154.58 1
2 -4 -12 17351.6 2023.15 4
2 -4 -11 10585.9 1536.39 4
2 -4 -10 4192.74 936.665 4
2 -4 -9 34446.8 2465.65 4
2 -4 -8 27736.9 2097.23 4
2 -4 -7 62.1831 249.198 4
2 -4 -7 769.92 252.094 2
2 -4 -6 1772.29 482.204 4
2 -4 -6 2068.12 412.884 2
-2 4 5 54423.7 2400.45 3
2 -4 -5 59738 2564.06 4
2 -4 -5 62882.8 2192.4 2
-2 4 4 36557.5 1805.33 3
2 -4 -4 33989 1802.89 4
2 -4 -4 36590 1657.34 2
2 -4 -3 564.57 228.44 2
-2 4 3 369.604 193.153 3
2 -4 -2 72892 2340.23 2
2 -4 -2 76566.7 2325.28 4
-2 4 2 78896.2 2193.04 3
2 -4 -1 5836.6 594.533 4
2 -4 -1 5322.73 640.434 2
-2 4 1 7229.22 592.867 3
2 -4 0 33846 1601.24 2
2 -4 0 32347.1 1270.44 4
-2 4 0 32566.6 1140.72 3
2 -4 1 210.835 162.478 2
2 -4 1 22.1051 56.0985 4
2 -4 1 74.0428 184.09 1
-2 4 -1 114.231 75.9796 3
2 -4 2 50059.4 2215.98 1
2 -4 2 51883.1 1954.08 2
2 -4 2 49199.6 1055.93 4
2 -4 3 30575.6 1503.33 2
2 -4 3 30456.5 1801.3 1
-2 4 -3 31671.1 1248.86 3
2 -4 4 491.909 204.486 2
-2 4 -4 388.976 168.948 3
2 -4 5 10929.1 1228.73 1
2 -4 5 10899.3 922.607 2
2 -4 5 11312.1 988.309 6
-2 4 -5 11271.3 907.946 3
2 -4 6 33416.6 1580.51 2
2 -4 6 32385.4 2224.29 1
2 -4 6 36325.3 1860.3 6
-2 4 -6 32789.6 1700.35 3
-2 4 -7 7661.59 900.588 3
2 -4 7 6065.32 807.934 6
2 -4 7 8482.57 1206.67 1
2 -4 8 4351.56 730.756 6
2 -4 8 5959.89 1068.03 1
2 -4 9 6108.21 926.741 6
2 -4 9 7376.14 1281.36 1
2 -4 10 25316.7 1926.29 6
2 -4 10 28704.8 2661.12 1
2 -3 -12 11710.2 1611.15 4
2 -3 -11 -155.277 307.766 4
2 -3 -10 87.6445 221.388 4
2 -3 -9 32846 2337.94 4
2 -3 -8 6034.86 975.474 4
2 -3 -7 751.025 218.234 2
2 -3 -7 559.609 307.132 4
2 -3 -6 10980.5 835.537 2
2 -3 -6 11147.5 1157.34 4
2 -3 -5 59732.2 2476.61 4
2 -3 -5 55473.2 1868.06 2
2 -3 -4 784.681 298.103 4
2 -3 -4 990.97 262.956 2
2 -3 -3 21815.3 1303.72 4
-2 3 3 19925.5 1148.86 3
2 -3 -3 20829.6 1127.98 2
2 -3 -2 58346.3 1938.79 4
2 -3 -2 54421.2 1804.49 2
-2 3 2 56701.9 1711.95 3
2 -3 -1 89644.8 2192.67 4
-2 3 1 84505.1 1832.8 3
2 -3 -1 85122.9 2249.19 2
2 -3 0 8101.61 458.227 3
-2 3 0 8140.38 483.332 3
2 -3 0 9637.72 764.711 2
2 -3 0 8549.56 613.874 4
2 -3 1 88361 2580.93 1
-2 3 -1 85485.7 1394.34 3
2 -3 1 84305.9 2234.31 2
2 -3 1 85562.7 1732.7 4
2 -3 2 240055 2343.85 4
-2 3 -2 242030 2293.33 4
2 -3 2 240523 4394.3 1
2 -3 2 243615 3803.46 2
-2 3 -2 243855 2564.85 3
-2 3 -3 77880.6 1701.48 3
2 -3 3 80245.5 2201.48 2
2 -3 3 75052.7 2135.86 6
2 -3 3 83597.7 2744.16 1
2 -3 4 10244.1 837.129 6
2 -3 4 10547.8 809.769 2
2 -3 4 11072.3 1075.48 1
-2 3 -4 10044.8 705.354 3
2 -3 5 36879.5 1517.71 2
2 -3 5 37310.4 2084.09 1
2 -3 5 37055.4 1671.96 6
2 -3 6 165623 3111.47 2
2 -3 6 158054 3680.88 6
2 -3 7 41367.2 2517.54 1
2 -3 7 44253.7 2081.69 6
2 -3 8 9486.76 1307.32 1
2 -3 8 6515.37 856.667 6
2 -3 9 59526.7 2748.47 6
2 -3 9 54931.8 3317.63 1
2 -3 10 53764.1 3494.35 1
2 -3 10 52716.2 2742.37 6
2 -3 11 3647.8 783.147 6
2 -2 -12 9291.87 1428.53 4
2 -2 -11 247.071 237.74 4
2 -2 -10 5252.51 983.685 4
2 -2 -9 46478.3 2690.53 4
2 -2 -8 14665.4 1444.98 4
2 -2 -7 1972.74 542.538 4
2 -2 -6 42846.8 2151.58 4
2 -2 -6 46246.1 1488.31 2
2 -2 -5 61864.6 2416 4
2 -2 -5 63796.2 1784.34 2
2 -2 -4 35027.9 1320.03 2
2 -2 -4 32568.9 1629.21 4
2 -2 -3 11666.9 921.188 4
2 -2 -3 10970.4 741.98 2
2 -2 -3 10933.1 684.852 5
2 -2 -2 229087 3348.34 2
2 -2 -2 236100 3745.53 4
2 -2 -1 144451 2675.48 4
2 -2 -1 144978 2659.08 2
-2 2 0 533.989 102.137 3
2 -2 0 356.465 147.896 4
2 -2 0 520.641 99.434 3
2 -2 0 493.617 159.824 2
2 -2 1 148622 2167.04 4
2 -2 1 153912 2990.03 1
2 -2 1 147912 2674.37 2
-2 2 -2 260613 2013.6 3
-2 2 -2 263317 2486.11 4
2 -2 2 260161 3547.56 2
2 -2 2 258583 4049.37 1
2 -2 3 101170 2224.28 2
-2 2 -3 100688 1391.78 4
2 -2 3 104148 2805.83 1
2 -2 3 106479 2102.91 5
2 -2 4 1147.2 284.17 6
2 -2 4 1390.8 374.551 1
-2 2 -4 1175.48 148.257 4
2 -2 4 1287.29 261.099 2
2 -2 5 166943 4134.51 1
2 -2 5 169477 2851.13 2
2 -2 5 172328 3435.26 6
-2 2 -6 186638 2114.31 4
2 -2 6 190891 2925.14 2
2 -2 6 183775 4644.57 1
2 -2 6 190029 3900.36 6
2 -2 7 19829 1668.4 1
2 -2 7 19752.5 1354.09 6
2 -2 8 2272.91 652.704 1
2 -2 8 2427.82 524.498 6
2 -2 9 63814.1 2780.23 6
2 -2 9 65215.5 3457.62 1
2 -2 10 62383.7 2934.68 6
2 -2 10 66951.3 3766.5 1
2 -2 11 6527.25 1276.03 1
2 -2 11 5152.37 920.884 6
2 -2 12 -528.131 309.951 6
2 -1 -11 593.274 345.817 4
-2 1 11 -163.784 364.138 1
2 -1 -10 37972.2 2512.67 4
2 -1 -9 70409.8 3207.68 4
2 -1 -8 30939.8 2010.59 4
2 -1 -7 603.937 313.551 4
2 -1 -6 133021 3657.83 4
2 -1 -5 210570 4303.94 4
2 -1 -4 59209.9 1389.87 5
2 -1 -4 55296.1 2050.36 4
2 -1 -4 54824.4 1495.74 2
2 -1 -3 15650.1 1015.77 4
2 -1 -3 16970.4 750.335 5
2 -1 -2 267992 3828.33 4
2 -1 -2 261901 3195.77 2
2 -1 -2 262056 2961.29 5
2 -1 -1 303249 3748.55 4
2 -1 -1 293404 3386.02 2
2 -1 0 74547.3 1717.63 2
2 -1 0 76865.3 1718.58 4
2 -1 0 75783.6 1126.63 3
2 -1 1 31449.2 1150.52 1
2 -1 1 32296.4 1113.76 2
2 -1 1 30800.9 969.886 4
2 -1 2 183177 2960.59 1
2 -1 2 180688 2641.95 2
-2 1 -2 186475 1445.44 3
2 -1 2 183906 2490.82 5
-2 1 -3 263088 2659.29 3
2 -1 3 273615 4048.71 1
2 -1 3 271090 3221.31 2
2 -1 3 266518 2954.65 5
2 -1 4 5587.21 660.586 1
2 -1 4 6130.17 491.153 2
2 -1 4 6942.25 478.952 5
2 -1 5 30360.4 1639.44 1
2 -1 5 29260.6 968.785 5
2 -1 5 28326.7 1026.26 2
2 -1 6 68057.6 2663.78 1
2 -1 6 71070.9 2302.25 6
-2 1 -7 21876.7 1046.83 4
2 -1 7 22276.9 1663.06 1
2 -1 7 22396.3 1402.08 6
2 -1 8 5066.88 883.393 1
2 -1 8 4228.81 665.979 6
2 -1 9 40456 2168.77 6
2 -1 9 35909 2468.42 1
2 -1 10 28573.2 1949.33 6
2 -1 10 28942.5 2388.78 1
2 -1 11 1065.98 415.526 6
2 -1 11 777.044 469.639 1
2 -1 12 1253.92 565.141 1
2 -1 12 1407.07 525.084 6
-2 0 11 582.07 416.036 1
-2 0 10 16277.4 1860.38 1
2 0 -9 59471 2873.85 4
2 0 -8 35760.4 2096.05 4
2 0 -7 730.975 291.34 4
2 0 -6 92677.1 2947.98 4
2 0 -5 122555 1738.83 5
2 0 -5 119339 3140.79 4
2 0 -4 17607.1 1120.89 4
2 0 -4 17687.5 693.21 5
2 0 -3 8881.9 491.314 5
2 0 -3 8313.47 715.641 4
2 0 -2 41407.9 1484.41 4
2 0 -2 42401.1 1070.12 5
2 0 -1 620383 5274.58 4
2 0 -1 629564 4091.01 5
2 0 0 44286.4 1274.97 4
2 0 1 11656.1 425.539 3
2 0 1 12064.2 595.78 1
-2 0 -1 11478.5 563.096 1
-2 0 -1 11214.3 418.497 3
-2 0 -2 52106.9 961.626 3
2 0 2 51125.5 1331.01 1
2 0 2 52336.1 999.454 3
2 0 3 82601.9 1625.79 3
2 0 3 86743.2 1540.62 5
2 0 3 85082.8 1978.67 1
2 0 4 164.669 106.549 3
2 0 4 56.8138 132.537 1
2 0 4 285.58 99.2843 5
2 0 5 17589.8 1158.1 1
2 0 5 18156.3 700.521 5
2 0 6 51811.2 2199.77 1
2 0 6 51280.8 1142.43 5
2 0 7 10556.8 1101.14 1
2 0 7 9014.45 431.945 5
2 0 8 8827.61 1098.08 1
-2 0 -8 10904.4 899.25 4
-2 0 -9 22659.4 1376.15 4
2 0 9 23480.3 1925.77 1
2 0 10 15524.1 1698.57 1
2 0 10 12773.7 1299.98 6
2 0 11 -77.8157 190.866 6
2 0 11 271.404 257.457 1
2 0 12 5033.37 1129.35 1
2 0 12 4667.67 918.239 6
-2 -1 10 18999.2 2051.24 1
-2 -1 9 19201 1907.79 1
2 1 -8 14108.2 1271.75 4
-2 -1 8 15721.4 1602.01 1
2 1 -7 3608.65 622.15 4
2 1 -6 16866.3 1237.92 4
2 1 -5 64576.2 2242.58 4
2 1 -5 62692 1198.35 5
2 1 -4 4003.64 526.739 4
2 1 -4 4403.44 341.51 5
2 1 -3 17935 1028.58 4
2 1 -3 15761.4 671.159 5
2 1 -2 87072 2092.75 4
2 1 -1 22953.3 993.744 4
-2 -1 0 5303.83 216.985 6
2 1 0 5019.31 415.557 3
2 1 1 4416.95 253.164 6
2 1 1 4004.44 344.351 3
2 1 2 57205.8 1300.89 3
2 1 2 54388.9 1110.63 1
-2 -1 -2 58640.4 1067.23 1
2 1 3 26294 946.242 1
2 1 3 24941.1 983.731 3
2 1 4 14500 878.427 3
2 1 4 14340.9 836.958 1
2 1 5 93458.8 2439.9 1
2 1 5 91200.5 2463.6 3
2 1 6 39247.9 1782.18 3
2 1 6 41336.4 1821.33 1
2 1 6 40635 1038.71 5
2 1 7 1241.56 385.332 1
2 1 7 1816.61 206.428 5
2 1 8 12806.2 1253.64 1
-2 -1 -9 60223.5 2419.94 4
2 1 9 59130.6 2920.16 1
-2 -1 -10 25115.5 1637.99 4
2 1 10 26856.6 2126.66 1
2 1 11 1823.82 603.504 1
2 1 12 35231 2855.72 1
2 1 13 39468.9 2717.32 6
-2 -2 10 10507.4 1591.68 1
-2 -2 9 7714.54 1224.78 1
-2 -2 8 1027.42 463.552 1
2 2 -7 11999.8 1060.08 4
-2 -2 7 9647.15 1188.69 1
-2 -2 6 47701.5 2399.16 1
2 2 -6 51327.9 2067.77 4
2 2 -5 21638.8 1260.77 4
2 2 -5 18846 732.498 5
-2 -2 5 19532.4 1403.94 1
-2 -2 4 2602.93 476.183 1
2 2 -4 2514.79 393.386 4
2 2 -3 85216.2 2181.95 4
-2 -2 3 84098.4 2315.35 1
2 2 -2 84711 2049.98 4
-2 -2 2 75613.5 1899.1 1
-2 -2 1 67575.4 1468.02 1
2 2 -1 69188.7 1951.18 3
2 2 0 5058.11 496.233 3
-2 -2 0 5494.7 305.203 1
2 2 1 194402 2873.72 3
2 2 2 496754 2257.87 1
2 2 2 505541 4611.52 3
2 2 3 11898.5 764.332 3
2 2 4 25475.4 1235.37 3
2 2 5 128980 3090.96 3
2 2 6 201434 4259.64 3
2 2 7 30451.4 1795.03 3
2 2 7 30015.3 1662.18 1
2 2 8 48667.7 2431.5 3
2 2 8 48702.1 2330.19 1
2 2 9 88152.8 3424.58 1
-2 -2 -10 48339.4 2407.36 4
2 2 10 48873.3 2761.79 1
-2 -2 -11 445.975 282.032 4
2 2 11 -145.1 274.029 1
2 2 12 34989.4 2779.57 1
2 2 13 26440.4 2562.52 1
-2 -3 10 11256.2 1689.3 1
-2 -3 9 22486.8 2205.81 1
-2 -3 8 2436.11 661.281 1
-2 -3 7 49770.6 2811.34 1
-2 -3 6 13045.5 1332.15 1
-2 -3 6 16050.7 1011.33 6
2 3 -6 16361.7 1115.58 4
2 3 -5 54590.2 1949.17 4
-2 -3 5 56027.1 2497.41 1
-2 -3 4 93.8076 121.628 1
-2 -3 4 0.29621 54.5401 6
-2 -3 3 104452 2761.27 1
-2 -3 3 100131 1712.14 6
-2 -3 2 174251 3161.53 1
2 3 -2 170491 3656.67 3
-2 -3 2 179245 1834.69 6
-2 -3 1 99555.2 2027.44 1
2 3 -1 96843.5 2579.1 3
-2 -3 0 36088.5 976.435 1
2 3 0 34846.2 1465.51 3
2 3 1 290080 4033.84 3
2 3 1 285619 2033.47 1
2 3 2 312827 2198.73 1
2 3 2 319277 4221.87 3
2 3 3 103065 2496.43 3
2 3 4 41752.2 1694.82 3
2 3 5 227903 4308.24 3
2 3 6 244631 4888.39 3
2 3 7 27309.1 1761.88 3
2 3 8 88836.5 3419.65 3
2 3 9 28787.5 2056.67 3
-2 -3 -10 88438.6 3417.04 4
2 3 10 85771.4 3569.56 1
-2 -3 -11 4763.88 852.114 4
2 3 11 4004.81 849.866 1
-2 -3 -12 22740.2 1912.32 4
2 3 12 20990.3 2093.01 1
2 3 13 25719.3 2476.7 1
-2 -4 9 48121.3 3330.59 1
2 4 -9 48877.8 3347.85 3
-2 -4 8 9086.64 1350.11 1
-2 -4 7 15698.8 1650.9 1
-2 -4 6 50492.4 2714.31 1
2 4 -6 50220.2 2778.05 3
-2 -4 5 108707 3654.2 1
2 4 -5 111140 3873.99 3
-2 -4 4 7057.25 855.425 1
2 4 -4 7415.66 959.252 3
-2 -4 4 8184.75 583.879 6
-2 -4 3 69333.9 1500.21 6
2 4 -3 67867.4 2679.21 3
-2 -4 3 62908.3 2307.22 1
2 4 -2 133829 3550.65 3
-2 -4 2 141309 3085.9 1
2 4 -1 46843.2 1983.55 3
-2 -4 1 49522.3 1602.4 1
2 4 0 17048.5 1144.24 3
-2 -4 0 17270.1 811.577 1
2 4 0 17232.6 532.498 6
2 4 1 115507 1855.32 1
2 4 1 112153 2831.15 3
2 4 2 186840 3621.61 3
2 4 2 199877 2276.31 1
2 4 3 44907.9 1817.98 3
2 4 4 33695.6 1655.38 3
2 4 5 62840.2 2404.88 3
2 4 6 64617.9 2610.39 3
2 4 7 5371.9 827.997 3
2 4 8 11979.8 1311.68 3
2 4 9 40091.1 2514.2 3
2 4 10 14818.8 1621.93 3
-2 -4 -11 673.254 385.83 4
2 4 12 8803.89 1335.8 1
-2 -4 -12 10006.6 1323.2 4
-2 -4 -13 12060.6 1486.02 4
2 4 13 11355.3 1594.57 1
-2 -5 9 28094.9 2636.46 1
-2 -5 8 7770.41 1300.77 1
2 5 -8 7254.33 1234.01 3
2 5 -7 6152.38 1094.85 3
-2 -5 7 6147.76 1081.87 1
2 5 -6 65842.3 3336.36 3
-2 -5 6 64716.2 3201.34 1
-2 -5 5 21851.1 1713.23 1
2 5 -5 22360 1853.78 3
-2 -5 4 4556.03 747.955 1
2 5 -4 4808.05 844.006 3
2 5 -3 17986 1488.22 3
-2 -5 3 17376.6 1304.06 1
-2 -5 2 69287.5 2346.8 1
2 5 -2 62057.6 2618.01 3
-2 -5 1 41561.8 1626.63 1
2 5 -1 36219.5 1910.56 3
2 5 0 1776.13 429.537 3
-2 -5 0 1670.44 296.404 1
2 5 1 73984.3 2540.71 3
2 5 2 27304.7 1530.72 3
2 5 3 1366.55 372.603 3
2 5 4 7644.01 856.691 3
2 5 5 48274.7 2233.71 3
2 5 6 19498.2 1507.14 3
2 5 7 609.597 315.13 3
2 5 8 34669.9 2282.38 3
2 5 9 25094 2050.55 3
2 5 10 5423.99 1026.01 3
-2 -5 -11 8525.42 1226.5 4
2 5 11 7656.73 1286.5 3
-2 -5 -12 11283.3 1472.21 4
-2 -5 -13 19631.9 2028.48 4
2 5 13 19849.3 2080.42 1
-2 -6 8 1079.53 532.867 1
2 6 -7 5079.36 1081.35 3
-2 -6 7 5374.25 1050.36 1
-2 -6 6 10372.4 1353.39 1
2 6 -6 13309 1597.07 3
-2 -6 5 8314.27 1138.95 1
2 6 -5 9196.21 1267.94 3
2 6 -4 937.813 430.88 3
-2 -6 4 659.084 327.32 1
-2 -6 3 23902.1 1618.09 1
2 6 -3 22803.3 1788.19 3
-2 -6 2 20898.6 1395.78 1
2 6 -2 19501.8 1587.05 3
-2 -6 1 813.491 272.358 1
2 6 -1 780.844 364.682 3
-2 -6 0 29234 1433.96 1
2 6 0 26910.3 1728.97 3
2 6 1 37616.4 1991.31 3
2 6 2 550.552 251.62 3
2 6 3 8927.97 977.159 3
2 6 4 104885 3416.73 3
2 6 5 59451.7 2649.86 3
2 6 6 7323.76 984.165 3
2 6 7 11774.6 1309.61 3
2 6 8 46857.3 2746.39 3
2 6 9 59045.8 3249.18 3
2 6 10 12535.2 1592.25 3
-2 -6 -11 14293.6 1644.24 4
2 6 11 12547.5 1660.7 3
-2 -6 -12 51744.1 3267.06 4
2 6 12 58282.4 3752.09 3
-2 -6 -13 23853.8 2331.3 4
-2 -7 6 36851 2612.01 1
2 7 -6 37518.4 2822.2 3
2 7 -5 413.967 418.297 3
-2 -7 5 -177.925 264.834 1
-2 -7 4 10723.9 1234.94 1
2 7 -4 10247.1 1337.55 3
-2 -7 3 45219.5 2380.97 1
2 7 -3 49287.4 2799.87 3
-2 -7 2 22304.1 1565.28 1
2 7 -2 22775.7 1837.11 3
-2 -7 1 11428.5 1059.1 1
2 7 -1 10551.7 1207.45 3
-2 -7 0 33139.4 1705.75 1
2 7 0 29710.1 1947 3
2 7 1 85973.8 3244.25 3
2 7 2 49608.9 2449.44 3
2 7 3 1411.41 472.153 3
2 7 4 43678.3 2367.79 3
2 7 5 85175.4 3404.96 3
2 7 6 30050.4 2089.78 3
2 7 7 13.7647 169.008 3
2 7 8 31922.6 2344.62 3
2 7 9 96443.3 4295.77 3
2 7 10 5147.69 1075.53 3
2 7 11 6992.41 1273.21 3
-2 -7 -11 5196.16 1048.35 4
-2 -7 -12 32478.6 2696.17 4
2 7 12 32242 2885.75 3
2 8 -5 1865 683.173 3
2 8 -4 4274.95 944.137 3
2 8 -3 43054.7 2799.38 3
2 8 -2 79468.9 3655.17 3
2 8 -1 5057.33 903.179 3
-2 -8 1 6117.01 867.887 1
2 8 0 22284.2 1843.56 3
2 8 1 98250.6 3763.7 3
2 8 2 78152.1 3324.8 3
2 8 3 5116.59 887.846 3
2 8 4 17376.1 1603 3
2 8 5 122433 4352.4 3
2 8 6 52811.4 2926.21 3
2 8 7 -400.974 306.028 3
2 8 8 24736.5 2161.8 3
2 8 9 48613.8 3177.53 3
2 8 10 11315.9 1619.03 3
-2 -8 -11 -438.364 340.108 4
2 8 11 41.6361 138.621 3
2 9 -4 -542.778 433.765 3
2 9 -3 39949.5 2832 3
2 9 -1 9708.59 1329.94 3
2 9 0 2889.9 727.805 3
2 9 1 39147.9 2554.34 3
2 9 2 34581.4 2397 3
2 9 3 1044.91 492.731 3
2 9 4 23147.2 1986.55 3
2 9 5 28321.3 2228.93 3
2 9 6 7420.84 1182.28 3
2 9 7 41.3596 110.71 3
2 9 8 29508.9 2479.45 3
2 9 9 12099.7 1653.41 3
2 9 10 440.076 327.079 3
-2 -9 -10 1079.55 506.856 4
-2 -9 -11 1327.35 588.093 4
2 9 11 824.471 466.758 3
2 10 -2 10459.2 1503.35 3
2 10 -1 511.673 418.784 3
2 10 0 3433.45 823.239 3
2 10 1 23937.2 2159.91 3
2 10 2 8068.16 1247.28 3
2 10 3 9330.52 1358.73 3
2 10 4 7568.46 1219.45 3
2 10 5 19917.2 1994.46 3
2 10 6 1168.13 500.97 3
2 10 7 5816.82 1124.99 3
2 10 8 33023.3 2771.03 3
2 10 9 6407.22 1251.32 3
-2 -10 -10 -404.643 401.336 4
2 11 0 6165.37 1205.98 3
2 11 1 21333.9 2172.51 3
2 11 2 1153.23 575.056 3
2 11 3 14252.3 1810.34 3
2 11 4 27174.3 2461 3
2 11 5 25654.6 2412.31 3
2 11 6 647.635 412.847 3
2 11 7 18461.4 2129.62 3
-2 -11 -8 30245.4 2547.38 4
2 11 8 27377.4 2657.7 3
3 -10 -6 6377.57 1191.57 4
3 -10 -5 21947.8 2179.06 2
3 -10 -4 11246.8 1529.53 2
3 -10 -3 59.344 202.585 2
3 -10 -2 8644.96 1383.86 2
3 -10 -1 3935.74 959.185 2
3 -10 0 10514.7 1524.26 2
3 -9 -8 4756.37 1000.81 2
3 -9 -7 52.2003 197.813 4
3 -9 -7 -5.82945 200.717 2
3 -9 -6 12464.8 1576.23 2
3 -9 -6 12507.9 1592.97 4
3 -9 -5 18625.4 1836.85 4
3 -9 -5 18194.6 1873.99 2
3 -9 -4 5075.06 918.319 4
3 -9 -4 5697.17 1040.69 2
3 -9 -3 2940.53 755.97 2
3 -9 -2 13908.7 1605.11 2
3 -9 -1 24496.5 2136.62 2
3 -9 0 -133.073 275.225 2
3 -9 1 12847 1558.34 2
3 -9 2 15364.1 1723.16 2
3 -9 3 7610 1224.07 2
3 -8 -8 6003.77 1180.06 4
3 -8 -8 5886.8 1006.05 2
3 -8 -7 4993.13 1039.01 4
3 -8 -7 5290.81 954.078 2
3 -8 -6 19637.3 1912.02 4
-3 8 6 17813.1 1696.6 3
3 -8 -6 20755.1 1885.08 2
3 -8 -5 22309 1941.07 4
3 -8 -5 21086 1893.16 2
3 -8 -4 823.959 368.927 4
3 -8 -4 566.124 326.549 2
3 -8 -3 15659.4 1454.74 4
3 -8 -3 16166.7 1621.93 2
3 -8 -2 65964.4 3255.88 2
3 -8 -1 13380.9 1477.65 2
3 -8 0 1550.91 494.082 2
3 -8 1 42282.9 2623.79 2
3 -8 2 34917.7 2384.69 2
3 -8 3 30960.6 2285.33 2
3 -8 4 17634.8 2036.22 1
3 -8 4 15882.2 1644.8 2
3 -8 5 48310.1 3443.43 1
3 -7 -9 20718.5 2196.65 4
3 -7 -8 4001.05 777.422 2
3 -7 -8 4634.47 985.508 4
3 -7 -7 3407.9 829.351 4
3 -7 -7 3130.11 698.115 2
3 -7 -6 107937 4032.91 2
3 -7 -6 111441 4353.37 4
3 -7 -5 19730.3 1757.67 4
-3 7 5 19522.6 1634.96 3
3 -7 -5 20481.3 1739.63 2
3 -7 -4 2052.07 538.951 2
3 -7 -4 2426.33 604.528 4
-3 7 4 3561.03 672.063 3
3 -7 -3 29324.3 1914.97 4
-3 7 3 27629.9 1695.86 3
3 -7 -3 29822.4 2061.47 2
3 -7 -2 101605 3340.06 4
3 -7 -2 106483 3844.91 2
3 -7 -1 38028.1 1907.82 4
3 -7 -1 36479.5 2245.33 2
3 -7 0 32.3156 137.162 2
3 -7 1 43697.6 2468.57 2
3 -7 2 74607.7 3233.94 2
3 -7 3 19956.8 1951.15 1
3 -7 3 21469.9 1755.25 2
3 -7 4 2263.53 724.659 1
3 -7 4 2030.19 546.352 2
3 -7 5 25361.9 2344.26 1
3 -7 5 25079 1916.31 2
3 -7 6 24281 2363.78 1
3 -6 -10 32305.2 2786.49 4
3 -6 -9 27560.7 2454.37 4
3 -6 -8 5508.12 1058.35 4
3 -6 -7 15160.5 1645.38 4
3 -6 -7 13246.6 1312.65 2
3 -6 -6 67206.3 3268.84 4
3 -6 -6 61935 2821.8 2
3 -6 -5 29665.7 2065.88 4
3 -6 -5 33432.8 2077.71 2
3 -6 -4 4285.06 753.245 4
-3 6 4 4773.23 746.076 3
3 -6 -4 3434.4 672.356 2
3 -6 -3 29066.7 1823.46 4
-3 6 3 30182.8 1679.43 3
3 -6 -3 32363.9 1993.28 2
3 -6 -2 93611.8 3083.41 4
-3 6 2 95715.4 2765.18 3
3 -6 -2 91895.3 3332.09 2
3 -6 -1 45758.1 2022.5 4
-3 6 1 49236 1822.45 3
3 -6 -1 48719.6 2410.39 2
3 -6 0 587.932 304.341 2
3 -6 0 752.353 261.109 4
3 -6 1 35871.3 2076.54 2
3 -6 2 43344.5 2624.45 1
3 -6 2 42963 2287.35 2
3 -6 3 44618.3 2697.32 1
3 -6 3 44573.2 2341.98 2
3 -6 4 303.816 324.862 1
3 -6 4 -55.7756 149.161 2
3 -6 5 22706.3 2075.89 1
3 -6 5 21171.8 1624.54 2
3 -6 6 25384.1 2280.2 1
3 -6 7 8783.14 1418.68 1
3 -6 8 2442.35 807.093 1
3 -5 -10 17341.4 1994.93 4
3 -5 -9 29795.2 2500.94 4
3 -5 -8 5931.36 1083.46 4
3 -5 -7 1432.39 389.43 2
3 -5 -7 1129.7 487.774 4
3 -5 -6 23712.6 1896.65 4
3 -5 -6 22812.9 1588.24 2
3 -5 -5 34476.8 2157.75 4
3 -5 -5 34921 1951.18 2
3 -5 -4 4365.79 740.782 4
3 -5 -4 3304.15 623.377 2
3 -5 -3 26073.4 1665.17 4
-3 5 3 26548.3 1484.48 3
3 -5 -3 25159.3 1644.69 2
3 -5 -2 9837.1 967.867 4
-3 5 2 10048.2 833.162 3
3 -5 -2 9580.65 1015.29 2
3 -5 -1 12702.5 1027.81 4
-3 5 1 12619 837.623 3
3 -5 -1 11276.3 1085.15 2
-3 5 0 156.249 109.008 3
3 -5 0 257.944 151.757 4
3 -5 0 18.6859 171.049 2
3 -5 1 26615.6 1250.65 4
-3 5 -1 26036 975.679 3
3 -5 1 28217.4 1719.33 2
3 -5 2 29791.2 2022.06 1
3 -5 2 34643.9 1895.83 2
3 -5 3 1915.38 591.207 1
3 -5 3 1738.9 440.603 2
3 -5 4 9257.03 1189.81 1
3 -5 4 12025.4 1138.54 2
3 -5 5 26677.8 2088.24 1
3 -5 5 25992.4 1679.52 2
3 -5 6 14382.8 1618.55 1
3 -5 7 1790.99 653.875 1
3 -5 8 6389.24 1174.9 1
3 -5 9 35783.7 2969.63 1
3 -4 -11 -333.86 321.534 4
3 -4 -10 23898.9 2301.29 4
3 -4 -9 21455.2 2053.84 4
3 -4 -8 1301.99 469.127 4
3 -4 -7 3065.69 714.584 4
3 -4 -7 3105.33 529.607 2
3 -4 -6 36696.2 1860.34 2
3 -4 -6 34821.2 2235.01 4
3 -4 -5 14830.3 1382.23 4
3 -4 -5 15032.4 1185.91 2
3 -4 -4 -173.5 210.465 2
3 -4 -4 -608.56 331.7 4
3 -4 -3 19532.1 1394.25 4
3 -4 -3 18802.9 1321.57 2
3 -4 -2 37407.6 1810.8 4
-3 4 2 35811.4 1471.75 3
3 -4 -2 35832 1809.9 2
-3 4 1 13401.8 781.321 3
3 -4 -1 13624.6 1113.03 2
3 -4 -1 14836.4 1069.86 4
3 -4 0 2240.34 397.999 4
-3 4 0 2748.17 302.033 3
3 -4 0 3135.61 553.634 2
-3 4 -1 81284 1353.98 3
3 -4 1 82944.6 2158.16 4
3 -4 1 87152.7 2805.48 2
3 -4 2 67465.8 2763.44 1
3 -4 2 67190.3 1705.77 4
-3 4 -2 64023.3 1154.72 3
3 -4 2 62329.5 2376.6 2
3 -4 3 17432 1254.08 2
3 -4 3 18248.8 1481.94 1
-3 4 -3 16839.1 684.062 3
-3 4 -4 2140.54 302.293 3
3 -4 4 1740.6 524.116 1
3 -4 4 1638.53 420.386 2
3 -4 5 101560 3811.17 1
3 -4 5 103275 3078.91 2
3 -4 6 34747.9 1780.57 2
3 -4 6 36383 2388.93 1
3 -4 6 40002.8 2049.79 6
3 -4 7 5694.5 820.623 6
3 -4 7 4299.47 865.465 1
3 -4 8 40020.2 2808.21 1
3 -4 8 45093.5 2414.82 6
3 -4 9 42810.8 3080.02 1
3 -4 9 47002.8 2592.26 6
3 -4 10 8048.78 1130.31 6
3 -4 10 5660.72 1180.67 1
3 -3 -11 103.234 254.473 4
3 -3 -10 34670.6 2706.23 4
3 -3 -9 15559.3 1724.33 4
3 -3 -8 1163.15 479.534 4
3 -3 -7 21904.2 1822.63 4
3 -3 -6 33028.3 2115.72 4
3 -3 -6 33330.8 1620.77 2
3 -3 -5 48433.6 2416.46 4
3 -3 -5 46150.8 1910.72 2
3 -3 -4 9089.65 1002.53 4
3 -3 -4 8595.28 830.19 2
3 -3 -3 92610.3 2940.39 4
3 -3 -3 88945 2629.94 2
3 -3 -3 95972.9 2537.97 5
3 -3 -2 156233 3466.55 2
3 -3 -2 158192 3616.31 4
3 -3 -2 153952 3171.91 5
3 -3 -1 4097.82 548.703 4
3 -3 -1 3483.63 529.989 2
3 -3 0 30901.2 1398.77 4
3 -3 0 28574.3 815.291 3
3 -3 0 28333.5 1479.58 2
3 -3 1 181214 3110.33 4
3 -3 1 181584 3720.33 2
3 -3 2 131923 2397.24 4
3 -3 2 131132 3515.45 1
3 -3 2 127819 3108.06 2
3 -3 2 127889 2873.62 5
3 -3 3 6243.39 810.174 1
-3 3 -3 5613 318.525 3
3 -3 3 6342.67 655.638 5
3 -3 3 4998.68 631.475 2
-3 3 -3 5697.57 313.301 3
3 -3 4 76197.9 2899.32 1
3 -3 4 79531.5 2471.88 2
-3 3 -4 73737 1553.08 3
3 -3 4 77861.2 2475.96 6
3 -3 5 190107 4015.85 6
3 -3 5 182130 3745.55 2
3 -3 5 187907 4837.77 1
-3 3 -5 190247 2978.94 3
3 -3 6 48926.3 1928.02 2
3 -3 6 52115.1 2707.75 1
3 -3 6 52198.1 2216.8 6
3 -3 7 1101.21 433.618 1
3 -3 7 1057.63 375.386 6
3 -3 8 46235.3 2867.8 1
3 -3 8 47031.5 2353.39 6
3 -3 9 62710.2 2886.91 6
3 -3 9 62715.8 3557.62 1
3 -3 10 26084 1968.5 6
3 -3 10 24391.5 2365.18 1
3 -3 11 -9.71559 313.639 6
3 -2 -11 12489.3 1684.4 4
3 -2 -10 28778 2387.68 4
3 -2 -9 30547.3 2332.88 4
3 -2 -8 -540.81 344.249 4
3 -2 -7 44016.3 2506.51 4
3 -2 -6 113712 3826.18 4
3 -2 -5 65964.7 2733.72 4
3 -2 -5 63163.2 2061.29 2
3 -2 -4 10395.1 1038.01 4
3 -2 -4 10983 862.454 2
3 -2 -4 10292.5 765.948 5
3 -2 -3 129072 3382.8 4
3 -2 -3 128890 2901.2 2
3 -2 -3 132123 2680.62 5
3 -2 -2 177510 3753.84 4
3 -2 -2 180413 3100.05 5
3 -2 -2 178450 3417.12 2
3 -2 -1 82157 2366.5 4
3 -2 -1 84074.3 2336.35 2
3 -2 0 17180.2 1016.95 4
3 -2 0 16841.9 1045.33 2
3 -2 0 17159.6 630.341 3
3 -2 1 192009 3112.17 4
3 -2 1 194622 3543.53 2
3 -2 2 203342 3926.06 1
3 -2 2 203511 3631.51 2
-3 2 -3 1092.92 110.415 3
3 -2 3 798.02 292.062 1
-3 2 -3 1223.74 116.279 3
3 -2 4 35658.3 1513.89 2
3 -2 4 34714.6 1804.21 1
3 -2 5 85053.8 2340.37 2
3 -2 5 84741.6 3039.35 1
3 -2 5 91822.6 2653.47 6
3 -2 6 31579.1 1415.69 2
3 -2 6 30254.9 1939.82 1
3 -2 7 5670.4 749 6
3 -2 7 6274.13 968.223 1
3 -2 8 30578.7 1846.89 6
3 -2 8 27310.5 2112.61 1
3 -2 9 47576.5 2455.17 6
3 -2 9 47264.3 2959.48 1
3 -2 10 4095.92 931.282 1
3 -2 10 5236.17 882.737 6
3 -2 11 1453.57 594.585 1
3 -2 11 2149.63 624.671 6
3 -1 -10 40469.8 2771.26 4
3 -1 -9 35412.3 2460.06 4
3 -1 -8 -265.001 261.671 4
3 -1 -7 48483.4 2567.77 4
3 -1 -6 114447 3713.01 4
3 -1 -5 27887.1 1739.8 4
3 -1 -5 27801.4 1156.19 5
3 -1 -4 5163.53 718.287 4
3 -1 -4 6010.63 539.259 5
3 -1 -3 46703 1990.04 4
3 -1 -3 46199.2 1487.79 5
3 -1 -3 47849.5 1660.26 2
3 -1 -2 459423 5086.35 2
3 -1 -2 450492 5857.44 4
3 -1 -2 439622 4551.83 5
3 -1 -1 1555.6 305.66 2
3 -1 -1 1538.76 271.001 5
3 -1 0 18728.1 1038.45 4
3 -1 0 18294.4 1012.69 2
3 -1 1 94769.9 2294.94 2
3 -1 1 93599.1 1086.81 3
3 -1 1 90355.2 2132.06 4
3 -1 2 133402 2801.69 1
3 -1 2 133468 2718.85 2
3 -1 3 17417.1 987.17 2
3 -1 3 17942.9 1094.07 1
-3 1 -3 16445.7 502.201 3
3 -1 4 2338.51 453.177 1
3 -1 4 1764.76 324.736 2
3 -1 5 70885.9 2565.72 1
3 -1 6 26865.7 1721.36 1
3 -1 6 27662.8 1490.83 6
3 -1 6 26540.4 1117.99 5
3 -1 7 394.82 272.538 1
3 -1 7 14.4149 76.7171 5
3 -1 7 139.229 199.583 6
3 -1 8 4886.01 740.3 6
3 -1 8 6503.91 989.747 1
3 -1 9 14569.8 1582.5 1
3 -1 9 15340.2 1362.51 6
3 -1 10 401.476 357.318 1
3 -1 10 665.236 351.662 6
3 -1 11 3466.73 882.811 1
3 -1 11 3398.7 760.956 6
3 -1 12 695.127 449.935 1
3 -1 12 2565.72 696.082 6
-3 0 10 17365.3 1994.6 1
3 0 -9 13477.8 1481.02 4
3 0 -8 -116.656 234.063 4
3 0 -7 4005.04 738.244 4
3 0 -6 60657.9 2648.27 4
3 0 -5 2863.72 571.42 4
3 0 -5 2798.12 344.825 5
3 0 -4 9536.73 946.274 4
3 0 -4 8979.43 615.371 5
3 0 -3 36414.9 1722.26 4
3 0 -3 36509.1 1229.68 5
3 0 -2 48902.5 1882.86 4
3 0 -2 47759.2 1401.85 5
3 0 -1 12375.5 895.839 4
3 0 -1 12612 732.184 5
3 0 0 36059.4 1425.42 4
3 0 1 51230.6 1175.98 3
3 0 2 51372.4 1489.02 1
3 0 2 48835.4 1044.91 3
-3 0 -2 49231.3 1038.8 3
3 0 2 46519.6 1301.65 6
3 0 3 600.352 132.419 3
-3 0 -3 713.228 149.904 3
3 0 3 479.899 174.202 1
3 0 3 628.183 171.436 5
3 0 4 162803 2631.19 5
3 0 4 169825 2623.3 3
3 0 4 166112 3280.85 1
3 0 5 36307.9 1402.19 3
3 0 5 37923.4 1738.07 1
3 0 5 37206.4 1254.42 5
3 0 6 3807.37 611.799 1
3 0 6 3627.17 394.237 5
3 0 7 4920.67 756.224 1
3 0 7 5032.93 665.31 6
3 0 7 5159.03 468.85 5
3 0 8 42980.8 2396.27 1
3 0 8 43024.9 2079.88 6
3 0 9 57424.9 2987.28 1
3 0 9 58301.8 2602.38 6
3 0 10 423.533 323.717 1
3 0 10 158.656 146.889 6
3 0 11 18396 1971.91 1
3 0 11 20693.2 1777.47 6
3 0 12 39793.9 2597.99 6
3 0 12 34001.9 2865.43 1
-3 -1 10 7987.21 1379.27 1
-3 -1 9 8685.04 1289.1 1
3 1 -8 -258.171 184.429 4
-3 -1 8 591.041 328.961 1
3 1 -7 21060.1 1622.19 4
3 1 -6 19359.8 1463.12 4
3 1 -5 190.121 210.081 4
3 1 -5 227.603 99.5843 5
3 1 -4 16936.3 1219.58 4
3 1 -4 16868.7 823.599 5
3 1 -3 35197.2 1666.66 4
3 1 -3 37393.5 1222.45 5
3 1 -2 15062.7 1028.04 4
3 1 -2 14944.7 792.299 5
3 1 -1 4801.2 562.111 4
3 1 0 144500 2898.5 4
3 1 0 141929 2554.4 3
-3 -1 0 147317 1631.26 6
-3 -1 -1 149197 1959.53 1
3 1 1 142879 2376.53 3
3 1 2 12955.9 630.266 1
3 1 2 14017.5 636.059 6
3 1 2 13699.7 712.045 3
-3 -1 -2 12934.5 599.217 1
3 1 3 27222.2 1059.17 3
3 1 3 27937.5 1033.13 1
3 1 3 28595.6 1044.7 6
3 1 4 133517 2573.89 3
3 1 4 135864 2658.44 1
3 1 4 132626 2519.1 6
3 1 5 127559 2924.62 1
3 1 5 126810 2803.62 3
3 1 5 127181 2299.88 5
3 1 6 37482.5 1757.54 1
3 1 6 38106.1 1252.4 5
3 1 6 37636.9 1690.62 3
3 1 7 37558.8 1963.24 1
3 1 7 36462.1 1825.03 3
3 1 7 38964 1268.45 5
3 1 8 143035 4156.2 1
3 1 8 145803 2338.36 5
3 1 9 64314.4 3046.12 1
3 1 10 1823.53 576.988 1
3 1 11 27576.2 2332.02 1
3 1 11 32364 2205.92 6
3 1 12 50584 3382.85 1
3 1 12 47498.8 2837.3 6
3 1 13 34270.7 2567.41 6
3 1 13 35855 3031.96 1
-3 -2 10 18805.8 2131.63 1
-3 -2 9 5077.78 1059.22 1
-3 -2 8 15145.3 1646.33 1
3 2 -7 29587.5 1850.05 4
-3 -2 7 24756.8 1947.83 1
3 2 -6 32094.3 1836.35 4
-3 -2 6 32497.9 2048.56 1
3 2 -5 4776.39 678.785 4
3 2 -5 4836.03 443.375 5
3 2 -4 35675.9 1741.4 4
3 2 -4 37090.5 1262.76 5
3 2 -3 135641 3214.21 4
3 2 -2 111757 2789.79 4
3 2 -1 6655.7 683.546 3
3 2 0 128579 2766.25 3
-3 -2 -1 226572 1672.27 1
3 2 1 241088 3583.56 3
3 2 2 163396 2878.17 3
3 2 2 173831 1977 6
3 2 3 13909.8 857.856 3
3 2 3 12860.8 567.247 1
3 2 4 203107 2881.54 1
3 2 4 196948 3434.48 3
3 2 5 273180 3880.4 1
3 2 5 273968 4412.33 3
3 2 6 86258.7 2489.31 1
3 2 6 83655.1 2668.53 3
3 2 7 77848.5 2796.45 3
3 2 7 85777.7 2766.66 1
3 2 8 47327.5 2346.83 3
3 2 8 51535.1 2366.94 1
3 2 8 48942 1452.65 5
3 2 9 120800 3956.2 1
3 2 10 18199.3 1677.29 1
-3 -2 -11 14075.3 1357.55 4
3 2 11 16580.9 1757.05 1
3 2 12 45813.9 3118.99 1
3 2 13 23263.3 2371.35 1
-3 -3 9 11783.4 1640.86 1
-3 -3 8 8862.46 1324.2 1
-3 -3 7 32552.1 2323.41 1
3 3 -6 80006.5 2841.47 4
-3 -3 6 78445 3278.63 1
3 3 -5 16809 1248.6 4
-3 -3 5 17612.8 1430.87 1
-3 -3 4 35722.7 1841.17 1
-3 -3 4 37829 1155.44 6
-3 -3 3 142356 3276.27 1
-3 -3 3 146369 1848.39 6
3 3 -3 147125 3959.19 3
-3 -3 2 51628.8 1717.28 1
3 3 -2 51201.8 2188.15 3
-3 -3 2 46606.7 707.558 6
-3 -3 1 32587.9 1166.82 1
3 3 -1 32762.5 1650.14 3
-3 -3 0 81529.3 1427.84 1
3 3 0 81885.3 2462.24 3
3 3 1 216212 3810.08 3
3 3 2 138262 2993.02 3
3 3 3 59832.7 1996.6 3
3 3 3 60046.5 883.103 1
3 3 4 67021.1 1431.65 1
3 3 4 66190.8 2177.98 3
3 3 5 112901 3031.95 3
3 3 5 114033 2287.14 1
3 3 6 27228.9 1610.6 3
3 3 6 30161.1 1377.48 1
3 3 7 16310.8 1349.85 3
3 3 7 13254.8 1033.95 1
3 3 8 65732.7 2557.82 1
3 3 8 69731.2 2961.77 3
3 3 9 32782.1 2171.79 3
3 3 9 31405.1 1934.02 1
3 3 10 1998.82 595.215 1
3 3 10 1835.95 557.904 3
3 3 11 13249.5 1501.6 1
-3 -3 -12 26184.7 2039.72 4
3 3 12 31363 2494.98 1
3 3 13 2590.12 811.452 1
-3 -4 9 12366.3 1715.91 1
3 4 -8 3296.91 864.382 3
-3 -4 8 2515.81 737.21 1
-3 -4 7 69365.5 3471.24 1
3 4 -7 73159.4 3765.38 3
-3 -4 6 27075.3 2019.39 1
3 4 -6 26675 2145.84 3
-3 -4 5 33225.9 2060 1
3 4 -5 35005 2312.15 3
-3 -4 4 17011.3 1341.3 1
3 4 -4 17987.2 1576.33 3
-3 -4 3 81933.2 2644.6 1
3 4 -3 83739 3202.91 3
-3 -4 2 59768.7 2003.41 1
3 4 -2 59274.5 2549.67 3
-3 -4 1 13183.6 812.052 1
3 4 -1 12171 1104.87 3
-3 -4 0 54980 1331.13 1
3 4 0 54328.4 2211.33 3
3 4 1 62889.1 2280.59 3
3 4 2 7801.13 796.804 3
3 4 3 175.977 156.258 3
3 4 3 187.508 51.407 1
3 4 4 24666 1456.08 3
3 4 5 26994 1594.08 3
3 4 6 1757.91 445.156 3
3 4 7 21108.4 1596.64 3
3 4 8 27597.6 1949.62 3
3 4 9 87.6427 166.913 3
3 4 9 325.89 203.128 1
3 4 10 1613.02 530.935 1
3 4 10 203.286 226.34 3
3 4 11 14671.7 1680.07 3
3 4 11 17795.4 1698.72 1
-3 -4 -12 17885.1 1770.28 4
3 4 12 20820.2 1985.09 1
-3 -4 -13 809.968 417.504 4
3 4 13 1703.3 626.771 1
-3 -5 8 4796.25 1029.46 1
-3 -5 7 15761.9 1719.77 1
3 5 -7 16016.4 1862.82 3
3 5 -6 12532.6 1564.15 3
-3 -5 6 11948.6 1410.39 1
3 5 -5 478.862 287.24 3
-3 -5 5 329.164 248.005 1
3 5 -4 28504.3 2091.92 3
-3 -5 4 27227.6 1779.97 1
-3 -5 3 36426.8 1856.73 1
3 5 -3 33067.3 2152.88 3
-3 -5 2 7229.79 746.836 1
3 5 -2 7975.9 1014.35 3
3 5 -1 12268.9 1202.65 3
-3 -5 1 12191.5 847.146 1
-3 -5 0 43268.1 1377.63 1
3 5 0 42304.1 2106.39 3
3 5 1 19094.4 508.335 6
3 5 1 22801.8 1507.31 3
3 5 2 17734.7 597.119 1
3 5 2 17047.5 1272.31 3
3 5 3 33332.7 847.446 1
3 5 3 32856.2 1770.65 3
3 5 4 78168.5 2798.12 3
3 5 5 23475.3 1590.89 3
3 5 6 2299.23 521.203 3
3 5 7 29031.4 1950.3 3
3 5 8 38413.4 2388.02 3
3 5 9 23635.6 1968.94 3
3 5 10 3605.39 821.683 3
3 5 11 50910 2815.89 1
3 5 11 48381.5 3136.92 3
3 5 12 21401.6 1953.51 1
3 5 12 20202.9 2139.45 3
3 5 13 6468.69 1166.8 1
-3 -5 -13 6605.08 1202.2 4
3 6 -7 15038.9 1888.81 3
3 6 -6 2497.76 764.628 3
3 6 -5 5945.47 1080.68 3
-3 -6 5 7067.15 1025.78 1
-3 -6 4 31398.2 1988.19 1
3 6 -4 31380.9 2346.47 3
3 6 -3 7644.44 1131.59 3
-3 -6 3 10868.7 1073.54 1
-3 -6 2 8102.29 844.095 1
3 6 -2 11356.7 1290.14 3
-3 -6 1 21892.3 1245.87 1
3 6 -1 18376.8 1568.06 3
-3 -6 0 91844.2 2306.48 1
3 6 0 93333.1 3365.62 3
3 6 1 41271.2 2188.47 3
3 6 2 897.452 386.52 3
3 6 3 45735.1 2267.28 3
3 6 4 128065 3865.8 3
3 6 5 47524.3 2417 3
3 6 6 403.822 254.094 3
3 6 7 34371.8 2233.03 3
3 6 8 149214 4862.25 3
3 6 9 24890.4 2107.56 3
3 6 10 1090.42 454.686 3
3 6 11 49786.7 3271.91 3
3 6 12 38315.1 3009.12 3
3 6 12 35357.8 2475.27 1
-3 -6 -13 17689 1971.6 4
3 6 13 19678.6 1977.74 1
3 7 -6 3887.38 1031.76 3
3 7 -5 1840.74 649.434 3
3 7 -4 28543.5 2376.56 3
3 7 -3 66033 3427.86 3
3 7 -2 15269.4 1584.01 3
3 7 -1 13089.8 1425.47 3
3 7 0 91917.7 3602.3 3
3 7 1 80494 3309.99 3
3 7 2 9905.9 1154.61 3
3 7 3 2033.13 565.656 3
3 7 4 200905 5190.34 3
3 7 5 66023.8 3054.8 3
3 7 6 3769.77 748.112 3
3 7 7 21424.3 1859.66 3
3 7 8 83589.8 3807.12 3
3 7 9 29468.6 2361.93 3
3 7 10 127.675 244.271 3
3 7 11 18201.2 2060.08 3
3 7 12 29961.1 2750.86 3
3 8 -4 17529.9 1951.81 3
3 8 -3 46268.4 3042.88 3
3 8 -2 10356.3 1412.84 3
3 8 -1 772.54 379.324 3
3 8 1 53294.3 2876.96 3
3 8 2 10732.4 1282.18 3
3 8 3 24659.4 1941.46 3
3 8 4 64135.1 3157.32 3
3 8 5 29194.6 2176.91 3
3 8 6 1969.68 602.776 3
3 8 7 24393.7 2082.84 3
3 8 8 40722.6 2807.77 3
3 8 9 11216.6 1514.72 3
3 8 10 484.142 384.708 3
3 8 11 28578 2672.31 3
3 8 12 7290.06 1432.93 3
3 9 -3 19156.1 2078.61 3
3 9 -2 6819.77 1235.91 3
3 9 0 13717 1606.72 3
3 9 1 15700.4 1690.19 3
3 9 2 973.512 451.56 3
3 9 3 4969.92 949.836 3
3 9 4 13455.8 1566.18 3
3 9 5 1663.78 568.447 3
3 9 6 1810.29 606.626 3
3 9 7 44696.8 2994.46 3
3 9 8 8168.57 1306.52 3
3 9 9 581.476 404.449 3
3 9 10 8468.57 1451.96 3
3 9 11 25056.1 2600.87 3
3 10 -1 3520.05 895.072 3
3 10 0 19171.7 2036.82 3
3 10 1 10758.7 1491.05 3
3 10 2 4305.44 972.517 3
3 10 3 20035.3 2017.4 3
3 10 5 1071.24 508.58 3
3 10 6 9433.96 1420.67 3
3 10 7 29823.3 2577.47 3
3 10 8 19121.2 2151.83 3
3 10 9 252.905 271.184 3
3 11 1 9304.82 1510.1 3
3 11 2 4958.95 1080.2 3
3 11 3 37591.5 2945.63 3
3 11 4 25448.3 2443.16 3
3 11 5 9305.41 1515.56 3
3 11 6 5550.07 1168.6 3
3 11 7 33626.6 2906.66 3
4 -9 -6 16208.2 1890.12 4
4 -9 -6 15474.2 1824.54 2
4 -9 -5 2120.99 675.074 4
4 -9 -5 2729.92 802.412 2
4 -9 -4 6493.42 1187.52 2
4 -9 -3 30968.3 2541.99 2
4 -9 -2 20357.9 2086.1 2
4 -9 -1 36.6456 136.185 2
4 -9 0 19534.1 2029.84 2
4 -9 1 27023.7 2369.37 2
4 -9 2 23225.2 2189.19 2
4 -9 3 556.757 365.22 2
4 -8 -7 38296.5 2936.7 4
4 -8 -7 41289.5 2805.69 2
4 -8 -6 12916.1 1649.27 4
4 -8 -6 13709 1618.04 2
4 -8 -5 3568.69 837.27 4
4 -8 -5 2469.65 681.792 2
4 -8 -4 7529.45 1138.79 4
4 -8 -4 7875.15 1233 2
4 -8 -3 45422.4 2624.35 4
4 -8 -3 51774.7 3091.05 2
4 -8 -2 20771.4 1961.71 2
4 -8 -1 756.319 420.402 2
4 -8 0 33813.8 2499.92 2
4 -8 1 54639 3164.5 2
4 -8 2 17680.9 1810.62 2
4 -8 3 862.809 393.393 2
4 -8 4 35076.9 2541.45 2
4 -7 -8 265.188 249.061 4
4 -7 -7 55868.5 3449.93 4
4 -7 -7 51209.5 2944.69 2
4 -7 -6 29683.3 2405.97 4
4 -7 -6 25392.6 2064.98 2
4 -7 -5 9626.33 1335.49 4
4 -7 -5 8424.7 1188.82 2
4 -7 -4 4294.64 841.02 4
4 -7 -4 3974.28 816.075 2
4 -7 -3 54547.8 2798.36 4
4 -7 -3 53533.7 2936.79 2
4 -7 -2 52241.7 2581.41 4
4 -7 -2 49471.8 2823.73 2
4 -7 -1 -156.861 172.435 4
4 -7 -1 -397.042 323.706 2
4 -7 0 11042.2 1323.89 2
4 -7 1 34487.5 2356.81 2
4 -7 2 26765.9 2073.26 2
4 -7 3 2366.65 607.66 2
4 -7 4 21517.5 2218.13 1
4 -7 4 21458.6 1866.72 2
4 -7 5 17513.3 2066.99 1
4 -7 5 18133.9 1723 2
4 -7 6 11363.6 1692.01 1
4 -6 -9 8781.64 1465.88 4
4 -6 -8 1507.89 664.244 4
4 -6 -7 20311.8 2036.92 4
4 -6 -7 16836.6 1582.27 2
4 -6 -6 38660.4 2658.74 4
4 -6 -6 37758.6 2350.54 2
4 -6 -5 3354.95 766.876 4
4 -6 -5 2949.1 692.558 2
4 -6 -4 4332.37 821.693 4
4 -6 -4 4291.99 803.509 2
4 -6 -3 26042.3 1868.4 4
4 -6 -3 26026.9 1930.63 2
4 -6 -2 19436.9 1537.08 4
4 -6 -2 21515 1751.31 2
4 -6 -1 587.738 319.16 4
4 -6 -1 48.0135 230.242 2
4 -6 0 6917.11 819.027 4
4 -6 0 7420.8 1000.58 2
4 -6 1 27853.5 1971.09 2
4 -6 2 15147.6 1459.82 2
4 -6 3 2957.39 768.707 1
4 -6 3 2612.44 606.818 2
4 -6 4 14487.2 1696.54 1
4 -6 4 14847.7 1444.2 2
4 -6 5 17352.9 1920.52 1
4 -6 5 13954.7 1408.09 2
4 -6 6 1564.24 592.068 1
4 -6 7 861.255 476.272 1
4 -5 -9 5020.08 1131.52 4
4 -5 -8 50.9006 314.813 4
4 -5 -7 23017.9 2104.54 4
4 -5 -7 18531.9 1528.55 2
4 -5 -6 12069.1 1475.1 4
4 -5 -6 13667.2 1323.58 2
4 -5 -5 4200.86 765.732 2
4 -5 -5 3326.02 757.112 4
4 -5 -4 5146.33 872.724 4
4 -5 -4 3964.18 740.881 2
4 -5 -3 26009.7 1807.11 4
4 -5 -3 25156.8 1786.33 2
4 -5 -2 9599.59 1052.47 4
4 -5 -2 11569 1199.01 2
4 -5 -1 573.005 292.158 4
4 -5 -1 435.361 301.152 2
4 -5 0 19671.5 1338.92 4
4 -5 0 20717.5 1609.61 2
4 -5 1 46722.5 1908.99 4
4 -5 1 44176.4 2327.09 2
4 -5 2 4990.25 800.569 2
4 -5 3 -189.366 236.168 2
4 -5 3 300.216 297.834 1
4 -5 4 51015.2 2933.53 1
4 -5 4 54253.9 2577.86 2
4 -5 5 25579.2 2142.05 1
4 -5 5 22180.7 1664.8 2
4 -5 6 290.741 319.649 1
4 -5 6 894.47 315.499 2
4 -5 7 32091 2578.01 1
4 -5 8 48516.1 3311.02 1
4 -4 -10 14434.2 1874.14 4
4 -4 -9 -53.5862 222.393 4
4 -4 -8 13750.1 1675.27 4
4 -4 -7 17839.7 1815.29 4
4 -4 -6 33522.2 2354.09 4
4 -4 -6 32871.7 1916.33 2
4 -4 -5 166.667 235.762 4
4 -4 -5 371.189 255.536 2
4 -4 -4 38836.5 2273.28 4
4 -4 -4 41815.3 2142.5 2
4 -4 -3 115933 3712.04 4
4 -4 -3 110298 3455.39 2
4 -4 -2 8554.31 969.788 4
4 -4 -2 7345.8 904.929 2
4 -4 -1 206.711 197.18 5
4 -4 -1 372.581 249.477 4
4 -4 -1 241.878 252.859 2
4 -4 0 83379.5 2677.38 4
4 -4 0 81543.1 2948.8 2
4 -4 0 81744 2746.54 5
4 -4 1 118997 2987.43 4
4 -4 1 125489 3657.35 2
4 -4 1 119327 3315.7 5
4 -4 2 12435 903.048 4
4 -4 2 10385.8 1061.82 2
4 -4 3 14622.3 1439.86 1
4 -4 3 16147.6 1325.81 2
4 -4 4 105205 3909.18 1
4 -4 4 103801 3336.4 2
4 -4 5 72241.1 3343.7 1
4 -4 5 70701.4 2768.67 2
4 -4 6 204.333 186.133 2
4 -4 6 229.393 239.546 1
4 -4 7 35227 2557.93 1
4 -4 8 37532 2766.08 1
4 -4 8 34676.5 2215.78 6
4 -4 9 40906 3040.29 1
4 -4 9 37726.2 2415.13 6
4 -4 10 419.634 217.433 6
4 -3 -10 29160.6 2646.99 4
4 -3 -9 -277.052 247.442 4
4 -3 -8 17282.8 1836.75 4
4 -3 -7 38764.2 2591 4
4 -3 -6 44031.1 2082.93 2
4 -3 -6 46967.6 2707.48 4
4 -3 -5 6236.45 943.008 4
4 -3 -5 5349.15 722.743 2
4 -3 -4 72199.8 3035.44 4
4 -3 -4 73676.6 2644.26 2
4 -3 -3 92410.9 3262.61 4
4 -3 -3 95431 3007.75 2
4 -3 -3 97730.2 2817.12 5
4 -3 -2 42525.2 2107.23 4
4 -3 -2 44149.1 2038 2
4 -3 -2 46208.5 1908.46 5
4 -3 -1 9713.8 954.032 4
4 -3 -1 9244.72 949.447 2
4 -3 -1 9242.02 855.949 5
4 -3 0 167846 3722.03 4
4 -3 0 165537 3939.23 2
4 -3 0 167664 3585.56 5
4 -3 1 188825 3700.49 4
4 -3 1 186388 4177.97 2
4 -3 1 195843 3872.39 5
4 -3 2 19627.3 1134.02 4
4 -3 2 19275.5 1464.7 1
4 -3 2 18563.8 1312.32 2
4 -3 2 19684.9 1241.1 5
4 -3 3 44898.7 2288.43 1
4 -3 3 43641.1 2019.39 2
4 -3 3 42938.3 1864.79 5
4 -3 4 74879.4 3047.93 1
4 -3 4 76634.2 2679.12 2
4 -3 4 82926.4 2595.48 5
4 -3 5 97402.8 3036.87 2
4 -3 5 100864 3688.79 1
4 -3 5 103744 2942.08 5
4 -3 6 12707 1087.98 2
4 -3 6 11069.9 1281.29 1
4 -3 6 13088.8 1177.49 6
4 -3 7 23002.4 1457.79 2
4 -3 7 20571.1 1848 1
4 -3 7 21849.8 1590.25 6
4 -3 8 52625.1 3106.06 1
4 -3 8 57000.1 2701.36 6
4 -3 9 26561.4 2329.39 1
4 -3 9 26017.1 1921.89 6
4 -3 10 118.021 257.064 1
4 -3 10 296.885 285.993 6
4 -3 11 5655.77 1027.3 6
4 -2 -10 36107.6 2874.39 4
4 -2 -9 1364.63 608.651 4
4 -2 -8 12911 1562.67 4
4 -2 -7 62388.6 3213.91 4
4 -2 -6 36000.3 2333.24 4
4 -2 -5 -78.9943 99.2815 5
4 -2 -5 -67.1283 220.507 4
4 -2 -4 26520.3 1806.35 4
4 -2 -4 28278.2 1416.88 5
4 -2 -4 25967.2 1494.94 2
4 -2 -3 157049 4174.91 4
4 -2 -3 156092 3622.87 2
4 -2 -3 153585 3260.85 5
4 -2 -2 33040.1 1819.79 4
4 -2 -2 29777.6 1578.36 2
4 -2 -2 33414.7 1517.33 5
4 -2 -1 9652.59 932.791 4
4 -2 -1 10188.2 851.921 5
4 -2 -1 9710.93 911.515 2
4 -2 0 77465.1 2483.21 4
4 -2 0 68846.6 2388.99 2
4 -2 1 80174.2 2387.39 4
4 -2 1 80042.2 2568.68 2
4 -2 2 14457.7 1165.38 1
4 -2 2 15730 1140.12 2
4 -2 2 14971.1 1033.67 5
4 -2 3 451.614 228.583 2
4 -2 3 475.703 205.258 5
4 -2 4 82943.5 2602.52 2
4 -2 4 76994.5 2839.97 1
4 -2 4 81767.3 2540.92 6
4 -2 4 80140.5 2382.4 5
4 -2 5 45093.1 1930.13 2
4 -2 5 46623.1 2329.58 1
4 -2 5 45500.4 1786.75 5
4 -2 5 45381.5 1972.59 6
4 -2 6 136.701 143.395 5
4 -2 6 124.204 162.757 2
4 -2 6 67.252 190.379 1
4 -2 6 -314.88 201.155 6
4 -2 7 4189.4 561.157 5
4 -2 7 3043.74 691.715 1
4 -2 7 4961.27 746.138 6
4 -2 8 20130.3 1819.5 1
4 -2 8 21300.4 1586.58 6
4 -2 9 6811.95 978.158 6
4 -2 9 6803.29 1144.66 1
4 -2 10 1342.71 462.159 6
4 -2 10 902.745 517.138 1
4 -2 11 72.1973 199.976 6
4 -2 11 175.196 271.734 1
4 -1 -10 15497.9 1838.19 4
4 -1 -9 11.4677 274.572 4
4 -1 -8 3612.83 810.971 4
4 -1 -7 57540 3027.84 4
4 -1 -6 17988.1 1613.39 4
4 -1 -5 1386.88 306.895 5
4 -1 -5 1194.98 427.937 4
4 -1 -4 17554.2 1446.07 4
4 -1 -4 19698.1 1134.96 5
4 -1 -3 64440.3 2631.4 4
4 -1 -3 64920 2031.09 5
4 -1 -2 1512.88 410.521 4
4 -1 -2 1952.64 356.776 5
4 -1 -1 8603.19 881.467 4
4 -1 -1 8551.99 729.223 5
4 -1 -1 7302.96 753.01 2
4 -1 0 31115.5 1564.32 4
4 -1 0 33713.6 1596.97 2
4 -1 1 40814.2 1701.58 4
4 -1 1 39997.8 1732.11 2
4 -1 1 41154.1 1003.25 3
4 -1 2 16290.5 1100.6 1
4 -1 2 16308.8 1106.55 2
4 -1 3 80237.1 2506.66 1
4 -1 3 81791 2462.83 2
4 -1 3 83603.3 2269.66 6
4 -1 3 78462.3 2205.59 5
-4 1 -4 28749 744.149 3
4 -1 4 30027.1 1376.49 5
4 -1 4 29529.4 1601.76 1
4 -1 4 29481.5 1417.45 6
4 -1 5 13428.3 1157.41 1
4 -1 5 13411.8 1020.37 6
4 -1 5 13345.9 931.265 5
4 -1 6 1805.19 463.031 1
4 -1 6 2040.24 436.52 6
4 -1 6 1974.01 367.471 5
4 -1 7 7587.91 875.71 6
4 -1 7 10136.4 1157.72 1
4 -1 7 9021.26 757.97 5
4 -1 8 63995.9 2676.1 6
4 -1 8 59574.9 2981.4 1
4 -1 9 4471.12 778.869 6
4 -1 9 4617.79 898.803 1
4 -1 10 10938.9 1259.58 6
4 -1 10 12013.1 1555.76 1
4 -1 11 19578.7 2094.92 1
4 -1 11 16636.5 1649.45 6
4 -1 12 11298 1446.9 6
4 -1 12 13729.8 1890.92 1
4 0 -9 1150.31 483.951 4
4 0 -8 7285.45 1127.24 4
4 0 -7 23510 1904.91 4
4 0 -6 3001.3 665.684 4
4 0 -5 5261.32 836.819 4
4 0 -5 4936.9 546.688 5
4 0 -4 15189 1333.66 4
4 0 -4 14934.8 944.11 5
4 0 -3 5544.19 567.427 5
4 0 -3 5552.27 775.165 4
4 0 -2 33440 1776.53 4
4 0 -2 34460.9 1404.17 5
4 0 -1 99747.5 2916.18 4
4 0 -1 92308.3 2305.38 5
4 0 0 32844.7 1592.98 4
4 0 0 32515.9 1250.81 3
4 0 1 10929.4 648.43 3
4 0 2 4614.14 380.426 3
4 0 3 103989 2525.61 1
4 0 3 102328 1788 3
4 0 3 105674 2332.37 6
4 0 4 86107.3 1807.41 3
4 0 4 88113.6 2489.66 1
4 0 4 80991.3 2214.97 6
4 0 5 32872.5 1274.97 3
4 0 5 36027.8 1737.63 1
4 0 5 33754.2 1536.88 6
4 0 6 15637.4 1127.96 6
4 0 6 16354.6 1282.26 1
4 0 7 134994 3952.57 1
4 0 7 134746 3538.21 6
4 0 8 92449.7 3119.55 6
4 0 8 95206.9 3570.58 1
4 0 9 7054.73 1059.84 1
4 0 9 5314.93 810.971 6
4 0 10 22125.2 1755.37 6
4 0 10 27840.4 2226.35 1
4 0 11 57104.5 2979.88 6
4 0 11 61616.6 3564.81 1
4 0 12 55387.6 3107.29 6
4 0 12 46841.1 3314.67 1
-4 -1 9 1185.27 550.611 1
4 1 -8 27170.7 2094.32 4
4 1 -7 21865.6 1808.49 4
4 1 -6 12358.3 1285.93 4
4 1 -5 8646.29 1046.23 4
4 1 -5 8926.29 707.411 5
4 1 -4 67740.2 2731.84 4
4 1 -4 67838.3 1943.04 5
4 1 -3 90327.2 3011.39 4
4 1 -3 90867.2 2272.38 5
4 1 -2 3978.08 623.863 4
4 1 -2 3148.07 423.97 5
4 1 -1 50756.2 2085.64 4
4 1 -1 51429.7 1684.94 5
4 1 -1 52224.9 1926.68 3
4 1 0 114537 2608.57 3
4 1 0 99736.8 2399.49 5
4 1 1 120550 2493.88 3
4 1 2 1957.24 313.493 3
4 1 2 1938.97 272.615 6
4 1 3 111784 2236.26 1
4 1 3 114505 2284.2 3
4 1 3 112351 2205.89 6
4 1 4 223721 3364.65 3
4 1 4 220773 3427.77 6
4 1 5 66305.9 2015.74 3
4 1 5 63427.2 2017.07 6
4 1 5 68434.5 2204.81 1
4 1 6 34721.7 1599.1 3
4 1 6 35340.9 1634.83 6
4 1 6 31438.8 1641.67 1
4 1 7 62432 2315.89 3
4 1 7 63639.5 2541.42 1
4 1 7 63733.7 2353.13 6
4 1 8 110945 3356.47 6
4 1 8 104530 3557.78 1
4 1 9 15158.8 1480.18 1
4 1 9 17809.7 1439.7 6
4 1 10 14302.2 1552.63 1
4 1 10 15317.7 1437.93 6
4 1 11 67477.1 3598.85 1
4 1 11 64947 3143.04 6
4 1 12 44118.8 3106.75 1
4 1 12 42069.1 2685.87 6
4 1 13 125.431 251.269 1
-4 -2 9 2521.34 767.534 1
-4 -2 8 30555.7 2415.77 1
4 2 -7 50446.7 2675.44 4
-4 -2 7 52612.5 2923.42 1
4 2 -6 12561.6 1292.65 4
4 2 -5 19701.1 1521.29 4
4 2 -4 125680 3677.66 4
4 2 -4 123962 2652.55 5
4 2 -3 80048.4 2827.42 4
4 2 -3 82304.5 2175.18 5
4 2 -2 23999.2 1494.17 4
4 2 -2 22556.5 1472.43 3
-4 -2 1 35689 741.004 6
4 2 -1 46395.5 1973.4 3
-4 -2 0 209712 1757.86 6
4 2 0 211626 3927.85 3
-4 -2 -1 274213 2634.88 1
4 2 1 265365 4158.32 3
4 2 2 3784.57 333.226 6
-4 -2 -2 3999.9 291.947 1
4 2 2 4136.83 506.014 3
4 2 3 69166.7 1412.73 1
-4 -2 -3 64409.7 1289.13 1
4 2 3 70077 2042.89 3
4 2 3 66614.3 1610.25 6
4 2 4 134238 2320.71 1
4 2 4 130211 2878.3 3
4 2 4 132542 2519.88 6
4 2 5 98071.6 2649.82 3
4 2 5 101555 2446.29 6
4 2 5 102064 2398.36 1
4 2 6 59.4667 72.874 3
4 2 6 20.3172 88.8401 1
4 2 7 72168 2552.98 1
4 2 7 75360.9 2719.5 3
4 2 7 74612.1 2128.31 5
4 2 8 65341.9 2673.71 1
4 2 8 62280.2 2643.07 3
4 2 8 63012.1 1927.81 5
4 2 9 15223 1419.29 1
4 2 9 13974.4 1339.21 3
4 2 10 4937.27 856.387 1
4 2 11 33447.5 2445.3 1
4 2 11 31240.1 2170.75 6
4 2 12 4955.85 1023.49 1
4 2 12 4706.4 908.401 6
4 2 13 4451.98 927.542 6
4 2 13 4350.01 1010.96 1
-4 -3 9 38.9349 214.866 1
-4 -3 8 44116.6 2973.61 1
-4 -3 7 14967.3 1600.14 1
-4 -3 6 29952.9 2089.68 1
-4 -3 5 7794.05 986.257 1
-4 -3 4 69444.4 2631.8 1
4 3 -4 73464.5 3202.31 3
-4 -3 3 58482.3 2158.99 1
4 3 -3 56789.4 2665.11 3
-4 -3 2 18708.9 1080.04 1
4 3 -2 19363.5 1462.26 3
-4 -3 1 41739.9 1372.13 1
4 3 -1 44568.2 2095.36 3
4 3 0 91407.4 2842.1 3
-4 -3 0 96525.4 1636.75 1
4 3 1 43374.5 1856.71 3
4 3 2 843.375 129.344 6
4 3 2 1133.56 303.374 3
4 3 3 34759 1061.08 6
4 3 3 32469.6 1550.51 3
4 3 4 52214.6 1132.86 1
4 3 4 53131.2 2034.94 3
4 3 5 29029.7 1569.93 3
4 3 5 27816.9 1125.96 1
4 3 6 6837.88 651.803 1
4 3 6 6441.25 792.841 3
4 3 7 73544.7 2445.66 1
4 3 7 74598.6 2849.11 3
4 3 8 -193.758 229.779 3
4 3 8 -41.2361 80.1586 1
4 3 9 4735.06 837.331 3
4 3 9 4322.79 521.451 5
4 3 10 9699.85 1185.39 1
4 3 10 7857.96 1129.19 3
4 3 11 28569.9 2182.39 1
4 3 12 1568.74 542.156 1
4 3 13 2043.93 675.815 1
-4 -4 7 10913.1 1428.26 1
4 4 -7 12366.6 1659.22 3
-4 -4 6 10497.7 1286.31 1
4 4 -6 10473.4 1448.78 3
-4 -4 5 10685.6 1209.27 1
4 4 -5 11284.4 1418.36 3
-4 -4 4 41020.9 2108.37 1
4 4 -4 42728.1 2584.77 3
-4 -4 3 15724.6 1180.39 1
4 4 -3 14740.7 1437.19 3
-4 -4 2 2151.25 393.038 1
4 4 -2 2583.03 576.966 3
-4 -4 1 12841.3 792.806 1
4 4 -1 12485.1 1196.79 3
4 4 0 50447.6 2279.82 3
-4 -4 0 50247.5 1213.94 1
4 4 1 18970.9 1347.32 3
4 4 2 7125.24 314.339 6
4 4 2 6376.97 764.487 3
4 4 3 66095.1 2425.11 3
4 4 4 22537.6 1446.22 3
4 4 5 603.947 271.037 3
4 4 5 637.125 146.892 1
4 4 6 20885.7 1044.51 1
4 4 6 20156 1474.6 3
4 4 7 28482.6 1429.31 1
4 4 7 29430.9 1879.79 3
4 4 8 22991.9 1441.73 1
4 4 8 23758.8 1799.02 3
4 4 9 142.013 243.616 3
4 4 9 142.017 204.377 1
4 4 10 36000.7 2182.3 1
4 4 10 38728.7 2579.51 3
4 4 11 26469.7 2027.54 1
4 4 11 25596.4 2191.21 3
4 4 12 5150.89 1001.02 1
4 4 13 3319.2 843.541 1
4 4 14 24188.8 2420.34 1
4 5 -7 9592.77 1520.25 3
4 5 -6 3170.84 870.741 3
4 5 -5 16488.5 1783.32 3
4 5 -4 11571.9 1424.18 3
-4 -5 4 14336.6 1292.34 1
4 5 -3 6013.57 977.692 3
-4 -5 3 4003.14 636.71 1
4 5 -2 9183.65 1156.93 3
-4 -5 2 9691.43 855.398 1
4 5 -1 59530.1 2801.69 3
-4 -5 1 67329.3 1902.98 1
-4 -5 0 56766.3 1390.57 1
4 5 0 57319.3 2612.97 3
4 5 1 -71.8892 191.503 3
4 5 2 30386.5 585.188 6
4 5 3 101521 3273.94 3
4 5 4 92921.2 3164.49 3
4 5 6 39811.5 1330.68 1
4 5 6 38195.1 2166.91 3
4 5 7 158676 4593.34 3
4 5 7 160480 3156.73 1
4 5 8 59684.4 2959.38 3
4 5 8 61894.5 2243.44 1
4 5 9 258.323 277.816 3
4 5 9 788.288 295.327 1
4 5 10 59573.1 3286.2 3
4 5 10 56629.3 2645.47 1
4 5 11 48947.7 3157.35 3
4 5 11 44774.8 2553.74 1
4 5 12 39527.2 2960.43 3
4 5 12 38333.1 2564.44 1
4 5 13 310.555 309.308 1
4 6 -6 -376.666 297.29 3
4 6 -5 14889.9 1808.96 3
4 6 -4 34798.8 2603.13 3
4 6 -3 13947.2 1581.79 3
4 6 -2 3049.6 699.576 3
4 6 -1 63605.2 3056.59 3
4 6 0 60212.8 2876.84 3
4 6 1 2147.72 572.779 3
4 6 2 318.611 227.396 3
4 6 3 193492 4863.57 3
4 6 4 79952.6 3157.57 3
4 6 5 1454.79 456.634 3
4 6 6 32040.6 2101.7 3
4 6 7 107932 4003.18 3
4 6 8 62854.1 3173.39 3
4 6 9 775.946 412.463 3
4 6 10 35603.7 2645.93 3
4 6 11 66548.7 3792.63 3
4 6 12 17532.8 2046.21 3
4 6 13 340.58 310.269 3
4 7 -5 13595.3 1795.13 3
4 7 -4 52671.6 3400.04 3
4 7 -3 21414.8 2063.68 3
4 7 -2 2013.26 630.742 3
4 7 -1 48477.9 2862.3 3
4 7 0 80431.8 3562.22 3
4 7 1 30593.5 2149.7 3
4 7 2 567.578 340.376 3
4 7 3 65116.4 3042.69 3
4 7 4 53947.7 2795.38 3
4 7 5 6308.56 975.813 3
4 7 6 5425.99 916.474 3
4 7 7 40729.4 2589.33 3
4 7 8 41886.6 2724.26 3
4 7 9 905.754 424.401 3
4 7 10 18342.3 1959.99 3
4 7 11 13313.7 1779.51 3
4 7 12 4353.14 1095.33 3
4 8 -3 19399.7 2092.84 3
4 8 -2 1068.37 505.428 3
4 8 -1 18135.9 1861.24 3
4 8 0 28657.3 2277.57 3
4 8 1 3927.1 851.52 3
4 8 2 6379.34 1049.41 3
4 8 3 17073.2 1674.7 3
4 8 4 15801.8 1627.21 3
4 8 5 40.6381 259.54 3
4 8 6 29022.3 2254.93 3
4 8 7 17945 1819.91 3
4 8 8 305.027 337.768 3
4 8 9 6138.6 1134.7 3
4 8 10 16450.9 1935.47 3
4 8 11 17639.4 2096.13 3
4 8 12 -301.954 356.191 3
4 9 -2 1444.54 602.719 3
4 9 -1 12140.7 1635.61 3
4 9 0 11713.7 1557.23 3
4 9 1 50.0462 126.218 3
4 9 2 15497.8 1721.88 3
4 9 3 21747.9 2022.98 3
4 9 4 953.76 434.985 3
4 9 6 20372.3 1997.12 3
4 9 7 24042 2216.72 3
4 9 8 515.29 371.871 3
4 9 9 10889.1 1576.94 3
4 9 10 21752.8 2336.52 3
4 9 11 45325.8 3487.45 3
4 10 0 18082.6 2049.42 3
4 10 1 1024.94 488.064 3
4 10 2 47849.8 3227.1 3
4 10 3 31356.3 2597.89 3
4 10 4 26760.6 2409.83 3
4 10 5 1281.48 535.271 3
4 10 6 31040.4 2644.64 3
4 10 7 61225.3 3764.85 3
4 10 8 6568.71 1254.89 3
4 10 9 1567.59 635.684 3
4 11 4 26943.7 2571.26 3
4 11 5 288.134 346.892 3
4 11 6 29519.5 2715.05 3
5 -9 -5 2916.52 807.37 4
5 -8 -7 20183.4 2071.96 2
5 -8 -6 10991.5 1595.75 4
5 -8 -6 7675.23 1272.88 2
5 -8 -5 590.673 424.921 4
5 -8 -5 1307.68 549.601 2
5 -8 -4 21426.3 2058.56 4
5 -8 -4 24536.5 2258.18 2
5 -8 -3 40783.1 2668.94 4
5 -8 -3 39653.9 2868.05 2
5 -8 -2 653.735 365.223 2
5 -8 -1 5620.46 1087.25 2
5 -8 0 28151.3 2395.22 2
5 -8 1 12973.8 1641.75 2
5 -8 2 4723.01 1028.03 2
5 -8 3 18856.2 1954.69 2
5 -8 4 18778.6 1959.99 2
5 -7 -7 49245.9 3428.69 4
5 -7 -7 39002.8 2687.69 2
5 -7 -6 171.319 258.386 4
5 -7 -6 1937.28 609.502 2
5 -7 -5 688.366 440.023 4
5 -7 -5 -237.49 294.439 2
5 -7 -4 22880 2069.43 4
5 -7 -4 23130.6 2084.3 2
5 -7 -3 38282.8 2517.73 4
5 -7 -3 41495.5 2771.73 2
5 -7 -2 3961.06 768.316 4
5 -7 -2 3025.19 765.295 2
5 -7 -1 176.035 244.986 2
5 -7 0 22414.5 2031.27 2
5 -7 1 20936 1953.4 2
5 -7 2 1057.85 483.222 2
5 -7 3 4239.11 899.681 2
5 -7 4 9605.52 1335.86 2
5 -7 5 3819.92 1059.63 1
5 -7 5 4241.69 888.913 2
5 -6 -7 12412.3 1695.03 4
5 -6 -6 704.668 485.683 4
5 -6 -6 508.883 362.206 2
5 -6 -5 1624.84 577.109 4
5 -6 -5 1693.87 572.303 2
5 -6 -4 18324.9 1797.96 4
5 -6 -4 18365.7 1749.7 2
5 -6 -3 16817.9 1634.92 4
5 -6 -3 14933.4 1571.83 2
5 -6 -2 71.372 217.731 4
5 -6 -2 572.355 344.464 2
5 -6 -1 12200.2 1265.42 4
5 -6 -1 10534 1316.59 2
5 -6 0 30840 1887.78 4
5 -6 0 31855.8 2263.73 2
5 -6 1 2039.57 606.523 2
5 -6 2 -199.516 323.425 2
5 -6 3 20774.9 1836.16 2
5 -6 4 25057.7 2008.81 2
5 -6 5 3930.35 961.662 1
5 -6 5 2770.97 657.469 2
5 -6 6 10332.8 1619.23 1
5 -6 7 37011.9 3064.5 1
5 -5 -8 8573.44 1440.36 4
5 -5 -7 11244.4 1573.81 4
5 -5 -6 1628.6 604.455 4
5 -5 -6 1654.68 552.867 2
5 -5 -5 8123.62 1234.83 4
5 -5 -5 6466.05 1002.53 2
5 -5 -4 49037.5 2856.27 4
5 -5 -4 53383.4 2792.66 2
5 -5 -3 5053.1 885.193 4
5 -5 -3 4501.9 819.45 2
5 -5 -2 -380.838 289.137 4
5 -5 -2 -369.017 251.83 2
5 -5 -1 24210.1 1740.26 4
5 -5 -1 23744.7 1843.38 2
5 -5 0 70695.6 2811.52 4
5 -5 0 71834 3184.31 2
5 -5 1 10492.2 1026.77 4
5 -5 1 9954.78 1186.21 2
5 -5 2 5860.34 930.327 2
5 -5 3 64171.2 3012.06 2
5 -5 4 53976.6 3175.43 1
5 -5 4 53950.2 2757.24 2
5 -5 5 3920.02 898.913 1
5 -5 5 3262.95 691.889 2
5 -5 6 28239.1 2449.2 1
5 -5 6 24288.9 1883.37 2
5 -5 7 31431.5 2667.25 1
5 -5 8 37448 3013.56 1
5 -4 -8 15854.9 1926.65 4
5 -4 -7 29459.8 2483.88 4
5 -4 -6 58.4718 350.102 4
5 -4 -6 109.219 188.994 2
5 -4 -5 31804.5 2343.93 4
5 -4 -5 25074.8 1811.9 2
5 -4 -4 69080.7 3289.77 4
5 -4 -4 66653.8 2946.74 2
5 -4 -3 25755.6 1933.63 4
5 -4 -3 27113.5 1883.6 2
5 -4 -2 368.521 261.544 5
5 -4 -2 626.327 309.258 4
5 -4 -2 1080.89 398.803 2
5 -4 -1 72968 2952.29 4
5 -4 -1 67353.7 2922.56 2
5 -4 -1 71472.7 2787.5 5
5 -4 0 142759 3936.2 4
5 -4 0 139121 4182.39 2
5 -4 0 137923 3850.57 5
5 -4 1 37756.3 1920.66 4
5 -4 1 37705.1 2169.23 2
5 -4 1 36759.8 1988.54 5
5 -4 2 37718.1 1823.58 4
5 -4 2 36927.5 2151.15 2
5 -4 2 39168.6 2070.57 5
5 -4 3 32309.6 2017.12 2
5 -4 3 29304.1 1810.26 5
5 -4 4 134642 4676.61 1
5 -4 4 125291 3977.52 2
5 -4 5 17970.9 1770.94 1
5 -4 5 18118.7 1519.84 2
5 -4 6 14526 1633.3 1
5 -4 6 17898.4 1512.98 2
5 -4 7 47126.9 3060.77 1
5 -4 8 37047.4 2851.31 1
5 -4 9 1351.88 635.26 1
5 -3 -9 4691.19 1050.46 4
5 -3 -8 31131.5 2632.09 4
5 -3 -7 24122.8 2206.88 4
5 -3 -6 7076.58 1160.9 4
5 -3 -5 18976.1 1792.35 4
5 -3 -5 21436.1 1602.45 2
5 -3 -4 62426.5 3075.25 4
5 -3 -4 57526.8 2594.35 2
5 -3 -4 65194.3 2547.69 5
5 -3 -3 42195.4 2426.37 4
5 -3 -3 36735.4 2053 2
5 -3 -3 44293.7 2080.73 5
5 -3 -2 2777.06 519.641 5
5 -3 -2 2729.44 612.276 4
5 -3 -2 2653.31 583.81 2
5 -3 -1 40627.8 2154.14 4
5 -3 -1 39636.3 2131.88 2
5 -3 -1 44348.1 2041.18 5
5 -3 0 68481.1 2675.31 4
5 -3 0 70481.3 2826.82 2
5 -3 0 69041.2 2529.04 5
5 -3 1 13939.4 1161.61 4
5 -3 1 11782 1164.41 2
5 -3 1 15911.6 1225.72 5
5 -3 2 3145.58 550.591 5
5 -3 2 2978.11 596.299 2
5 -3 3 59662.1 2831.09 1
5 -3 3 60546.6 2623.84 2
5 -3 3 59670.2 2389.71 5
5 -3 4 71641.7 3171.28 1
5 -3 4 71835 2854.63 2
5 -3 4 70430.2 2615.86 5
5 -3 5 2281.12 502.252 5
5 -3 5 2209.26 604.079 1
5 -3 5 2256.34 543.965 2
5 -3 6 8671.3 1208.45 1
5 -3 6 7707.39 954.379 2
5 -3 6 7801.62 911.506 5
5 -3 7 26802.3 2171.73 1
5 -3 7 27845.3 1887.95 6
5 -3 8 18718.6 1915.56 1
5 -3 8 20475.9 1694.35 6
5 -3 9 1085.94 422.368 6
5 -3 9 290.446 351.526 1
5 -3 10 1985.71 728.437 1
5 -3 10 978.837 444.263 6
5 -2 -9 3587.74 967.633 4
5 -2 -8 37568.2 2834.47 4
5 -2 -7 34624.8 2597.2 4
5 -2 -6 3265.81 773.417 4
5 -2 -5 14058.6 1523.24 4
5 -2 -5 13392.2 1104.3 5
5 -2 -4 43855.8 2533.37 4
5 -2 -4 48686.9 2055.19 5
5 -2 -3 20781.6 1679.52 4
5 -2 -3 21583.5 1370.49 5
5 -2 -2 1315.14 430.774 4
5 -2 -2 1057.02 377.963 2
5 -2 -2 1337.47 365.756 5
5 -2 -1 17216.3 1392.13 4
5 -2 -1 15701.2 1177.34 5
5 -2 -1 15455.9 1268.46 2
5 -2 0 29170.5 1718.97 4
5 -2 0 28154.6 1702.82 2
5 -2 0 30133.1 1069.51 3
5 -2 0 29067.4 1607.93 5
5 -2 1 17461.7 1286.65 4
5 -2 1 20185.3 1440.99 2
5 -2 1 17388.7 1236.27 5
5 -2 2 12603.9 1140.91 2
5 -2 2 11879.9 1022.76 5
5 -2 3 21658.5 1561.61 1
5 -2 3 19039.8 1392.69 2
5 -2 3 20202 1330.74 5
5 -2 4 12904.5 1248.79 1
5 -2 4 13509.2 1180.28 2
5 -2 4 10723.5 973.044 5
5 -2 5 1568.27 382.899 5
5 -2 5 712.197 287.732 1
5 -2 5 717.172 336.361 2
5 -2 6 1709.75 403.57 5
5 -2 6 1876.56 552.635 1
5 -2 6 945.94 342.661 6
5 -2 7 31515.9 2206.57 1
5 -2 7 32772.8 1942.8 6
5 -2 7 34992.7 1778.28 5
5 -2 8 7945.49 1165.42 1
5 -2 8 5505.32 845.43 6
5 -2 9 8889.02 1328.1 1
5 -2 9 9448.82 1154.69 6
5 -2 10 18496.9 2017.19 1
5 -2 10 19089.6 1729.43 6
5 -2 11 9302.17 1475 1
5 -2 11 9397.36 1292.2 6
5 -1 -9 5921.83 1173.81 4
5 -1 -8 25218.7 2293.63 4
5 -1 -7 11445.1 1481.73 4
5 -1 -6 3132.27 756.353 4
5 -1 -5 16668.6 1613.96 4
5 -1 -5 17154.9 1181.75 5
5 -1 -4 9206.12 1150.6 4
5 -1 -4 9673.11 901.662 5
5 -1 -3 52112.9 2607.4 4
5 -1 -3 52797.7 2074.8 5
5 -1 -2 39632.8 2189.55 4
5 -1 -2 44259.8 1879.95 5
5 -1 -1 29610.9 1800.01 4
5 -1 -1 32060.7 1590.87 5
5 -1 0 22973.4 1534.61 4
5 -1 0 23453.3 1356.63 5
5 -1 0 24215.2 1094.75 3
5 -1 1 4244.01 639.652 4
5 -1 1 3627.32 365.739 3
5 -1 1 3243.72 519.063 5
5 -1 2 36285.7 866.257 3
5 -1 2 36155.1 1686.52 5
5 -1 3 44602 2045.87 1
5 -1 3 43883.3 1854.39 5
5 -1 4 40694.3 2014.02 1
5 -1 4 38700.2 1763.92 5
5 -1 5 1441.85 417.31 1
5 -1 5 1839.33 421.083 6
5 -1 5 1529.57 366.164 5
5 -1 6 63544.5 2771.39 1
5 -1 6 63278 2455.77 6
5 -1 6 64441.7 2317.28 5
5 -1 7 62858.9 2926.17 1
5 -1 7 64160 2604.06 6
5 -1 7 58569.9 2224.18 5
5 -1 8 11267.8 1315.91 1
5 -1 8 13241.1 1260.85 6
5 -1 8 13935.1 1066.65 5
5 -1 9 13305.6 1339.12 6
5 -1 9 11426.4 1417.01 1
5 -1 10 45814.3 3025.77 1
5 -1 10 43278.2 2544.9 6
5 -1 11 30113.5 2583.53 1
5 -1 11 28018.5 2158.8 6
5 -1 12 14659.3 1941.42 1
5 0 -9 10833.5 1585.63 4
5 0 -8 11334.9 1501.81 4
5 0 -7 12645.4 1523.49 4
5 0 -6 8114.9 1145.74 4
5 0 -5 29345.4 2097.4 4
5 0 -5 28081.5 1473.09 5
5 0 -4 37544 2267.2 4
5 0 -4 37398.5 1689.58 5
5 0 -3 13239.5 1302.98 4
5 0 -3 11436.8 928.448 5
5 0 -2 43588.8 2269.65 4
5 0 -2 40300.7 1720.4 5
5 0 -1 65422.8 2684.42 4
5 0 -1 64071.9 2164.96 5
5 0 0 64791.5 2576.07 4
5 0 0 67587.9 2219.54 5
5 0 0 65370.6 2016.85 3
5 0 1 7287.93 736.604 5
5 0 1 10164.3 719.501 3
5 0 2 45576.7 1404.72 3
5 0 2 47138.2 1862.75 5
5 0 3 228503 2896.32 3
5 0 3 223175 4087.15 5
5 0 4 49540.8 1996.25 1
5 0 4 48434.1 1349.1 3
5 0 4 48672.6 1823.5 6
5 0 4 48901 1901.26 5
5 0 5 4941.53 689.99 1
5 0 5 5444.67 498.317 3
5 0 5 5591.22 664.029 6
5 0 5 6767.3 721.243 5
5 0 6 62852.8 1851.94 3
5 0 6 61164 2519.24 1
5 0 6 63891.2 2380.4 6
5 0 6 69918.7 2300.37 5
5 0 7 109660 3628.7 1
5 0 7 106003 3234.25 6
5 0 7 112799 2945.94 5
5 0 8 41380 1814.07 5
5 0 8 37677.9 2292.51 1
5 0 8 37555 2047.93 6
5 0 9 9263.62 1208.98 1
5 0 9 11626 1208.78 6
5 0 10 63179.9 3390.13 1
5 0 10 62758 3000.61 6
5 0 11 66638.4 3261.13 6
5 0 11 58671.3 3472.44 1
5 0 12 2975.17 787.315 6
5 0 12 5376.1 1127.55 1
-5 -1 9 11846 1662.73 1
5 1 -8 31593.4 2464.57 4
5 1 -7 11852.3 1454.87 4
5 1 -6 4788.83 902.16 4
5 1 -5 64877 3081.94 4
5 1 -4 77307.5 3232.08 4
5 1 -4 77349.6 2374.79 5
5 1 -3 14900.1 1376.85 4
5 1 -3 18053.9 1154.1 5
5 1 -2 10646.7 1118.56 4
5 1 -2 9510.95 833.397 5
5 1 -1 165316 4265.51 4
5 1 -1 168492 3475.61 5
5 1 -1 169435 3826.01 3
5 1 0 187499 3666.59 5
5 1 0 190164 3742.12 3
5 1 1 5989.57 655.251 5
5 1 1 5743.27 617.24 3
5 1 2 53472.4 1766.94 3
5 1 2 52055 1933.11 5
5 1 3 145555 2841.69 3
5 1 3 140984 2710.55 6
5 1 3 144204 3216.42 5
5 1 4 105784 2507.2 6
5 1 4 99984.1 2516.23 1
5 1 4 100771 2389.79 3
5 1 4 101718 2689.25 5
5 1 5 7446.17 750.448 1
5 1 5 7611.73 689.774 3
5 1 5 6359.14 677.454 6
5 1 5 7321.67 733.117 5
5 1 6 50970.3 1917.41 3
5 1 6 53045.2 2173.02 1
5 1 6 51634.4 2039.8 6
5 1 6 53264.3 1990.09 5
5 1 7 100159 3269.33 1
5 1 7 96272.3 2853.8 3
5 1 7 101600 3070.55 6
5 1 7 103939 2797.62 5
5 1 8 20832.3 1422.24 3
5 1 8 22567.3 1555.07 6
5 1 8 23661.2 1709.64 1
5 1 8 23586.5 1327.58 5
5 1 9 1086.22 418.115 1
5 1 9 465.551 280.516 6
5 1 10 27984.9 1964.22 6
5 1 10 26696.8 2116.4 1
5 1 11 15617 1559.39 6
5 1 11 13199.6 1578.4 1
5 1 12 5331.28 1092.51 1
5 1 12 7183.45 1126.29 6
5 1 13 5093.51 1140.18 1
-5 -2 8 15929.7 1799.21 1
5 2 -7 14766.2 1595.52 4
-5 -2 7 14853.8 1621.64 1
5 2 -6 268.15 209.3 4
5 2 -5 47740.2 2640.05 4
5 2 -4 57249.3 2788.47 4
5 2 -4 63063 2158.4 5
5 2 -3 17247.1 1484.45 4
5 2 -3 17231.4 1137.17 5
5 2 -3 16496.9 1470.01 3
5 2 -2 29302.3 1486.33 5
5 2 -2 28021.9 1792.65 3
5 2 -1 80411.5 2842.85 3
5 2 -1 80888.8 2472.93 5
5 2 0 73206.7 2283.22 5
5 2 0 67758.2 2443.49 3
5 2 1 4877.52 627.246 3
5 2 2 46228.7 1824.19 3
5 2 3 93624.1 2553.51 3
5 2 3 93828 2007.11 6
5 2 4 61756.8 1697.15 1
5 2 4 61815.4 1811.58 6
5 2 5 2208.22 419.543 3
5 2 5 1641.4 317.989 1
5 2 5 1813.32 352.994 6
5 2 5 1461.33 335.386 5
5 2 6 109351 3055.86 3
5 2 6 104859 2814.27 1
5 2 6 102731 2785.24 6
5 2 6 106174 2824.87 5
5 2 7 4111.11 645.447 3
5 2 7 3410.27 561.473 6
5 2 7 4629.7 591.444 5
5 2 7 3976.97 608.225 1
5 2 8 25109.2 1677.3 3
5 2 8 25555.1 1614.43 6
5 2 8 24640 1367.18 5
5 2 8 23425.4 1603.29 1
5 2 9 325.747 303.997 1
5 2 9 161.79 175.419 6
5 2 9 344.558 166.461 5
5 2 9 385.381 241.108 3
5 2 10 21812.7 1709.4 6
5 2 10 24150.3 1921.07 1
5 2 11 13210.6 1406.76 6
5 2 11 10764.4 1374.6 1
5 2 12 35.2343 118.628 1
5 2 12 175.869 258.558 6
5 2 13 4962.13 1054.47 1
5 3 -7 18212.6 2031.3 3
-5 -3 6 178.859 232.811 1
5 3 -6 -163.48 295.391 3
-5 -3 5 24551 1785.38 1
5 3 -5 26616.2 2188.3 3
-5 -3 4 19853 1475.73 1
5 3 -4 21766.1 1309.87 5
5 3 -4 21723.7 1860.49 3
-5 -3 3 154.761 115.54 1
5 3 -3 231.827 216.034 3
5 3 -3 -20.1046 72.6346 5
5 3 -2 -221.153 249.66 3
5 3 -1 33625.1 1976.13 3
5 3 0 13101.3 1167.62 3
5 3 1 576.291 282.956 3
5 3 2 78468.5 2621.47 3
5 3 3 11832.7 1008.66 3
5 3 3 12843.7 676.082 6
5 3 4 2340.52 465.329 3
5 3 4 1797.53 298.988 6
5 3 5 11915.9 699.885 1
5 3 5 12359 1066.67 3
5 3 5 11867.5 845.643 6
5 3 6 49272.7 2205.72 3
5 3 6 53613.9 1797.13 1
5 3 6 53922.9 1955.84 6
5 3 7 20895.8 1327.92 6
5 3 7 22529 1347.76 1
5 3 8 -118.669 191.145 3
5 3 8 264.715 164.131 1
5 3 8 184.309 186.028 6
5 3 8 137.728 131.271 5
5 3 9 25294.4 1888.07 3
5 3 9 24823.2 1681.22 6
5 3 9 26052.1 1441.57 5
5 3 9 24513.4 1689.5 1
5 3 10 49237 2624.92 1
5 3 10 49593.5 2768.67 3
5 3 10 48816.6 2513.7 6
5 3 11 12371.1 1431.36 1
5 3 11 11074.1 1380.64 3
5 3 11 12102.4 1345.92 6
5 3 12 3301.17 769.993 1
5 3 12 5236.9 971.965 6
5 3 13 12538.6 1632.14 1
5 3 13 13043.3 1591.82 6
5 4 -6 825.423 465.846 3
5 4 -5 24034 2173.28 3
5 4 -4 10297.5 1339.25 3
5 4 -3 834.124 376.798 3
5 4 -2 13885.2 1424.82 3
5 4 -1 54552.3 2666.96 3
5 4 0 3302.05 650.679 3
5 4 1 18552.4 1432.41 3
5 4 2 43011.2 2105.95 3
5 4 3 51744.6 1190.3 6
5 4 3 50053.8 2246.34 3
5 4 4 6042.72 789.069 3
5 4 4 7564.43 575.563 6
5 4 5 22841.4 1567.82 3
5 4 5 25821.7 1221.75 6
5 4 6 109452 3525.52 3
5 4 7 56727.3 2641.59 3
5 4 7 61731.3 2016.72 1
5 4 8 175.133 205.719 3
5 4 8 267.639 154.439 1
5 4 9 34467.3 1901.59 1
5 4 9 37701.6 2402.89 3
5 4 10 65310.3 2882.23 1
5 4 10 64129.5 3302.56 3
5 4 11 39133.2 2417.84 1
5 4 11 39585.9 2732.75 3
5 4 12 111.361 258.744 3
5 4 12 -201.153 245.947 1
5 5 -6 10857.2 1642.09 3
5 5 -5 33614.2 2706.68 3
5 5 -4 13767.9 1645.97 3
5 5 -3 -211.513 356.373 3
5 5 -2 47920 2797.75 3
5 5 -1 64368.9 3106.83 3
5 5 0 6105.68 944.752 3
5 5 1 26.6513 228.307 3
5 5 2 116805 3751.57 3
5 5 3 106496 3520.35 3
5 5 4 11622.3 685.107 6
5 5 4 11534.1 1170.79 3
5 5 5 33959.7 2044.75 3
5 5 6 106371 3715.26 3
5 5 7 82206.7 3361.47 3
5 5 8 14448.3 1479.45 3
5 5 9 32812.2 2339.91 3
5 5 10 104598 4404.03 3
5 5 11 34100.5 2631.12 3
5 5 12 1407.07 559.177 3
5 5 13 22629.9 2350.35 3
5 6 -5 46731.5 3342.76 3
5 6 -4 20994.1 2152.48 3
5 6 -3 9484.13 1381.85 3
5 6 -2 37050.1 2598.13 3
5 6 -1 79009.9 3645.45 3
5 6 0 38590.8 2453.01 3
5 6 1 1068.31 421.632 3
5 6 3 76088.1 3200.85 3
5 6 4 13797.2 1357.4 3
5 6 5 1932.38 553.16 3
5 6 6 30022.4 2096.34 3
5 6 7 78017.5 3483.88 3
5 6 8 120.156 177.678 3
5 6 9 15094.6 1658.13 3
5 6 10 27370.5 2350.77 3
5 6 11 3576.72 890.195 3
5 6 12 -610.04 398.844 3
5 6 13 17314.5 2134.03 3
5 7 -4 30706.9 2713.63 3
5 7 -3 289.965 283.497 3
5 7 -2 23798 2197.08 3
5 7 -1 48239 3035.76 3
5 7 0 17225.8 1728.98 3
5 7 1 397.277 323.522 3
5 7 2 11326.4 1349.16 3
5 7 3 81963.5 3556.22 3
5 7 4 3698.23 769.644 3
5 7 5 5491.27 929.019 3
5 7 6 16493.7 1646.95 3
5 7 7 12898.6 1487.47 3
5 7 8 554.515 304.566 3
5 7 9 4846.63 995.55 3
5 7 10 8869.61 1404.22 3
5 7 11 2429.06 751.846 3
5 7 12 4844.53 1094.59 3
5 8 -2 8232.76 1414.05 3
5 8 -1 12276.4 1622.44 3
5 8 0 -72.4784 278.914 3
5 8 1 9028.87 1322.12 3
5 8 2 36011.7 2540.17 3
5 8 3 7429.09 1158 3
5 8 4 4507.68 915.756 3
5 8 5 19850.9 1894.75 3
5 8 6 40770.3 2744.09 3
5 8 7 4949.09 984.024 3
5 8 8 6732.3 1198.89 3
5 8 9 20901.7 2146.53 3
5 8 10 47088.1 3320.03 3
5 8 11 55.1747 373.597 3
5 9 -1 12814.6 1749.1 3
5 9 0 101.625 202.998 3
5 9 1 34392.3 2703.38 3
5 9 2 29428 2459.28 3
5 9 3 15028.2 1730.06 3
5 9 4 1227.34 529.28 3
5 9 5 21937.8 2107.04 3
5 9 6 80271.9 4098.83 3
5 9 7 5234.15 1084.86 3
5 9 8 3631.92 951.852 3
5 9 9 24177.1 2416.34 3
5 9 10 44934.3 3386.98 3
5 10 2 30400.8 2651.74 3
5 10 3 31735.4 2719.08 3
5 10 4 294.653 321.616 3
5 10 5 31072.5 2680.96 3
5 10 6 50552.9 3479.23 3
5 10 7 24073.7 2421.38 3
5 10 8 -1.81195 165.828 3
6 -8 -4 23856.4 2271.21 4
6 -7 -6 -350.023 326.663 2
6 -7 -5 9032.38 1449.3 4
6 -7 -5 8048.09 1299.51 2
6 -7 -4 15613.4 1827.86 4
6 -7 -4 17400.1 1895.08 2
6 -7 -3 2992.16 769.25 4
6 -7 -3 3974.02 903.704 2
6 -7 -2 5680.02 1000.3 4
6 -7 -2 7874.2 1278.92 2
6 -7 -1 11831.2 1558.83 2
6 -7 0 11919.6 1563.13 2
6 -7 1 238.778 241.033 2
6 -7 2 5758 1093.95 2
6 -7 3 21297.6 2088.94 2
6 -7 4 5734.8 1074.02 2
6 -7 5 -267.975 246.874 2
6 -6 -6 1935.29 664.1 4
6 -6 -6 2448.17 690.043 2
6 -6 -5 15105.3 1816.88 4
6 -6 -5 12589 1540.76 2
6 -6 -4 10213.7 1436.6 4
6 -6 -4 6495.52 1139.61 2
6 -6 -3 322.626 336.7 4
6 -6 -3 255.279 320.05 2
6 -6 -2 11030.7 1355.8 4
6 -6 -2 11814 1490.9 2
6 -6 -1 28919.1 2101.13 4
6 -6 -1 28272.9 2274.68 2
6 -6 0 10812 1410.72 2
6 -6 1 1921.2 620.875 2
6 -6 2 45819.4 2893.18 2
6 -6 3 39310.7 2658.3 2
6 -6 4 4983.06 966.816 2
6 -6 5 11965.4 1489.46 2
6 -6 6 38208.3 3161.98 1
6 -6 6 33258.1 2463.29 2
6 -5 -6 2888.98 795.531 4
6 -5 -6 4875.79 924.684 2
6 -5 -5 28384.7 2438.77 4
6 -5 -5 31413.5 2320.3 2
6 -5 -4 22081.8 2065.87 4
6 -5 -4 20723.4 1876.86 2
6 -5 -3 403.406 348.021 4
6 -5 -3 511.745 357.825 2
6 -5 -2 12781.5 1446.08 4
6 -5 -2 14006.7 1536.35 2
6 -5 -1 60644.5 2992.05 4
6 -5 -1 62031.3 3191.06 2
6 -5 0 34568.7 2164.46 4
6 -5 0 38294.2 2495.03 2
6 -5 1 17798.9 1489.27 4
6 -5 1 18062.4 1727 2
6 -5 2 14181.7 1521.88 2
6 -5 3 75033.4 3504.73 2
6 -5 4 14818 1574.66 2
6 -5 5 10061.5 1514.02 1
6 -5 5 9335.5 1231.21 2
6 -5 6 43253.2 3167.76 1
6 -5 6 37834.4 2513.16 2
6 -5 7 39616.3 3115.28 1
6 -4 -7 7323.39 1317.7 4
6 -4 -6 12573.4 1664.34 4
6 -4 -5 49163.7 3141.71 4
6 -4 -5 46603.8 2703.08 2
6 -4 -4 45883.2 2922.65 4
6 -4 -4 50360.4 2795.19 2
6 -4 -3 -236.371 270.066 5
6 -4 -3 -163.325 268.637 4
6 -4 -3 483.494 326.492 2
6 -4 -2 14285.6 1501.32 4
6 -4 -2 13295 1413.77 2
6 -4 -2 15179.1 1406.2 5
6 -4 -1 67320.5 3094.44 4
6 -4 -1 72368.8 3289.01 2
6 -4 -1 70676.6 2986.4 5
6 -4 0 33434.8 2104.43 4
6 -4 0 33710.2 2245.53 2
6 -4 0 36636.4 2162.85 5
6 -4 1 1249.26 453.8 5
6 -4 1 1681.6 458.033 4
6 -4 1 1375.27 502.864 2
6 -4 2 24661.9 1913.09 2
6 -4 2 22257.9 1693.35 5
6 -4 3 67992 3165.83 2
6 -4 3 66664.5 2938.31 5
6 -4 4 15081.9 1492.58 2
6 -4 4 17235.8 1509.54 5
6 -4 5 4996.19 872.501 2
6 -4 5 3526.94 848.573 1
6 -4 6 25806 2292.93 1
6 -4 6 23676.1 1892.96 2
6 -4 7 13858.8 1748.68 1
6 -4 8 9585.05 1527.33 1
6 -3 -7 9071.52 1477 4
6 -3 -6 11824.4 1599.09 4
6 -3 -5 34469.9 2597.59 4
6 -3 -5 31386.7 1952.7 5
6 -3 -4 20752.2 1923.49 4
6 -3 -4 18091 1481.47 5
6 -3 -3 1700.92 485.589 5
6 -3 -3 1608.92 527.044 4
6 -3 -3 2416.81 623.489 2
6 -3 -2 11279.2 1321.97 4
6 -3 -2 11592.7 1271.99 2
6 -3 -2 11138.8 1134.47 5
6 -3 -1 38963 2320.15 4
6 -3 -1 39600.1 2326.16 2
6 -3 -1 37073.4 2035.32 5
6 -3 0 16266.4 1445.57 4
6 -3 0 18039.6 1566.52 2
6 -3 0 16593 1370.77 5
6 -3 1 733.921 354.633 5
6 -3 1 518.874 274.695 4
6 -3 1 925.316 419.565 2
6 -3 2 18275.1 1583.24 2
6 -3 2 16794.8 1379.07 5
6 -3 3 11148.7 1232.72 2
6 -3 3 12012.8 1171.67 5
6 -3 4 1583.5 455.125 5
6 -3 4 2144.62 566.126 2
6 -3 5 1143.31 409.851 5
6 -3 5 1226.16 437.57 2
6 -3 5 2365.63 681.282 1
6 -3 6 18324.9 1822.48 1
6 -3 6 19220 1531.77 5
6 -3 7 10086.2 1413.93 1
6 -3 7 8118.96 1003.31 5
6 -3 8 538.009 374.365 1
6 -3 9 12229.6 1668.4 1
6 -3 10 10358.8 1612.81 1
6 -2 -7 -276.222 253.827 4
6 -2 -6 11698.9 1560.16 4
6 -2 -5 13665.1 1625.38 4
6 -2 -5 12463.2 1166.05 5
6 -2 -4 32600.2 2374.77 4
6 -2 -4 34572.2 1914.69 5
6 -2 -3 2215.88 498.677 5
6 -2 -3 1934.62 606.11 4
6 -2 -2 21934.8 1807.23 4
6 -2 -2 24007.9 1595.99 5
6 -2 -1 25675.7 1889.09 4
6 -2 -1 24795.1 1631.71 5
6 -2 0 8228.76 1027.39 4
6 -2 0 8449.96 950.253 5
6 -2 1 6184.96 882.202 4
6 -2 1 4810.9 806.57 2
6 -2 1 3814.84 646.617 5
6 -2 2 13517.2 1299.85 2
6 -2 2 16219.3 1310.18 5
6 -2 3 34513.9 1930.35 5
6 -2 4 345.948 291.196 1
6 -2 4 -0.78683 161.099 5
6 -2 5 21423 1770.03 1
6 -2 5 21905.3 1529.58 5
6 -2 6 28442 2112.03 1
6 -2 6 28269.4 1766.03 5
6 -2 7 14321.3 1555.56 1
6 -2 7 14411 1364.91 6
6 -2 7 15359.9 1305.08 5
6 -2 8 4056.42 872.329 1
6 -2 8 3307.33 714.516 6
6 -2 9 33520.4 2602.78 1
6 -2 9 36576.4 2361.47 6
6 -2 10 10381 1550.46 1
6 -2 10 13535.7 1493.8 6
6 -1 -8 8977.19 1468.46 4
6 -1 -7 2555.29 777.203 4
6 -1 -6 18069.8 1909.45 4
6 -1 -5 12575.3 1547.27 4
6 -1 -5 13100.4 1141.36 5
6 -1 -4 11666 1428.41 4
6 -1 -4 11866.9 1104.43 5
6 -1 -3 19708.4 1771.98 4
6 -1 -3 18779.7 1392.25 5
6 -1 -2 50360.2 2700.16 4
6 -1 -2 48113.3 2209.57 5
6 -1 -1 38508.8 2291.1 4
6 -1 -1 39901.9 1980.04 5
6 -1 -1 36367 1684.71 3
6 -1 0 6960.44 958.113 4
6 -1 0 6624.69 799.08 5
6 -1 0 7282.51 673.092 3
6 -1 1 13496.2 1149.55 5
6 -1 2 171588 4055.38 5
6 -1 3 53083.3 2263.1 5
6 -1 4 322.543 257.461 1
6 -1 4 455.289 253.855 5
6 -1 5 48765.3 2452.87 1
6 -1 5 46532.2 2167.63 5
6 -1 6 73824.5 3142.89 1
6 -1 6 74670.7 2829.67 6
6 -1 6 79302.6 2863.09 5
6 -1 7 75852.2 3339.8 1
6 -1 7 70348.3 2864.67 6
6 -1 7 75322 2816.61 5
6 -1 8 1464.79 392.257 5
6 -1 8 840.447 369.2 1
6 -1 8 658.167 306.061 6
6 -1 9 52156.8 3078.01 1
6 -1 9 48142 2608.11 6
6 -1 10 53759 3298.33 1
6 -1 10 49373.4 2775.89 6
6 -1 11 14177.5 1794.34 1
6 -1 11 15891.7 1655.03 6
6 0 -8 11147.3 1592.59 4
6 0 -7 663.111 436.671 4
6 0 -6 17959.5 1868.23 4
6 0 -5 34170 2464.19 4
6 0 -4 10166.1 1297.02 4
6 0 -4 8380.35 908.026 5
6 0 -3 647.531 358.788 4
6 0 -3 128.339 169.204 5
6 0 -2 106902 3925.58 4
6 0 -2 104439 3106.49 5
6 0 -2 103638 3306 3
6 0 -1 58617.2 2833.29 4
6 0 -1 58198.4 2312.11 5
6 0 -1 57700.5 2282.43 3
6 0 0 10102.8 1141.64 4
6 0 0 9958.22 960.778 5
6 0 0 11395.4 934.654 3
6 0 1 25844.6 1278.52 3
6 0 1 25957.5 1543.18 5
6 0 2 142455 2764.32 3
6 0 2 135988 3527.73 5
6 0 3 71513.4 1782.32 3
6 0 3 75473.2 2627.6 5
6 0 4 8627.37 897.262 5
6 0 5 37155.5 1951.32 1
6 0 5 39578.1 1869.83 6
6 0 5 34905 1812.48 5
6 0 6 129739 3843.43 1
6 0 6 130074 3522.91 6
6 0 6 130117 3504.53 5
6 0 7 42631.3 2346.49 1
6 0 7 44835.9 2184.66 6
6 0 7 46781.2 2128.06 5
6 0 8 280.062 241.395 1
6 0 8 64.4877 201.627 6
6 0 8 194.185 182.683 5
6 0 9 31792.4 2278.61 1
6 0 9 29388.6 1995.6 6
6 0 10 35362.7 2555.5 1
6 0 10 34027.5 2251.9 6
6 0 11 19115.9 2004.45 1
6 0 11 19192.2 1796.83 6
6 0 12 1073.81 518.244 1
6 1 -8 14602.3 1810.76 4
6 1 -7 1011.73 458.558 4
6 1 -6 24978.8 2177.69 4
6 1 -5 53294.6 3051.48 4
6 1 -4 27402 2122.46 4
6 1 -4 32323.5 1730.17 5
6 1 -3 4601.47 838.781 4
6 1 -3 4762.23 813.007 3
6 1 -3 3678.87 579.259 5
6 1 -2 58713.4 2913.98 4
6 1 -2 60451.4 2345.27 5
6 1 -2 61915.7 2698.9 3
6 1 -1 64383.4 2424.69 5
6 1 -1 63449 2545.43 3
6 1 0 21842.2 1407.75 5
6 1 0 21491.5 1392.5 3
6 1 1 14461 1134.83 5
6 1 1 13603.2 1032.56 3
6 1 2 77041.3 2319.5 3
6 1 2 72989.3 2543.5 5
6 1 3 67559.4 2107.23 3
6 1 3 69929.8 2503.08 5
6 1 4 8784.98 754.672 3
6 1 4 8411.56 874.584 5
6 1 5 59407.6 2232.08 1
6 1 5 59179.2 1970.2 3
6 1 5 55801.6 2096.79 6
6 1 5 58688.8 2325.15 5
6 1 6 17623.6 1301.62 1
6 1 6 17977.9 1259.77 6
6 1 6 15809.6 1222.34 5
6 1 7 26129.7 1704.07 1
6 1 7 26064.8 1606.8 6
6 1 7 26619.4 1587.05 5
6 1 8 -139.923 243.621 1
6 1 8 282.827 211.592 6
6 1 8 70.7716 118.964 5
6 1 9 11279.9 1292.76 1
6 1 9 12963.1 1288.57 6
6 1 9 14192.1 1158.2 5
6 1 10 16827.1 1689.21 1
6 1 10 19897.6 1696.72 6
6 1 11 4691.57 981.479 1
6 1 11 3646.22 759.374 6
6 1 12 6118.71 1156.11 1
6 1 12 5325.25 1006.25 6
6 2 -7 221.979 289.489 3
6 2 -6 14954.3 1686.98 4
6 2 -6 17180.8 1901.44 3
6 2 -5 34092.3 2465.54 4
6 2 -5 35102.6 2556.81 3
6 2 -4 3076.97 741.739 3
6 2 -4 2965.78 527.369 5
6 2 -3 551.945 369.694 3
6 2 -3 767.514 277.194 5
6 2 -2 24997 1516.33 5
6 2 -2 23079.8 1737.46 3
6 2 -1 20855.3 1399.38 5
6 2 -1 23472.4 1668.89 3
6 2 0 6577.49 772.467 5
6 2 0 6674.95 846.242 3
6 2 1 50600.7 2119.2 5
6 2 1 51669.9 2191.84 3
6 2 2 17037.6 1213.21 3
6 2 2 15977.8 1191.05 5
6 2 3 4951.16 639.596 3
6 2 3 4225.54 630.001 5
6 2 4 630.181 251.493 3
6 2 4 611.825 211.184 6
6 2 4 693.716 255.061 5
6 2 5 38968.4 1586.25 1
6 2 5 38514.5 1803.45 3
6 2 5 40052.9 1682.46 6
6 2 5 39310.9 1893.06 5
6 2 6 28021.5 1492.67 1
6 2 6 27769.8 1576.94 3
6 2 6 28448.1 1527.88 6
6 2 6 29067.5 1639.02 5
6 2 7 1721.58 437.389 3
6 2 7 1699.7 393.727 1
6 2 7 2109.8 470.95 6
6 2 7 2601.88 514.253 5
6 2 8 10298.2 1064.43 3
6 2 8 10131.3 1086.77 1
6 2 8 10571.4 1074.6 6
6 2 8 9795.38 976.415 5
6 2 9 39924.8 2292.43 1
6 2 9 35459.4 2071.87 6
6 2 9 38785.9 1929.99 5
6 2 10 26348.5 1907.91 6
6 2 10 24367.8 1935.09 1
6 2 11 2121.97 605.22 6
6 2 11 1639.49 554.559 1
6 2 12 3585.66 816.926 6
6 2 12 3146.1 774.475 1
6 2 13 23790 2328.83 1
6 3 -6 20359.2 2158.75 3
6 3 -5 19516.6 1986.55 3
6 3 -4 49.3118 174.042 3
6 3 -3 1061.68 421.048 3
6 3 -3 1238.65 359.64 5
6 3 -2 34090.3 1803.64 5
6 3 -2 37679.4 2359.6 3
6 3 -1 13142.2 1117.77 5
6 3 -1 10669.9 1204.53 3
6 3 0 2443.82 539.447 3
6 3 0 1728.53 446.154 5
6 3 1 21139.4 1514.88 3
6 3 2 19746.8 1416.85 3
6 3 3 3828.17 617.474 3
6 3 4 6962.98 837.759 3
6 3 4 7162.54 626.811 6
6 3 5 61340.5 2487.3 3
6 3 5 58637.1 1959.12 6
6 3 6 70329.4 2734.7 3
6 3 6 66560.8 2266.26 6
6 3 7 6682.93 882.743 3
6 3 7 6889.56 793.057 6
6 3 7 4754.46 682.962 5
6 3 8 12398.9 1263.59 3
6 3 8 13866.9 1204.66 6
6 3 8 12805.6 1116.59 5
6 3 9 67499.2 3085.85 3
6 3 9 64964 2769.62 6
6 3 9 68034.9 2587.43 5
6 3 10 41149.5 2520.77 3
6 3 10 46102.6 2476.95 6
6 3 11 280.456 212.16 6
6 3 12 26058.1 2102.6 6
6 4 -5 16442.6 1941.94 3
6 4 -4 -575.981 382.162 3
6 4 -3 27381.2 1689.4 5
6 4 -3 25220.3 2155.43 3
6 4 -2 51623.4 2922.72 3
6 4 -1 28890.9 2076.55 3
6 4 0 -291.701 265.404 3
6 4 1 54507.8 2609.7 3
6 4 2 107923 3558.55 3
6 4 3 30357.5 1855.64 3
6 4 4 5310.31 796.797 3
6 4 4 5628.79 499.7 6
6 4 5 75957.4 2973.45 3
6 4 5 78314.7 2121.92 6
6 4 6 73662.8 3000.15 3
6 4 6 75941.3 2349 6
6 4 7 26915.2 1870.85 3
6 4 7 26337 1505.54 6
6 4 8 8713.6 1118.6 3
6 4 8 9619.48 989.236 6
6 4 9 96272.8 3873.43 3
6 4 9 91182.9 3238.89 6
6 4 10 41616 2683.8 3
6 4 10 42589.9 2360.6 6
6 4 11 4040.6 912.453 3
6 4 11 3880.76 767.675 6
6 4 12 14968 1610.24 6
6 5 -5 13289.7 1794.75 3
6 5 -4 3024.18 808.945 3
6 5 -3 22681.3 2146.5 3
6 5 -2 72038.9 3647.37 3
6 5 -1 38834.2 2568.22 3
6 5 0 -213.288 291.306 3
6 5 1 53950 2779.3 3
6 5 2 94196.5 3563.55 3
6 5 3 43780.9 2387.71 3
6 5 4 867.088 361.793 3
6 5 5 42445.2 2378.3 3
6 5 6 110643 3931.38 3
6 5 6 113808 2771.57 6
6 5 7 13334.7 1401.63 3
6 5 7 13566.1 1058.32 6
6 5 8 7447.2 1086.87 3
6 5 8 6518.58 820.19 6
6 5 9 56868.5 3123.21 3
6 5 9 48914 2357.71 6
6 5 10 14863.2 1690.41 3
6 5 11 10297 1476.09 3
6 5 11 8334.47 1119.17 6
6 5 12 7950.42 1149.72 6
6 5 12 8440.88 1399.65 3
6 5 13 26471.6 2550.79 3
6 6 -4 4646.53 1125.19 3
6 6 -3 8775.65 1421.27 3
6 6 -2 56986.2 3424.85 3
6 6 -1 25712.5 2206.85 3
6 6 0 -66.2513 224.169 3
6 6 1 2272.58 595.9 3
6 6 3 9365.47 1183.57 3
6 6 4 1805.94 573.842 3
6 6 5 18595.9 1672.96 3
6 6 6 31590.7 2223.75 3
6 6 7 1510.49 495.183 3
6 6 8 3063.45 769.063 3
6 6 9 16177 1742.43 3
6 6 10 4713.95 997.782 3
6 6 11 -123.79 177.789 3
6 6 12 7913.76 1356.21 3
6 6 13 8002.6 1440.77 3
6 7 -2 17899.9 2039.61 3
6 7 -1 2841.38 799.877 3
6 7 0 3037.2 778.201 3
6 7 1 21247.6 1980.24 3
6 7 2 22095 1979.29 3
6 7 3 898.588 471.121 3
6 7 4 15135 1594.33 3
6 7 5 26541.9 2135.99 3
6 7 7 1165.13 511.871 3
6 7 8 27408.6 2315.17 3
6 7 9 33992 2648.06 3
6 7 10 2262.44 723.505 3
6 7 11 1321.28 665.48 3
6 7 12 16642.5 2127.52 3
6 8 -1 -65.0123 309.321 3
6 8 0 15522.6 1889.28 3
6 8 1 27618.7 2398.84 3
6 8 2 7948.51 1260.42 3
6 8 3 1410.88 530.2 3
6 8 4 19900.5 1941.09 3
6 8 5 64074.7 3489.04 3
6 8 7 7720.42 1289.24 3
6 8 8 39335.3 2902.57 3
6 8 9 50974.8 3383.25 3
6 8 10 19412.3 2185.35 3
6 8 11 7027.53 1353.44 3
6 9 1 27349.1 2529.07 3
6 9 2 37382.3 2907.95 3
6 9 3 1514.64 593.41 3
6 9 4 10815.8 1544.44 3
6 9 5 40875.1 2973.88 3
6 9 6 32949.4 2719.15 3
6 9 7 -554.429 357.977 3
6 9 8 15882.4 1945.12 3
6 9 9 39463 3127.01 3
6 9 10 36396.6 3094.29 3
6 10 5 32236 2811.93 3
6 10 6 31232.6 2789.44 3
6 10 7 -87.662 217.074 3
7 -7 -3 4906.65 1045.65 4
7 -6 -4 2195.25 696.628 4
7 -6 -4 3100.08 838.721 2
7 -6 -3 4319.21 938.378 4
7 -6 -3 3298.9 894.521 2
7 -6 -2 26689.3 2283.48 4
7 -6 -2 23950.7 2284.47 2
7 -6 -1 25305.8 2126.38 4
7 -6 -1 24280.8 2259.87 2
7 -6 0 3905.86 894.248 2
7 -6 1 13013.2 1655.55 2
7 -6 2 44250.4 3036.69 2
7 -6 3 11153.6 1533.99 2
7 -6 4 3045.71 795.494 2
7 -6 5 31482.5 2555.94 2
7 -6 6 33940.9 2641.51 2
7 -5 -5 40821.2 3108.47 4
7 -5 -4 200.604 341.684 4
7 -5 -4 1060.41 451.862 2
7 -5 -3 4497.98 955.881 4
7 -5 -3 5992.1 1090.74 2
7 -5 -2 44992.6 2919.72 4
7 -5 -2 42169.9 2847.66 2
7 -5 -1 44302.4 2787.44 4
7 -5 -1 46560.2 2974.89 2
7 -5 0 193.193 235.894 4
7 -5 0 104.196 219.926 2
7 -5 1 11300.4 1461.9 2
7 -5 2 40536 2769.47 2
7 -5 3 23039.8 2098.59 2
7 -5 4 141.68 245.621 2
7 -5 5 21376.7 2026.73 2
7 -4 -5 23227.3 2318.72 4
7 -4 -4 397.14 386.957 4
7 -4 -3 8536.6 1292.12 4
7 -4 -3 9015.24 1182.96 5
7 -4 -2 35314.2 2545.54 4
7 -4 -2 32783.5 2427.36 2
7 -4 -2 41055.8 2497.68 5
7 -4 -1 26997.1 2152.03 4
7 -4 -1 27102.8 2198.26 2
7 -4 -1 28865.6 2093.81 5
7 -4 0 -32.6741 253.048 5
7 -4 0 266.832 272.875 4
7 -4 0 902.332 485.341 2
7 -4 1 26324.5 1991.91 4
7 -4 1 27128.6 2180.39 2
7 -4 1 25871.3 1970.61 5
7 -4 2 12857.6 1507.39 2
7 -4 2 10513.2 1263.74 5
7 -4 3 24286.8 2063.55 2
7 -4 3 23750.6 1902.94 5
7 -4 4 -232.421 264.812 5
7 -4 4 580.68 357.691 2
7 -4 5 16111.8 1586.89 5
7 -4 6 9832.11 1533.73 1
7 -4 7 3683.59 957.412 1
7 -4 8 2912.76 853.512 1
7 -3 -6 9852.53 1580.36 4
7 -3 -5 8830.92 1420.83 4
7 -3 -5 10709.4 1236.14 5
7 -3 -4 101.417 259.201 5
7 -3 -4 575.623 392.909 4
7 -3 -3 13167.3 1583.57 4
7 -3 -3 12728.7 1339.75 5
7 -3 -2 16234.6 1711.27 4
7 -3 -2 15273.4 1447.15 5
7 -3 -1 6382.27 1048.68 4
7 -3 -1 7874.15 1039.49 5
7 -3 0 3013.24 652.699 5
7 -3 0 3203.06 739.904 4
7 -3 1 7450.71 1003.02 5
7 -3 2 24138.6 1797.36 5
7 -3 3 4522.66 793.809 5
7 -3 4 12340.8 1305.92 5
7 -3 5 22606.5 1785.55 5
7 -3 6 13308.5 1626.24 1
7 -3 6 12725.6 1365.14 5
7 -3 7 59.5345 173.327 5
7 -3 7 -243.924 395.425 1
7 -3 8 20202.8 2147.47 1
7 -3 9 12208.1 1750.94 1
7 -2 -6 9306.99 1480.59 4
7 -2 -5 10301.8 1510.63 4
7 -2 -4 1787.16 488.374 5
7 -2 -4 1369.99 553.686 4
7 -2 -3 17612.3 1820.29 4
7 -2 -3 16962 1480.64 5
7 -2 -2 26414.7 2155.57 4
7 -2 -2 23884.8 1756.83 5
7 -2 -1 5770.86 991.046 4
7 -2 -1 4226.45 735.102 5
7 -2 0 2199.5 595.964 4
7 -2 0 1936.29 545.711 5
7 -2 1 62153.3 2802.21 5
7 -2 2 41443.3 2309.85 5
7 -2 3 4123.33 735.608 5
7 -2 4 28129.4 1909.49 5
7 -2 5 43834.2 2385.61 5
7 -2 6 65833.2 3394.68 1
7 -2 6 62706.7 2853.37 5
7 -2 7 360.47 212.94 5
7 -2 7 1071.61 479.412 1
7 -2 8 45088.6 3010.49 1
7 -2 8 39549.7 2283.76 5
7 -2 9 41518.7 2992.75 1
7 -2 10 16506 2000.48 1
7 -1 -6 16550.2 1955.54 4
7 -1 -5 4372.57 974.138 4
7 -1 -4 3934.39 694.787 5
7 -1 -4 4435.3 984.009 4
7 -1 -3 63504.1 3444.05 4
7 -1 -3 56286.2 2633.35 5
7 -1 -2 30081.2 2293.08 4
7 -1 -2 34516.6 2055.79 5
7 -1 -1 10357.9 1317.5 4
7 -1 -1 9518.73 1084.57 5
7 -1 0 5601.16 962.304 4
7 -1 0 5685.36 825.502 5
7 -1 1 93377 3331.52 5
7 -1 2 56187.3 2584.25 5
7 -1 3 9264.16 1060.64 5
7 -1 4 24940.7 1740.01 5
7 -1 5 106868 3644.66 5
7 -1 6 65145.6 3143.48 1
7 -1 6 65142.3 2860.89 5
7 -1 7 657.65 403.181 1
7 -1 7 466.894 333.501 5
7 -1 8 32500.4 2392.78 1
7 -1 8 34196.8 2210.99 6
7 -1 8 38311.8 2191.75 5
7 -1 9 46894.8 3033.72 1
7 -1 9 51603.3 2831.96 6
7 -1 10 21140.7 2126.26 1
7 -1 10 21644.8 1908.98 6
7 -1 11 4664.92 1065.78 1
7 0 -6 30620.5 2649.38 4
7 0 -5 26782 2389.27 4
7 0 -4 1295 519.293 4
7 0 -4 1786.33 541.366 3
7 0 -4 1418.65 442.553 5
7 0 -3 38580.2 2683.15 4
7 0 -3 40858.1 2202.36 5
7 0 -3 41114.6 2404.17 3
7 0 -2 42031.2 2711.72 4
7 0 -2 36333.1 2051.45 5
7 0 -2 37119.7 2138.95 3
7 0 -1 21427.1 1887.46 4
7 0 -1 24668.7 1675.67 5
7 0 -1 24998.6 1622.54 3
7 0 0 385.749 201.617 3
7 0 0 511.232 288.553 5
7 0 1 41936.4 2163.98 5
7 0 2 61831.7 2619.73 5
7 0 3 4228.49 695.161 5
7 0 4 18671.4 1452.91 5
7 0 5 27950.4 1789.69 5
7 0 6 24273.1 1778.19 1
7 0 6 23265.8 1654.18 5
7 0 7 797.443 374.908 1
7 0 7 733.794 294.994 6
7 0 7 201.277 212.823 5
7 0 8 15746.9 1560.85 1
7 0 8 15707.5 1440.89 6
7 0 8 16813.4 1440.93 5
7 0 9 22818.2 1995.27 1
7 0 9 21987.2 1777.06 6
7 0 10 9931.99 1372.3 1
7 0 10 9415.34 1223.46 6
7 0 11 3340.85 770.778 1
7 0 11 2895.48 731.281 6
7 0 12 8264.64 1395.08 1
7 1 -6 36956.3 2885.42 4
7 1 -6 31950.3 2641.18 3
7 1 -5 16301.6 1854.38 4
7 1 -5 16459.4 1802.61 3
7 1 -4 -15.9219 333.049 4
7 1 -4 573.66 336.597 3
7 1 -3 18058.8 1842.89 4
7 1 -3 20756.2 1532.87 5
7 1 -3 20304.6 1774.28 3
7 1 -2 42215.2 2174.66 5
7 1 -2 40642.1 2358.85 3
7 1 -1 21749.2 1556.26 5
7 1 -1 23762.2 1689.87 3
7 1 0 8722.56 988.879 5
7 1 0 10609.2 1064.64 3
7 1 1 23988 1496.76 3
7 1 1 25126 1673.04 5
7 1 2 15549.3 1136.2 3
7 1 2 16737.4 1360.63 5
7 1 3 3629.71 643.128 5
7 1 4 6824.87 880.822 5
7 1 5 20612.1 1533.13 5
7 1 6 9148.65 994.703 1
7 1 6 9539.49 983.294 6
7 1 6 9212.18 1021.78 5
7 1 7 1689.69 470.285 1
7 1 7 1909.09 492.281 5
7 1 8 12411.5 1287.27 1
7 1 8 12625.4 1243.01 6
7 1 8 13299.5 1247.87 5
7 1 9 14350.4 1479.79 1
7 1 9 15652.9 1447.39 6
7 1 9 17260.8 1420.29 5
7 1 10 88.3453 238.224 1
7 1 10 929.814 403.095 6
7 1 11 2299.03 642.984 6
7 2 -6 17528.8 2028.45 3
7 2 -5 1505.77 599.135 3
7 2 -4 2113.02 624.246 3
7 2 -3 26348.6 1719.88 5
7 2 -3 27621.4 2172.94 3
7 2 -2 14488.8 1287.24 5
7 2 -2 13688.4 1457.06 3
7 2 -1 281.765 231.509 3
7 2 -1 137.722 195.756 5
7 2 0 17123.6 1369.31 5
7 2 0 17440.5 1466.73 3
7 2 1 30036 1815.75 3
7 2 1 26960.5 1707.01 5
7 2 2 5783.74 768.449 3
7 2 2 6922.91 869.069 5
7 2 3 172.49 136.695 3
7 2 3 379.349 261.986 5
7 2 4 27765.9 1598.86 3
7 2 4 27591.5 1740.91 5
7 2 5 89089.7 3132.45 5
7 2 6 4369.26 642.748 6
7 2 6 4025.25 677.243 5
7 2 7 931.978 350.952 6
7 2 7 1503.38 443.479 5
7 2 8 41201.2 2184.75 6
7 2 8 43166.6 2236.38 5
7 2 9 46903.4 2459.19 6
7 2 9 46064.8 2315.1 5
7 2 10 105.628 189.704 6
7 2 11 17622.3 1702.2 6
7 2 12 47276.2 2916.55 6
7 3 -5 -184.303 294.121 3
7 3 -4 12460.5 1619.29 3
7 3 -3 20555.8 1537.26 5
7 3 -3 14545 1678.58 3
7 3 -2 24181.7 1661.74 5
7 3 -2 30605.4 2282.58 3
7 3 -1 77.7251 159.647 3
7 3 -1 -215.185 210.701 5
7 3 0 24184.2 1637.84 5
7 3 0 21010.8 1716.22 3
7 3 1 79935 3159.78 3
7 3 1 85440.4 3079.42 5
7 3 2 19124 1497.42 3
7 3 2 18969.4 1453.27 5
7 3 3 -200.209 202.054 3
7 3 3 619.891 286.489 5
7 3 4 50401.4 2358.99 3
7 3 4 51860.2 2401.94 5
7 3 5 76695.6 2936.58 3
7 3 5 77864.5 2333.18 6
7 3 5 77656 2955.2 5
7 3 6 16091 1367.99 3
7 3 6 17331.8 1190.83 6
7 3 6 19846.8 1506.85 5
7 3 7 2182.93 534.583 3
7 3 7 1932.79 440.077 6
7 3 7 2126.47 508.443 5
7 3 8 73607.5 2839.5 6
7 3 8 62689.6 2719.91 5
7 3 9 65875.8 2861.58 6
7 3 9 64121.5 2763.02 5
7 3 10 5408.07 884.5 6
7 3 11 16218.1 1626.41 6
7 3 12 35296.5 2493.35 6
7 4 -4 10217.5 1529.27 3
7 4 -3 35119.6 2697.73 3
7 4 -2 44356.9 2340.76 5
7 4 -2 42917.9 2854.63 3
7 4 -1 103.276 193.362 3
7 4 -1 402.589 239.743 5
7 4 0 40150.2 2203.98 5
7 4 0 36557.2 2394.8 3
7 4 1 71910.9 3210.37 3
7 4 2 51914.8 2640.58 3
7 4 3 75.4277 191.627 3
7 4 4 47979.9 2478.27 3
7 4 5 121164 3950.35 3
7 4 6 36971.2 2225.71 3
7 4 6 43414.5 1808.97 6
7 4 7 831.193 367.257 3
7 4 7 1678.53 418.818 6
7 4 7 1596.84 459.435 5
7 4 8 53276.7 2817.61 3
7 4 8 55686.9 2413.38 6
7 4 8 53754.8 2560.4 5
7 4 9 42111.1 2597.54 3
7 4 9 39221.2 2162.33 6
7 4 9 42310 2287.2 5
7 4 10 19770.5 1645.53 6
7 4 10 18818.4 1537.93 5
7 4 11 2574.64 641.875 6
7 4 12 27969.2 2181.06 6
7 5 -3 33764.6 2779.24 3
7 5 -2 24773.3 1775.77 5
7 5 -2 25351.4 2304.63 3
7 5 -1 171.872 227.236 3
7 5 0 1132.28 486.557 3
7 5 1 75173.2 3485.84 3
7 5 2 21260.1 1807.71 3
7 5 3 1343.69 505.887 3
7 5 4 29096.3 2037.98 3
7 5 5 37273.6 2352.61 3
7 5 6 5309.02 911.572 3
7 5 7 2371.6 648.276 3
7 5 8 31737.5 2310 3
7 5 8 33969.9 1833.52 6
7 5 9 21786.3 1987.2 3
7 5 9 23726.8 1640.29 6
7 5 10 173.984 248.65 3
7 5 10 -272.769 216.889 6
7 5 10 -264.638 223.103 5
7 5 11 5191.93 880.283 6
7 5 12 19781.7 1811.14 6
7 6 -2 15400.8 1895.6 3
7 6 -1 386.774 315.412 3
7 6 0 3902.44 860.016 3
7 6 1 27807.8 2261.9 3
7 6 2 1859.07 589.804 3
7 6 3 7329.3 1105.74 3
7 6 4 11631.8 1383.45 3
7 6 5 8709 1206.35 3
7 6 7 26674.8 2183.19 3
7 6 8 19268.3 1891.56 3
7 6 9 2662.25 750.11 3
7 6 10 3453.52 902.608 3
7 6 10 4975.84 821.245 6
7 6 11 12170.2 1676.17 3
7 6 11 12420.5 1345.59 6
7 6 12 19991.1 2270.16 3
7 6 12 23042.5 1943.64 6
7 7 -1 4008.46 990.133 3
7 7 0 22050.8 2224 3
7 7 1 7771.05 1275.26 3
7 7 2 2209.47 641.29 3
7 7 3 18854.3 1890.79 3
7 7 4 35265.5 2544.57 3
7 7 5 17138.8 1788.4 3
7 7 6 -27.6833 234.603 3
7 7 7 34208.1 2591.78 3
7 7 8 35579.8 2722.1 3
7 7 9 16207.9 1888.87 3
7 7 10 1355.12 558.523 3
7 7 11 41348.6 3197.91 3
7 7 12 41680.5 3311.68 3
7 8 1 30742.2 2696.95 3
7 8 2 2384.06 760.033 3
7 8 3 10933 1542.91 3
7 8 4 33034.9 2625.93 3
7 8 5 36876.6 2776.45 3
7 8 6 538.897 460.172 3
7 8 7 16160.2 1903.91 3
7 8 8 42730.6 3117.84 3
7 8 9 53283 3566.39 3
7 8 10 5504.56 1191.98 3
7 9 3 1458.78 580.964 3
7 9 4 22456.7 2287.7 3
7 9 5 58278.1 3709.34 3
7 9 7 4243.05 996.171 3
7 9 8 16306.7 2039.77 3
8 -6 -2 24806.5 2345.3 4
8 -5 -2 21967.8 2199.12 4
8 -5 -1 2345.76 689.5 4
8 -5 -1 2560.65 759.54 2
8 -5 0 21171.3 2031.15 4
8 -5 0 21841.9 2217.87 2
8 -5 1 4863.74 1044.37 2
8 -5 2 27471.7 2445.69 2
8 -5 3 934.056 527.21 2
8 -4 -3 7039.33 1130.09 5
8 -4 -3 6807.8 1270.56 4
8 -4 -2 7899.68 1193.49 5
8 -4 -2 8668.9 1384.69 4
8 -4 -1 25.5676 269.669 5
8 -4 -1 172.403 189.528 4
8 -4 0 11235.3 1476 4
8 -4 0 12795.6 1511.91 5
8 -4 1 10181.5 1336.84 5
8 -4 2 9278.3 1278.53 5
8 -4 3 2841.29 746.599 5
8 -4 4 19326.3 1877.5 5
8 -4 5 12948.7 1541.25 5
8 -3 -4 2630.02 663.538 5
8 -3 -4 1735.58 685.125 4
8 -3 -3 11185.7 1603.46 4
8 -3 -3 10540.7 1324.23 5
8 -3 -2 5430.3 944.255 5
8 -3 -2 5992.32 1126.71 4
8 -3 -1 40.6738 192.345 5
8 -3 -1 66.1775 186.319 4
8 -3 0 15259 1563.44 5
8 -3 1 20852.3 1817.73 5
8 -3 2 1297.39 503.339 5
8 -3 3 11334 1353.57 5
8 -3 4 22450.2 1907.18 5
8 -3 5 29620.9 2207.16 5
8 -3 6 952.553 446.478 5
8 -3 7 21058.9 1910.53 5
8 -3 8 41841.3 3219.79 1
8 -2 -4 21767.2 2275.39 4
8 -2 -4 19907.3 1737.55 5
8 -2 -3 29238.2 2584.42 4
8 -2 -3 27863.6 2050.26 5
8 -2 -2 13029.7 1664.35 4
8 -2 -2 13834.6 1456.53 5
8 -2 -1 64.0235 202.653 5
8 -2 -1 -49.5633 163.381 4
8 -2 0 35658.7 2316.49 5
8 -2 1 38116.7 2400.06 5
8 -2 2 18640 1705.09 5
8 -2 3 8775.64 1155.22 5
8 -2 4 50370 2773.94 5
8 -2 5 49780.6 2767.93 5
8 -2 6 6765.9 1032.25 5
8 -2 7 16939.1 1620.68 5
8 -2 8 44872.8 3154.66 1
8 -2 8 44974 2643.68 5
8 -2 9 11053.2 1629.89 1
8 -1 -4 29831.4 2652.67 4
8 -1 -3 34217.6 2771.18 4
8 -1 -3 33430.6 2212.05 5
8 -1 -2 17828.1 1933.15 4
8 -1 -2 17206 1615.1 5
8 -1 -1 -320.057 242.817 5
8 -1 0 29655.9 2078.78 5
8 -1 1 79293.5 3407.17 5
8 -1 2 8065.65 1091.24 5
8 -1 3 5927.9 952.69 5
8 -1 4 38435.5 2390.46 5
8 -1 5 26160.1 1970.13 5
8 -1 6 8788.64 1145.23 5
8 -1 7 12125.5 1506.12 1
8 -1 7 13086.8 1404.5 5
8 -1 8 27745.9 2319.34 1
8 -1 8 27777.4 2033.57 5
8 -1 9 13572.7 1703.47 1
8 -1 10 -105.845 328.235 1
8 0 -4 7267.35 1341.22 4
8 0 -3 45600.3 2551.56 5
8 0 -2 12298.1 1338.53 5
8 0 -1 -330.563 316.47 5
8 0 0 20146.9 1666.67 5
8 0 1 32032.9 2083.86 5
8 0 2 2351.37 579.823 5
8 0 3 107.449 206.555 5
8 0 4 12903.8 1331.39 5
8 0 5 18376.9 1602.28 5
8 0 6 -258.233 211.421 5
8 0 7 8657.93 1133.91 5
8 0 8 10504.5 1245.51 5
8 0 9 471.784 297.87 6
8 0 10 653.787 366.595 6
8 1 -5 269.257 302.318 3
8 1 -4 14071.3 1662.68 3
8 1 -3 12853.2 1323.67 5
8 1 -3 15049 1624.91 3
8 1 -2 1183.73 471.174 3
8 1 -2 1794.36 515.152 5
8 1 -1 5788.12 896.132 5
8 1 0 30512.3 2008.14 5
8 1 1 13495.3 1328.16 5
8 1 2 645.973 324.222 5
8 1 3 6985.78 977.147 5
8 1 4 70027.1 3037.2 5
8 1 5 601.419 308.385 5
8 1 6 20.88 58.5133 5
8 1 7 14459.3 1413.95 5
8 1 8 30716.2 2038.02 6
8 1 8 28335.9 1996.74 5
8 1 9 4982.76 880.653 6
8 1 9 5449.16 891.271 5
8 1 10 2808.07 676.161 6
8 2 -4 5412.1 1089.56 3
8 2 -3 9719.4 1359.76 3
8 2 -3 8679.9 1089.94 5
8 2 -2 56.9651 170.313 3
8 2 -2 92.3215 168.853 5
8 2 -1 6859.73 1061.38 3
8 2 -1 7094.39 979.395 5
8 2 0 53528.2 2726.14 3
8 2 0 59067.3 2808.04 5
8 2 1 7454.85 965.699 3
8 2 1 6130.17 916.709 5
8 2 2 474.631 273.488 5
8 2 3 28669.8 1935.2 5
8 2 4 79978 3237.76 5
8 2 5 14286 1378.89 5
8 2 6 1114.89 393.856 5
8 2 7 55691.1 2517.32 6
8 2 7 51945.6 2670.67 5
8 2 8 73450.7 3026.86 6
8 2 8 74688.2 3213.28 5
8 2 9 18694.8 1596.52 6
8 2 9 16186.7 1503.22 5
8 2 10 11908.8 1344.11 6
8 2 11 28910.5 2193.13 6
8 3 -4 9505.88 1491.53 3
8 3 -3 33437.3 2668.16 3
8 3 -2 3341.03 829.263 3
8 3 -2 2961.83 635.84 5
8 3 -1 12943.2 1345.13 5
8 3 -1 13395.7 1526.41 3
8 3 0 39078.2 2482.11 3
8 3 0 40040 2311.48 5
8 3 1 31502.7 2128.37 3
8 3 1 31335.5 2040.46 5
8 3 2 1667.83 498.779 3
8 3 2 2513.66 578.653 5
8 3 3 23176.2 1706.67 3
8 3 3 22413.4 1725.88 5
8 3 4 82156.2 3291.67 5
8 3 5 48278.4 2547.63 5
8 3 6 3832.61 737.59 5
8 3 7 27638.3 1682.18 6
8 3 7 28443.3 1979.93 5
8 3 8 57692.5 2566.2 6
8 3 8 60238.3 2896.84 5
8 3 9 22757.5 1711.08 6
8 3 9 21777.1 1752.84 5
8 3 10 2955.75 660.547 6
8 3 11 23186.3 1959.34 6
8 4 -3 25622.6 2456.01 3
8 4 -2 4771.44 1039.33 3
8 4 -2 4757.15 822.876 5
8 4 -1 1534.13 572.167 3
8 4 -1 2865.61 666.77 5
8 4 0 46097.2 2859.29 3
8 4 0 43900 2469.65 5
8 4 1 38506.2 2515.31 3
8 4 1 38046.9 2287.52 5
8 4 2 1310.26 494.282 3
8 4 2 676.275 370.968 5
8 4 3 18955.7 1665.64 3
8 4 3 20088.8 1651.72 5
8 4 4 46437 2564.26 3
8 4 4 45622.6 2503.2 5
8 4 5 15854.7 1503.63 3
8 4 5 12594.5 1325.01 5
8 4 6 273.139 274.518 3
8 4 6 60.3168 174.698 5
8 4 7 23314.8 1814.34 5
8 4 8 38255.2 2339.81 5
8 4 9 2767.82 597.351 6
8 4 9 2260.29 599.736 5
8 4 10 1283.23 446.818 6
8 4 10 2098.06 545.729 5
8 4 11 14992 1533.01 6
8 5 -2 2003.91 713.933 3
8 5 -1 1600.27 617.387 3
8 5 -1 1999.19 562.053 5
8 5 0 22730.2 2120.09 3
8 5 0 23323 1857.64 5
8 5 1 11021 1444.39 3
8 5 1 8800.34 1124.81 5
8 5 3 10745.5 1319.12 3
8 5 4 6306.47 1011.11 3
8 5 5 5992.43 997.403 3
8 5 6 11333.8 1378.06 3
8 5 7 23926.9 2012.13 3
8 5 7 17678.1 1613.94 5
8 5 8 9823.36 1320.31 3
8 5 8 7645.41 1082.04 5
8 5 9 6963.49 1017.98 5
8 5 10 4711.77 846.771 5
8 5 12 5502.08 987.488 6
8 6 -1 15730.7 1949.86 3
8 6 -1 13621.1 1459.11 5
8 6 0 6748.86 1212.76 3
8 6 0 6012.44 1003.64 5
8 6 1 19099.6 1995.93 3
8 6 2 7972.05 1236.77 3
8 6 3 23298.1 2081.28 3
8 6 4 10799 1404.21 3
8 6 5 2623.05 695.145 3
8 6 7 20974.6 2003.45 3
8 6 8 11011.8 1472.74 3
8 6 9 209.679 240.358 3
8 6 10 18701.7 1719.78 5
8 7 2 12895 1689.54 3
8 7 3 28875.8 2455.57 3
8 7 4 35691.1 2705.02 3
8 7 5 5652.33 1100.16 3
8 7 6 8635.28 1328.61 3
8 7 7 45806.1 3118.31 3
8 7 8 49762.6 3309.61 3
8 7 9 496.071 414.859 3
8 7 10 11252.3 1654.21 3
8 8 3 19786.3 2155.11 3
8 8 4 59502.5 3666.53 3
8 8 5 5199.62 1064.99 3
8 8 6 5425.06 1105.29 3
8 8 7 23024.4 2349.73 3
8 8 8 28841.2 2632.33 3
8 8 9 3603.72 949.522 3
9 -3 -1 13973.4 1625.33 5
9 -3 0 23133.2 2083.49 5
9 -3 1 16542.4 1766.01 5
9 -3 2 1008.04 408.244 5
9 -3 3 26634.3 2238.12 5
9 -3 4 23762.3 2129.26 5
9 -3 5 6262.04 1118.9 5
9 -3 6 5462.42 1045.46 5
9 -2 -3 14202 1572.25 5
9 -2 -2 118.597 164.264 5
9 -2 -1 13290.4 1532.36 5
9 -2 0 54761.7 3114.27 5
9 -2 1 18231.1 1814.88 5
9 -2 2 442.947 340.051 5
9 -2 3 34692 2478.26 5
9 -2 4 22808.8 2033.42 5
9 -2 5 24539.5 2114.77 5
9 -2 6 3955.29 847.778 5
9 -2 7 25538.6 2158.33 5
9 -2 8 9499.78 1329.38 5
9 -1 -3 5705.31 1004.14 5
9 -1 -2 -90.3974 232.19 5
9 -1 -1 10276.2 1338.56 5
9 -1 0 39327.4 2609.53 5
9 -1 1 2454.7 695.928 5
9 -1 2 779.432 415.405 5
9 -1 3 15370.2 1632.29 5
9 -1 4 25104.7 2085.63 5
9 -1 5 2987.01 764.008 5
9 -1 6 6178.25 1073.21 5
9 -1 7 12811.7 1502.02 5
9 -1 8 3547.16 808.856 5
9 0 -3 1684.58 607.488 5
9 0 -2 -124.812 243.7 5
9 0 -1 10446.5 1333.73 5
9 0 0 11679.6 1401.33 5
9 0 1 1737.38 529.176 5
9 0 2 3729.52 798.794 5
9 0 3 24934.8 2032.06 5
9 0 4 4381.72 868.878 5
9 0 5 -71.5029 216.369 5
9 0 6 6295.79 1072.6 5
9 0 7 17270.5 1748.37 5
9 0 8 5045.3 938.244 5
9 1 -2 1649.68 520.885 5
9 1 -1 30544.7 2221.13 5
9 1 0 7042.4 1077.93 5
9 1 1 281.112 214.397 5
9 1 2 9187.68 1205.06 5
9 1 3 42346.9 2572.64 5
9 1 4 17484.7 1660.46 5
9 1 5 395.379 316.769 5
9 1 6 25956.9 2049.27 5
9 1 7 52218.9 2914.81 5
9 1 8 22848.9 1943.74 5
9 1 9 6246.18 1033.12 5
9 2 -2 2010.7 564.293 5
9 2 -1 24115.4 1958.74 5
9 2 0 18231.8 1694.45 5
9 2 1 1620.01 528.501 5
9 2 2 5991.48 982.967 5
9 2 3 41710.9 2554.21 5
9 2 4 51506.9 2839.27 5
9 2 5 5230.43 914.488 5
9 2 6 12294 1414.21 5
9 2 7 56096.4 3007.06 5
9 2 8 27622.6 2126.01 5
9 2 9 3077.45 689.854 5
9 2 10 26391.7 2069.01 6
9 3 -2 1729.74 641.441 3
9 3 -2 1293.33 509.158 5
9 3 -1 23131.6 1935.12 5
9 3 0 44145.8 2670.39 5
9 3 1 5928.36 994.975 5
9 3 2 3722.93 782.193 5
9 3 3 39187.1 2490.06 5
9 3 4 27006.4 2054.42 5
9 3 5 1483.81 501.644 5
9 3 6 6741.73 1062.79 5
9 3 7 34856.4 2382.36 5
9 3 8 8452.99 1197.85 5
9 3 9 338.503 296.833 5
9 3 10 12174.3 1366.21 6
9 3 10 12168 1434.85 5
9 4 -1 20741.3 2110.1 3
9 4 -1 22380.8 1920.44 5
9 4 0 15212.3 1739.55 3
9 4 0 20609.1 1840.88 5
9 4 1 1591.98 585.599 3
9 4 1 1259.64 486.375 5
9 4 2 9723.51 1259.13 5
9 4 3 17402.2 1672.73 5
9 4 4 14898 1548.44 5
9 4 5 624.094 345.964 5
9 4 6 12246.4 1424.36 5
9 4 7 18457.6 1737.37 5
9 4 8 137.546 152.474 5
9 4 9 1728.76 555.801 5
9 4 10 10478.8 1346.16 5
9 5 -1 2802.93 704.118 5
9 5 0 19129.2 2055.94 3
9 5 0 15452.3 1615.47 5
9 5 1 900.53 435.422 3
9 5 1 2591.11 646.734 5
9 5 2 15801.1 1740.97 3
9 5 2 16505.5 1679.22 5
9 5 3 9159.43 1291.94 3
9 5 3 12250.6 1443.6 5
9 5 4 2447.07 658.897 3
9 5 4 3101.91 732.861 5
9 5 5 8369.96 1192.83 5
9 5 6 17289.2 1704.04 5
9 5 7 16194.1 1667.89 5
9 5 8 35.15 215.642 5
9 5 9 13881.6 1559.59 5
9 5 10 24136.2 2033.31 5
9 6 2 25755.5 2372.91 3
9 6 2 26377.5 2163.84 5
9 6 3 21242.3 2099.25 3
9 6 3 23618.2 2051.85 5
9 6 4 6388.14 1147.97 3
9 6 4 5954.88 1054.8 5
9 6 5 1892.83 682.979 3
9 6 5 1912.5 583.493 5
9 6 6 56109.9 3120.27 5
9 6 7 36385.5 2535.54 5
9 6 8 2468.62 638.01 5
9 6 9 8828.03 1258.86 5
9 7 3 36310.8 2877.25 3
9 7 4 6863.71 1257.54 3
9 7 5 3435.97 904.913 3
9 7 7 29746.1 2591.28 3
10 1 2 21537.6 2018.22 5
10 1 3 54108.2 3169.86 5
10 1 4 245.463 244.773 5
10 1 5 4360.33 930.574 5
10 1 6 32649.8 2483.5 5
10 2 2 22948.4 2059.96 5
10 2 3 37727.3 2624.62 5
10 2 4 756.181 399.218 5
10 2 5 2461.06 679.586 5
10 2 6 30177.1 2370.01 5
10 2 7 19415.3 1918.1 5
10 3 3 21720.1 2001.56 5
10 3 4 1717.06 607.84 5
10 3 5 9264.87 1323.02 5
10 3 6 11436.9 1483.97 5
