#------------------------------------------------------------------------------
#$Date: 2019-11-24 06:51:59 +0200 (Sun, 24 Nov 2019) $
#$Revision: 237013 $
#$URL: file:///home/coder/svn-repositories/cod/cif/4/08/78/4087807.cif $
#------------------------------------------------------------------------------
#
# This file is available in the Crystallography Open Database (COD),
# http://www.crystallography.net/
#
# All data on this site have been placed in the public domain by the
# contributors.
#
data_4087807
loop_
_publ_author_name
'Milani, Jessica'
'Pridmore, Natalie E.'
'Whitwood, Adrian C.'
'Fairlamb, Ian J. S.'
'Perutz, Robin N.'
_publ_section_title
;
 The Role of Fluorine Substituents in the Regioselectivity of
 Intramolecular C--H Bond Functionalization of Benzylamines at
 Palladium(II)
;
_journal_issue                   17
_journal_name_full               Organometallics
_journal_page_first              4376
_journal_paper_doi               10.1021/acs.organomet.5b00608
_journal_volume                  34
_journal_year                    2015
_chemical_formula_moiety         '2(C9 H12 F2 N), Cl4 Pd'
_chemical_formula_sum            'C18 H24 Cl4 F4 N2 Pd'
_chemical_formula_weight         592.59
_space_group_crystal_system      triclinic
_space_group_IT_number           2
_space_group_name_Hall           '-P 1'
_space_group_name_H-M_alt        'P -1'
_atom_sites_solution_hydrogens   mixed
_atom_sites_solution_primary     iterative
_audit_creation_date             2014-09-19
_audit_creation_method
;
Olex2 1.2
(compiled 2014.07.22 svn.r2960 for OlexSys, GUI svn.r4862)
;
_cell_angle_alpha                88.359(7)
_cell_angle_beta                 83.544(9)
_cell_angle_gamma                62.039(10)
_cell_formula_units_Z            1
_cell_length_a                   7.6283(8)
_cell_length_b                   8.0141(6)
_cell_length_c                   10.8354(10)
_cell_measurement_reflns_used    2093
_cell_measurement_temperature    110.05(10)
_cell_measurement_theta_max      31.4600
_cell_measurement_theta_min      3.3600
_cell_volume                     581.16(11)
_computing_cell_refinement
;
CrysAlisPro, Agilent Technologies,
Version 1.171.37.33 (release 27-03-2014 CrysAlis171 .NET)
(compiled Mar 27 2014,17:12:48)
;
_computing_data_collection
;
CrysAlisPro, Agilent Technologies,
Version 1.171.37.33 (release 27-03-2014 CrysAlis171 .NET)
(compiled Mar 27 2014,17:12:48)
;
_computing_data_reduction
;
CrysAlisPro, Agilent Technologies,
Version 1.171.37.33 (release 27-03-2014 CrysAlis171 .NET)
(compiled Mar 27 2014,17:12:48)
;
_computing_molecular_graphics    'Olex2 (Dolomanov et al., 2009)'
_computing_publication_material  'Olex2 (Dolomanov et al., 2009)'
_computing_structure_refinement  'ShelXL (Sheldrick, 2008)'
_computing_structure_solution
;
Superflip (Palatinus & Chapuis, 2007;Palatinus & van der Lee, 2008;
Palatinus et al., 2012)
;
_diffrn_ambient_environment      N~2~
_diffrn_ambient_temperature      110.05(10)
_diffrn_detector                 'CCD plate'
_diffrn_detector_area_resol_mean 16.1450
_diffrn_detector_type            Eos
_diffrn_measured_fraction_theta_full 0.999
_diffrn_measured_fraction_theta_max 0.890
_diffrn_measurement_details
;
#__ type_ start__ end____ width___ exp.time_
  1 omega  -37.00   39.00   1.0000    7.5000
omega____ theta____ kappa____ phi______ frames
    -       26.4802  -57.0000    0.0000 76

#__ type_ start__ end____ width___ exp.time_
  2 omega   49.00   76.00   1.0000    7.5000
omega____ theta____ kappa____ phi______ frames
    -       26.4802 -114.0000   75.0000 27

#__ type_ start__ end____ width___ exp.time_
  3 omega   22.00   66.00   1.0000    7.5000
omega____ theta____ kappa____ phi______ frames
    -       26.4802  -99.0000  120.0000 44

#__ type_ start__ end____ width___ exp.time_
  4 omega   -9.00   68.00   1.0000    7.5000
omega____ theta____ kappa____ phi______ frames
    -       26.4802  -99.0000  -60.0000 77

#__ type_ start__ end____ width___ exp.time_
  5 omega  -18.00   99.00   1.0000    7.5000
omega____ theta____ kappa____ phi______ frames
    -       26.4802   19.0000 -180.0000 117

#__ type_ start__ end____ width___ exp.time_
  6 omega    7.00   90.00   1.0000    7.5000
omega____ theta____ kappa____ phi______ frames
    -       26.4802   57.0000 -120.0000 83
;
_diffrn_measurement_device       'four-circle diffractometer'
_diffrn_measurement_device_type  'SuperNova, Single source at offset, Eos'
_diffrn_measurement_method       '\w scans'
_diffrn_orient_matrix_UB_11      0.0154072000
_diffrn_orient_matrix_UB_12      -0.0818544000
_diffrn_orient_matrix_UB_13      -0.0329273000
_diffrn_orient_matrix_UB_21      -0.0253561000
_diffrn_orient_matrix_UB_22      -0.0357813000
_diffrn_orient_matrix_UB_23      0.0559705000
_diffrn_orient_matrix_UB_31      -0.1016989000
_diffrn_orient_matrix_UB_32      0.0454732000
_diffrn_orient_matrix_UB_33      -0.0112442000
_diffrn_radiation_monochromator  mirror
_diffrn_radiation_probe          x-ray
_diffrn_radiation_type           MoK\a
_diffrn_radiation_wavelength     0.71073
_diffrn_reflns_av_R_equivalents  0.0339
_diffrn_reflns_av_unetI/netI     0.0587
_diffrn_reflns_Laue_measured_fraction_full 0.999
_diffrn_reflns_Laue_measured_fraction_max 0.890
_diffrn_reflns_limit_h_max       10
_diffrn_reflns_limit_h_min       -11
_diffrn_reflns_limit_k_max       10
_diffrn_reflns_limit_k_min       -11
_diffrn_reflns_limit_l_max       12
_diffrn_reflns_limit_l_min       -16
_diffrn_reflns_number            5930
_diffrn_reflns_point_group_measured_fraction_full 0.999
_diffrn_reflns_point_group_measured_fraction_max 0.890
_diffrn_reflns_theta_full        25.214
_diffrn_reflns_theta_max         32.119
_diffrn_reflns_theta_min         2.876
_diffrn_source                   'SuperNova (Mo) X-ray Source'
_exptl_absorpt_coefficient_mu    1.297
_exptl_absorpt_correction_T_max  0.954
_exptl_absorpt_correction_T_min  0.841
_exptl_absorpt_correction_type   analytical
_exptl_absorpt_process_details
;
CrysAlisPro, Agilent Technologies,
Version 1.171.37.33 (release 27-03-2014 CrysAlis171 .NET)
(compiled Mar 27 2014,17:12:48)
Analytical numeric absorption correction using a multifaceted crystal
			model based on expressions derived by R.C. Clark & J.S. Reid.
(Clark, R. C. & Reid, J. S. (1995). Acta Cryst. A51, 887-897)
Empirical absorption correction using spherical harmonics,
 implemented in SCALE3 ABSPACK scaling algorithm.
;
_exptl_crystal_colour            'clear orange'
_exptl_crystal_colour_lustre     clear
_exptl_crystal_colour_primary    orange
_exptl_crystal_density_diffrn    1.693
_exptl_crystal_description       plate
_exptl_crystal_F_000             296
_exptl_crystal_size_max          0.2161
_exptl_crystal_size_mid          0.1457
_exptl_crystal_size_min          0.0405
_refine_diff_density_max         1.653
_refine_diff_density_min         -1.231
_refine_diff_density_rms         0.132
_refine_ls_extinction_method     none
_refine_ls_goodness_of_fit_ref   1.086
_refine_ls_hydrogen_treatment    mixed
_refine_ls_matrix_type           full
_refine_ls_number_parameters     139
_refine_ls_number_reflns         3635
_refine_ls_number_restraints     0
_refine_ls_restrained_S_all      1.086
_refine_ls_R_factor_all          0.0461
_refine_ls_R_factor_gt           0.0386
_refine_ls_shift/su_max          0.000
_refine_ls_shift/su_mean         0.000
_refine_ls_structure_factor_coef Fsqd
_refine_ls_weighting_details
'w=1/[\s^2^(Fo^2^)+(0.0368P)^2^+0.0631P] where P=(Fo^2^+2Fc^2^)/3'
_refine_ls_weighting_scheme      calc
_refine_ls_wR_factor_gt          0.0884
_refine_ls_wR_factor_ref         0.0951
_reflns_Friedel_coverage         0.000
_reflns_number_gt                3217
_reflns_number_total             3635
_reflns_threshold_expression     'I > 2\s(I)'
_cod_data_source_file            om5b00608_si_002.cif
_cod_data_source_block           1dH+_ijsf1452a
_cod_database_code               4087807
_shelxl_version_number           2013-4
_chemical_oxdiff_formula         'C18 H24 Cl4 F4 N2 Pd'
_shelx_space_group_comment
;
The symmetry employed for this shelxl refinement is uniquely defined
by the following loop, which should always be used as a source of
symmetry information in preference to the above space-group names.
They are only intended as comments.
;
_reflns_odcompleteness_completeness 99.92
_reflns_odcompleteness_iscentric 1
_reflns_odcompleteness_theta     26.32
_olex2_refinement_description
;
1. Fixed Uiso
 At 1.2 times of:
  All C(H) groups, All C(H,H) groups
 At 1.5 times of:
  All C(H,H,H) groups
2.a Secondary CH2 refined with riding coordinates:
 C3(H3A,H3B)
2.b Aromatic/amide H refined with riding coordinates:
 C5(H5), C7(H7), C8(H8)
2.c Idealised Me refined as rotating group:
 C1(H1A,H1B,H1C), C2(H2A,H2B,H2C)
;
_shelx_res_file
;
TITL ijsf1452a in P1
CELL 0.71 7.628348 8.014095 10.835399 88.3586 83.5437 62.0394
ZERR 1 0.000819 0.000623 0.001045 0.0072 0.0085 0.0098
LATT 1

SFAC C H Cl F N Pd
UNIT 18 24 4 4 2 1

L.S. 8
PLAN  25
MORE -1
BOND $H
CONF
fmap 2 53
acta
REM <HKL>Z:/frames/ijsf1452a/struct/olex2_ijsf1452a/ijsf1452a.hkl</HKL>

WGHT    0.036800    0.063100
FVAR       8.07576
C1    1    0.724735    0.049738    0.088439    11.00000    0.02983    0.02498 =
         0.02088   -0.00338    0.00261   -0.00437
AFIX 137
H1A   2    0.739807    0.140627    0.034734    11.00000   -1.50000
H1B   2    0.701285   -0.035308    0.040521    11.00000   -1.50000
H1C   2    0.844248   -0.020382    0.127750    11.00000   -1.50000
AFIX   0
C2    1    0.514146    0.011774    0.263535    11.00000    0.02800    0.02260 =
         0.02618    0.00113   -0.00404   -0.01419
AFIX 137
H2A   2    0.625715   -0.059133    0.309555    11.00000   -1.50000
H2B   2    0.496692   -0.072879    0.211328    11.00000   -1.50000
H2C   2    0.395569    0.078409    0.320227    11.00000   -1.50000
AFIX   0
C3    1    0.589225    0.282802    0.260474    11.00000    0.02256    0.02174 =
         0.01815   -0.00048    0.00068   -0.01133
AFIX  23
H3A   2    0.698890    0.209296    0.308886    11.00000   -1.20000
H3B   2    0.629571    0.358026    0.204182    11.00000   -1.20000
AFIX   0
C4    1    0.410869    0.413001    0.346710    11.00000    0.01886    0.02012 =
         0.02064   -0.00261   -0.00249   -0.00939
C5    1    0.271543    0.587139    0.305511    11.00000    0.02438    0.02376 =
         0.02197   -0.00028   -0.00759   -0.00751
AFIX  43
H5    2    0.281519    0.619671    0.222901    11.00000   -1.20000
AFIX   0
C6    1    0.119974    0.708633    0.389880    11.00000    0.02087    0.02553 =
         0.03670   -0.00842   -0.00934   -0.00162
C7    1    0.095281    0.668577    0.513811    11.00000    0.02156    0.03484 =
         0.03559   -0.01716    0.00225   -0.01369
AFIX  43
H7    2   -0.010333    0.755222    0.567688    11.00000   -1.20000
AFIX   0
C8    1    0.231496    0.496640    0.555424    11.00000    0.03177    0.03869 =
         0.02112   -0.00868    0.00379   -0.02349
AFIX  43
H8    2    0.220247    0.464382    0.637993    11.00000   -1.20000
AFIX   0
C9    1    0.385062    0.373926    0.470662    11.00000    0.02579    0.02683 =
         0.01970   -0.00163   -0.00365   -0.01629
CL1   3    0.065991    0.288328    0.159574    11.00000    0.01897    0.02308 =
         0.01818    0.00404   -0.00199   -0.00746
CL2   3   -0.336366    0.598195    0.042145    11.00000    0.01655    0.02592 =
         0.02506    0.00685   -0.00260   -0.00900
F1    4    0.522231    0.206343    0.513087    11.00000    0.04151    0.02628 =
         0.02189    0.00554   -0.00550   -0.01469
F2    4   -0.014471    0.880061    0.349020    11.00000    0.03754    0.03461 =
         0.05093   -0.00969   -0.01537    0.00848
N1    5    0.552062    0.149608    0.185252    11.00000    0.02139    0.01910 =
         0.01562   -0.00033   -0.00431   -0.00622
H1    2    0.444963    0.210979    0.146787    11.00000    0.01790
PD1   6    0.000000    0.500000    0.000000    10.50000    0.01547    0.01629 =
         0.01381   -0.00116   -0.00167   -0.00669
HKLF 4

REM  ijsf1452a in P1
REM R1 =  0.0386 for    3217 Fo > 4sig(Fo)  and  0.0461 for all    3635 data
REM    139 parameters refined using      0 restraints

END

WGHT      0.0368      0.0631

REM Highest difference peak  1.653,  deepest hole -1.231,  1-sigma level  0.132
Q1    1   0.1142  0.4143 -0.0041  11.00000  0.05    1.65
Q2    1   0.0233  0.6224 -0.0031  11.00000  0.05    0.77
Q3    1  -0.0316  0.4472  0.0328  11.00000  0.05    0.73
Q4    1  -0.0411  0.3572  0.1835  11.00000  0.05    0.68
Q5    1  -0.2806  0.6749  0.0215  11.00000  0.05    0.67
Q6    1  -0.4554  0.6940  0.0457  11.00000  0.05    0.67
Q7    1   0.3237  0.4841  0.3435  11.00000  0.05    0.67
Q8    1   0.1792  0.2158  0.1668  11.00000  0.05    0.65
Q9    1   0.2106  0.6803  0.1926  11.00000  0.05    0.55
Q10   1   0.0946  0.3507  0.1281  11.00000  0.05    0.54
Q11   1   0.3075  0.2949  0.0758  11.00000  0.05    0.53
Q12   1  -0.2123  0.6842 -0.0392  11.00000  0.05    0.53
Q13   1  -0.1820  0.7111  0.0381  11.00000  0.05    0.53
Q14   1  -0.4010  0.6959 -0.0195  11.00000  0.05    0.53
Q15   1   0.0946  0.7594  0.3770  11.00000  0.05    0.52
Q16   1   0.0212  0.4229  0.1187  11.00000  0.05    0.52
Q17   1   0.3221  0.4446  0.5246  11.00000  0.05    0.51
Q18   1   0.5016  0.3581  0.3059  11.00000  0.05    0.51
Q19   1   0.2051  0.3642  0.0761  11.00000  0.05    0.49
Q20   1   0.1437  0.5559  0.5235  11.00000  0.05    0.48
Q21   1   0.1645  0.6618  0.3221  11.00000  0.05    0.47
Q22   1   0.5396  0.0654  0.2206  11.00000  0.05    0.47
Q23   1   0.2831  0.4805  0.4897  11.00000  0.05    0.45
Q24   1  -0.1199  0.4757  0.1363  11.00000  0.05    0.44
Q25   1  -0.0379  0.3855  0.1294  11.00000  0.05    0.43
;
_shelx_res_checksum              28142
_shelx_hkl_file
;
   0   0  -2 231770. 6586.02   5
   0   0   2 216143. 6582.08   5
   0   0  -3 41860.8 1676.80   5
   0   0  -4 152002. 4990.06   5
   0   0  -5 33038.9 1711.62   5
   0   0  -6 289371. 9273.43   5
   0   0  -7 23359.1 1626.04   5
   0   0  -8 22261.4 1708.26   5
   0   0  -9 677.158 333.812   5
   0   0 -10 35.3446 273.686   5
   0   0 -10-80.4244 346.343   4
   0   0 -11 17395.3 1777.52   4
   0   0 -11 16621.2 1749.53   5
   0   0 -12 25676.7 2323.10   4
   0   0 -12 25213.7 2311.72   5
   0   0 -13 7287.19 1287.57   5
   0   0 -13 7149.71 1284.56   4
   0   0 -14 1321.65 664.290   4
   0   0 -14 1899.31 810.394   5
   0   0 -15 3290.43 965.291   5
   0   0 -15 1582.06 705.021   4
   0   1 -16 294.754 464.975   5
   0   1 -15 633.581 557.402   5
   0   1 -15 154.756 401.030   4
   0   1 -14 63.4657 357.866   4
   0   1 -14 352.053 444.576   5
   0   1 -13 3268.60 1002.42   4
   0   1 -13 1598.24 612.206   5
   0   1 -12 974.764 564.246   4
   0   1 -12 1073.53 533.768   5
   0   1 -11 28165.9 2323.81   5
   0   1 -11 31546.5 2472.12   4
   0   1 -10 22603.6 1906.32   5
   0   1 -10 20192.6 1882.30   4
   0   1  -9 18380.2 1618.35   5
   0   1  -8 1613.58 454.540   5
   0   1  -7 51805.2 2532.18   5
   0   1  -6 203758. 6769.56   5
   0   1  -5 226473. 6551.13   5
   0  -1   5 191776. 5742.59   2
   0  -1   4 468335. 13516.3   6
   0   1  -4 449426. 13396.1   5
   0  -1   3 273205. 8174.31   6
   0   1  -3 270817. 8061.25   5
   0   1  -2 71251.4 2349.21   5
   0  -1   2 69314.5 2424.50   6
   0   1  -2 72669.7 2466.41   6
   0   1  -1 3081.24 289.050   6
   0  -1   1 2492.39 265.702   6
   0  -1   0 322670. 9352.94   5
   0   1   0 332914. 9337.61   6
   0   1   1 276508. 7967.67   3
   0  -1  -1 277957. 8145.46   5
   0  -1  -1 286087. 7989.19   3
   0   1   1 285093. 8147.03   5
   0  -1  -2 944824. 26610.6   5
   0  -1  -3 46374.1 1936.99   5
   0  -1  -4 6393.92 659.756   5
   0  -1  -5 19919.5 776.871   2
   0  -1  -5 20466.0 1334.60   5
   0  -1  -6 22510.8 1523.97   5
   0  -1  -7 87792.7 3831.70   5
   0  -1  -8 32009.0 1962.95   4
   0  -1  -8 29780.5 2063.11   5
   0  -1  -9 17688.8 1644.21   5
   0  -1  -9 17505.3 1497.61   4
   0  -1 -10 1153.47 438.667   4
   0  -1 -10 1212.23 580.945   5
   0  -1 -11 4357.04 826.239   4
   0  -1 -11 3055.02 789.422   5
   0  -1 -12 3667.71 877.288   5
   0  -1 -12 2661.93 672.905   4
   0  -1 -13 23379.7 2352.82   5
   0  -1 -13 27050.6 2372.96   4
   0  -1 -14 13689.9 1862.38   5
   0  -1 -15 9165.93 1639.00   5
   0   2 -15-1012.12 649.320   4
   0   2 -15 1439.94 688.367   5
   0   2 -14 7336.64 1388.49   5
   0   2 -14 6633.09 1355.41   4
   0   2 -13-703.831 502.551   5
   0   2 -13-43.3062 400.562   4
   0   2 -12 3623.75 888.595   4
   0   2 -12 3448.62 856.060   5
   0   2 -11 39353.6 2824.63   5
   0   2 -11 40543.4 2937.83   4
   0   2 -10 45329.8 2831.70   5
   0   2  -9 42924.5 2544.72   5
   0   2  -8 55121.5 2841.05   5
   0  -2   7 36764.1 2138.24   6
   0   2  -7 35782.9 2062.75   5
   0  -2   6 40070.8 2152.58   6
   0   2  -6 40889.4 2075.59   5
   0  -2   5 161086. 5653.95   6
   0   2  -5 166726. 5546.52   5
   0  -2   4 231693. 7298.27   6
   0   2  -4 224055. 6811.63   1
   0   2  -4 232570. 7192.69   5
   0   2  -3 452364. 12952.4   1
   0  -2   3 465339. 13455.9   6
   0  -2   2 294685. 8502.54   6
   0  -2   2 284537. 8033.03   1
   0   2  -2 268354. 8079.05   1
   0  -2   1 116056. 3675.44   1
   0  -2   1 123041. 3901.87   6
   0  -2   0 28886.2 1273.22   6
   0  -2  -1 188515. 5538.81   3
   0  -2  -1 179462. 5723.60   5
   0   2   1 181388. 5492.90   3
   0   2   2 12173.2 654.527   3
   0  -2  -2 13245.2 895.605   5
   0   2   3 326035. 9330.47   3
   0  -2  -3 331552. 9753.23   5
   0  -2  -3 313587. 9009.29   4
   0  -2  -4 13626.9 695.010   4
   0  -2  -4 13632.4 1029.27   5
   0  -2  -5-11.8371 83.5199   4
   0  -2  -6 15444.6 1274.60   5
   0  -2  -6 14704.0 973.514   4
   0  -2  -7 21356.3 1615.10   5
   0  -2  -7 20739.7 1311.11   4
   0  -2  -8 1284.56 327.052   4
   0  -2  -8 979.455 347.335   5
   0  -2  -9 159781. 6007.02   4
   0  -2  -9 172357. 6660.22   5
   0  -2 -10 5462.39 816.531   4
   0  -2 -10 4294.41 882.905   5
   0  -2 -11 7267.90 1013.28   4
   0  -2 -12-296.423 399.750   5
   0  -2 -13 7332.70 1330.39   5
   0  -2 -14 7847.62 1425.19   5
   0  -2 -15 24607.9 2635.57   5
   0   3 -14 24190.6 2532.69   5
   0   3 -14 24746.0 2634.35   4
   0   3 -13 1908.87 693.450   5
   0   3 -13 1930.71 729.502   4
   0   3 -12 4381.67 1033.82   4
   0   3 -12 3397.19 858.048   5
   0   3 -11 5290.65 1017.36   4
   0   3 -11 3004.66 743.928   5
   0   3 -10 52166.4 3109.93   5
   0   3  -9 95374.3 4396.78   5
   0  -3   8 121806. 5025.63   6
   0   3  -8 114646. 4855.93   5
   0   3  -7 61276.3 2964.96   5
   0  -3   7 60951.1 3097.70   6
   0  -3   6 94918.7 4050.19   6
   0   3  -6 104268. 4044.60   5
   0   3  -5 54933.6 2385.57   5
   0  -3   5 51403.1 2412.06   6
   0   3  -4 88697.1 3071.69   1
   0  -3   4 109570. 3819.06   6
   0  -3   3 74111.0 2458.96   1
   0  -3   3 74795.0 3020.73   6
   0  -3   2 188748. 5794.21   1
   0  -3   2 199716. 6321.55   6
   0  -3   1 96927.5 3306.54   6
   0  -3   1 82470.4 2999.90   1
   0  -3   0 10004.3 778.204   6
   0   3   1 4853.12 313.313   4
   0  -3  -1 5289.42 653.301   5
   0  -3  -1 5135.67 531.842   6
   0   3   2 22451.4 1132.67   3
   0  -3  -2 23419.7 1374.69   5
   0   3   3 77672.1 2838.51   3
   0  -3  -3 87377.2 3355.94   5
   0  -3  -4 11333.2 1049.25   5
   0   3   4 9954.03 712.858   3
   0   3   5 58015.3 2141.89   3
   0  -3  -5 58830.5 2703.44   5
   0  -3  -6 30014.8 1905.76   5
   0  -3  -6 24329.9 1127.45   4
   0  -3  -7 2.61824 108.625   4
   0  -3  -7 367.970 394.272   5
   0  -3  -8 4225.73 798.836   5
   0  -3  -8 3892.27 495.474   4
   0  -3  -9 40810.4 2644.63   5
   0  -3  -9 34199.8 1852.09   4
   0  -3 -10 20100.6 1906.01   5
   0  -3 -11 38022.2 2843.92   5
   0  -3 -12 9520.21 1451.64   5
   0  -3 -13 5436.00 1126.91   5
   0  -3 -14 4900.04 1161.81   5
   0   4 -14 22604.6 2567.16   4
   0   4 -13 38152.6 3246.30   4
   0   4 -12 18280.1 2094.63   4
   0   4 -12 13234.6 1661.73   5
   0   4 -11 15604.4 1828.60   4
   0   4 -11 14245.8 1659.17   5
   0  -4  10 6881.09 1120.08   6
   0   4 -10 4389.32 848.361   5
   0   4 -10 7977.04 1245.91   4
   0  -4   9 34669.2 2461.06   6
   0   4  -9 31694.0 2303.33   5
   0  -4   8 110086. 4850.92   6
   0   4  -8 101610. 4590.20   5
   0   4  -7 147309. 5781.33   5
   0  -4   7 154773. 5971.80   6
   0  -4   6 3075.40 629.448   6
   0   4  -6 3259.96 599.858   5
   0  -4   5 55896.5 2790.91   6
   0  -4   4 43078.6 2293.57   6
   0  -4   3 6142.50 496.752   1
   0  -4   3 7329.69 820.296   6
   0  -4   2 86080.4 3495.20   6
   0  -4   2 84703.8 3023.20   1
   0  -4   1 89477.0 3376.36   6
   0  -4   1 78895.5 3090.75   1
   0  -4   0 23465.6 1434.79   6
   0  -4  -1 3719.34 518.395   6
   0  -4  -1 3041.23 594.419   5
   0   4   1 4049.20 337.244   4
   0  -4  -2 342.474 194.715   6
   0  -4  -2 193.675 259.809   5
   0  -4  -3 32.3957 193.518   5
   0  -4  -4 23918.0 1712.93   5
   0   4   4 24510.9 1307.78   3
   0  -4  -5 8898.96 1057.35   5
   0   4   5 10146.0 801.739   3
   0   4   6 23711.8 1343.63   3
   0  -4  -6 28058.5 2019.27   5
   0  -4  -7 38251.4 2539.75   5
   0   4   7 37143.3 1829.26   3
   0   4   8 19021.0 1258.15   3
   0  -4  -8 19851.5 1832.32   5
   0  -4  -9 3269.01 808.325   5
   0  -4 -10 27947.0 2397.02   5
   0  -4 -11 33725.2 2805.90   5
   0  -4 -12 46253.9 3473.53   5
   0  -4 -13 12855.0 1829.34   5
   0   5 -13 31264.1 2978.41   4
   0   5 -12 26736.2 2611.45   4
   0  -5  11 63293.3 3939.06   6
   0   5 -11 55310.5 3648.85   5
   0   5 -11 65448.4 4094.13   4
   0   5 -10 8513.23 1331.49   4
   0   5 -10 8079.09 1228.61   5
   0  -5  10 8650.49 1330.83   6
   0  -5   9 10029.6 1350.76   6
   0   5  -9 9149.11 1305.54   4
   0   5  -9 9774.38 1333.99   5
   0  -5   8 19465.6 1772.66   6
   0   5  -8 16406.9 1585.41   5
   0   5  -8 16716.4 1707.64   4
   0   5  -7 85920.8 4070.70   5
   0  -5   7 86815.0 4154.88   6
   0   5  -6 38012.3 2341.35   5
   0  -5   6 33649.3 2280.60   6
   0  -5   5 85526.9 3893.92   6
   0  -5   4 4992.21 807.598   6
   0  -5   4 4231.94 402.399   1
   0  -5   3 1785.76 482.862   6
   0  -5   3 1619.71 281.029   1
   0  -5   2 343.804 311.193   6
   0  -5   2 154.053 126.165   1
   0   5  -1 13839.0 1012.04   4
   0  -5   1 12168.8 1103.93   6
   0  -5   1 11397.5 966.092   1
   0  -5   0 26044.0 1669.72   6
   0   5   0 25581.3 1342.16   4
   0  -5  -1 37459.5 2025.07   6
   0   5   1 32344.0 1377.24   4
   0  -5  -2 3236.58 555.008   6
   0  -5  -2 3363.75 656.952   5
   0  -5  -3 2886.35 693.828   5
   0  -5  -3 3967.04 616.846   6
   0  -5  -4 3305.45 700.903   5
   0  -5  -5 37724.4 2507.61   5
   0  -5  -6 32534.2 2333.87   5
   0   5   6 32647.5 1705.09   3
   0  -5  -7 29640.1 2325.83   5
   0  -5  -8 28378.4 2378.38   5
   0  -5  -9 17699.6 1900.37   5
   0  -5 -10 9726.95 1499.96   5
   0  -5 -11 9367.14 1523.61   5
   0  -5 -12 33235.3 3006.95   5
   0   6 -12 19396.6 2278.32   4
   0   6 -11 39126.2 3217.96   4
   0  -6  11 42307.6 3232.65   6
   0  -6  10 30072.2 2608.74   6
   0   6 -10 29000.8 2608.13   4
   0   6  -9 6520.03 1098.86   5
   0  -6   9 5786.49 1078.17   6
   0   6  -9 6489.02 1143.02   4
   0   6  -8 271.073 294.789   5
   0   6  -8-244.361 292.463   4
   0   6  -7 1354.98 543.789   5
   0  -6   7 850.886 457.807   6
   0   6  -7 141.927 298.437   4
   0   6  -6 9181.64 1194.92   4
   0  -6   6 10157.0 1251.12   6
   0  -6   5 21297.1 1794.12   6
   0   6  -5 24672.9 1919.84   4
   0  -6   4 46277.5 2736.94   6
   0   6  -4 49102.3 2734.86   4
   0  -6   3 1386.79 480.088   6
   0   6  -3 2098.11 488.326   4
   0  -6   3 1553.27 322.739   1
   0  -6   2 369.798 195.622   1
   0  -6   2 795.289 351.142   6
   0   6  -2 1093.87 339.871   4
   0  -6   1-277.482 349.807   6
   0   6  -1 66.7258 166.793   4
   0  -6   1 74.3017 132.349   1
   0   6   0 7164.25 698.310   4
   0  -6   0 7080.45 913.004   6
   0  -6   0 8104.65 945.112   1
   0  -6  -1 17444.8 1467.17   6
   0  -6  -2 81948.0 3709.97   6
   0  -6  -3 637.892 419.542   5
   0  -6  -3 354.996 256.481   6
   0  -6  -4 15489.9 1387.57   6
   0  -6  -4 13616.5 1638.09   5
   0  -6  -5 18505.9 1840.39   5
   0  -6  -6 16222.4 1770.93   5
   0  -6  -7 57133.6 3636.80   5
   0  -6  -8 64225.8 3991.83   5
   0  -6  -9 27054.8 2556.76   5
   0  -6 -10 15587.6 1969.35   5
   0  -6 -11 6936.21 1366.44   5
   0   7 -11 3555.38 931.635   4
   0  -7  11 4860.44 1137.08   6
   0   7 -10 19814.0 2246.68   4
   0  -7  10 22174.7 2324.58   6
   0   7  -9 24764.4 2415.27   4
   0  -7   9 25890.6 2398.35   6
   0  -7   8 3197.08 835.815   6
   0   7  -8 3324.09 802.129   4
   0   7  -7-83.4038 311.921   5
   0   7  -7-151.298 299.898   4
   0  -7   7-103.529 337.558   6
   0  -7   6-38.8233 322.711   6
   0   7  -6-317.445 334.705   4
   0  -7   5-1235.31 529.101   6
   0   7  -5-1228.93 484.278   4
   0  -7   4 12349.0 1402.95   6
   0   7  -4 11857.4 1317.12   4
   0  -7   3 3994.20 848.713   6
   0   7  -3 3944.28 712.452   4
   0  -7   2 39234.5 2561.91   6
   0   7  -2 38308.2 2266.01   4
   0  -7   1-47.4258 302.427   6
   0  -7   1 462.251 259.318   1
   0  -7   0-226.336 448.781   6
   0  -7   0 154.348 247.992   1
   0  -7  -1 8921.39 1112.18   6
   0  -7  -1 9475.84 1158.30   1
   0  -7  -2 85462.5 4086.94   6
   0  -7  -3 19933.7 1722.64   6
   0  -7  -4 70406.2 3653.00   6
   0  -7  -5 7710.09 1310.72   5
   0  -7  -5 7268.72 1056.01   6
   0  -7  -6 9695.21 1246.80   6
   0  -7  -6 12334.2 1732.34   5
   0  -7  -7 11439.8 1714.60   5
   0  -7  -7 8808.59 1215.48   6
   0  -7  -8 19096.5 2298.54   5
   0  -7  -9 35148.6 3141.47   5
   0  -7 -10 20567.7 2476.52   5
   0   8 -10-677.627 519.670   4
   0   8  -9 8881.41 1492.41   4
   0  -8   9 10724.2 1596.94   6
   0   8  -8 3100.94 892.082   4
   0  -8   8 4693.77 1006.58   6
   0   8  -7 5798.13 1147.45   4
   0  -8   7 6090.14 1138.53   6
   0  -8   6-664.591 463.803   6
   0   8  -6-695.806 433.738   4
   0  -8   5-1004.74 518.825   6
   0   8  -5 285.611 272.672   4
   0  -8   4 764.169 455.099   6
   0  -8   3 8873.92 1276.81   6
   0  -8   2 21377.4 1989.22   6
   0  -8   1 27696.1 2244.40   6
   0  -8   0 12184.5 1471.84   6
   0  -8  -1 832.525 421.980   6
   0  -8  -1 445.529 422.867   1
   0  -8  -2 4529.06 876.721   6
   0  -8  -2 4610.98 942.737   1
   0  -8  -3 32493.0 2445.86   6
   0  -8  -4 43406.8 2919.27   6
   0  -8  -5 34797.9 2599.40   6
   0  -8  -6 13047.9 1571.05   6
   0  -8  -7 10733.9 1712.81   5
   0  -8  -7 8861.17 1251.64   6
   0  -8  -8 5411.73 1058.42   6
   0  -8  -8 6802.90 1448.29   5
   0  -8  -9 9403.14 1366.11   6
   0  -9   6 4405.49 1038.90   6
   0  -9   5 538.129 363.258   6
   0  -9   4 1681.74 656.731   6
   0  -9   3 3291.23 909.506   6
   0  -9   2 9045.04 1371.80   6
   0  -9   1 24524.6 2269.83   6
   0  -9   0 35435.8 2727.07   6
   0  -9  -1 29093.4 2460.76   6
   0  -9  -2 12025.8 1527.68   6
   0  -9  -3 6577.86 1150.15   6
   0  -9  -4 8550.91 1458.03   1
   0  -9  -4 6655.44 1190.05   6
   0  -9  -5 31570.7 2643.11   6
   0  -9  -6 8788.17 1382.46   6
   0  -9  -7 15307.4 1823.62   6
   0 -10   1 3395.64 900.947   6
   0 -10   0 31737.7 2758.69   6
   0 -10  -1 12048.3 1692.02   6
   0 -10  -2 12314.3 1685.66   6
   1  -9  -4 2275.06 671.902   6
   1  -9  -3-125.963 478.442   6
   1  -9  -2 984.042 543.380   6
   1  -9  -1 9806.98 1458.15   6
   1  -9   0 12002.5 1659.58   6
   1  -9   1 29702.9 2640.55   6
   1  -9   2 18431.2 2064.02   6
   1  -9   3 3923.18 951.485   6
   1  -9   4 5941.94 1182.18   6
   1  -9   5 23169.4 2355.73   6
   1  -8  -8-1354.58 607.342   6
   1  -8  -7-1038.08 658.004   5
   1  -8  -7-1264.63 572.816   6
   1  -8  -6 8954.88 1371.15   6
   1  -8  -5 17739.6 1931.98   6
   1  -8  -4 7924.25 1275.98   6
   1  -8  -3 12140.9 1550.97   6
   1  -8  -2 9403.61 1358.21   6
   1  -8  -1 11567.8 1486.46   6
   1  -8   0 14712.5 1664.33   6
   1  -8   1 24572.6 2217.56   6
   1  -8   2 46073.1 3159.42   6
   1  -8   3 28268.6 2419.80   6
   1  -8   4 8302.87 1276.01   6
   1  -8   5 3808.80 855.915   6
   1  -8   6 21295.6 2154.64   6
  -1   8  -7 11308.6 1613.08   4
   1  -8   7 12952.0 1684.63   6
  -1   8  -8 28216.8 2687.43   4
   1  -8   8 26406.6 2519.36   6
  -1   8  -9 5898.46 1277.79   4
   1  -7  -9 18577.2 2338.57   5
   1  -7  -8 1710.33 754.208   5
   1  -7  -7 1052.21 620.243   5
   1  -7  -7 2765.74 734.380   6
   1  -7  -6 2566.41 858.235   5
   1  -7  -6 1580.05 640.385   6
   1  -7  -5 11035.4 1671.03   5
   1  -7  -5 11141.9 1386.32   6
   1  -7  -4 36294.9 2602.34   6
   1  -7  -4 36076.5 2986.03   5
   1  -7  -3 35869.8 2579.65   6
   1  -7  -2 14362.4 1546.70   6
   1  -7  -1 23696.2 2013.55   6
   1  -7   0 24819.0 2024.46   6
   1  -7   1 43468.9 2803.70   6
   1  -7   2 38569.2 2649.49   6
   1  -7   3 55610.3 3321.87   6
  -1   7  -4 38724.9 2612.57   4
   1  -7   4 37935.5 2684.46   6
  -1   7  -5 14306.9 1598.25   4
   1  -7   5 12718.1 1514.12   6
   1  -7   6 710.207 447.522   6
  -1   7  -6 1393.06 498.456   4
  -1   7  -7 1690.50 626.326   4
   1  -7   7 2405.58 697.921   6
   1  -7   8 14160.4 1706.84   6
  -1   7  -8 12927.0 1747.00   4
  -1   7  -9 3453.63 951.726   4
   1  -7   9 5934.90 1178.27   6
   1  -7  10 3722.52 970.541   6
  -1   7 -10 2889.96 877.796   4
   1  -7  11 2301.37 816.229   6
   1  -6 -11 219.669 424.256   5
   1  -6 -10 4349.37 1092.09   5
   1  -6  -9 15025.9 1915.96   5
   1  -6  -8 36578.3 2976.11   5
   1  -6  -7 8604.51 1441.23   5
   1  -6  -6 12378.3 1647.66   5
   1  -6  -5 14939.4 1747.61   5
   1  -6  -4 36215.3 2731.16   5
   1  -6  -4 33241.2 2314.92   6
   1  -6  -3 60951.2 3329.57   6
   1  -6  -3 68611.8 3777.45   5
   1  -6  -2 146693. 5877.39   6
   1  -6  -1 16227.1 1516.29   6
   1  -6   0 31994.2 2176.30   6
  -1   6  -1 23940.8 1522.79   4
   1  -6   1 21987.8 1747.70   6
   1  -6   1 18863.0 1415.16   1
  -1   6  -2 7821.37 927.627   4
   1  -6   2 9533.70 1146.21   6
  -1   6  -3 43991.1 2565.95   4
   1  -6   3 41985.2 2626.33   6
   1  -6   4 44033.4 2743.21   6
  -1   6  -4 43471.9 2686.33   4
  -1   6  -5 22725.1 1920.27   4
   1  -6   5 18823.7 1749.61   6
   1  -6   6 5781.34 966.126   6
  -1   6  -6 8128.15 1175.41   4
   1  -6   7 68.6318 287.639   6
  -1   6  -7 743.682 447.762   4
   1  -6   8-13.7141 312.788   6
  -1   6  -8 177.180 308.952   4
   1  -6   9 2438.97 746.990   6
  -1   6  -9 2817.20 850.683   4
  -1   6 -10 4939.56 1121.24   4
   1  -6  10 3745.85 936.200   6
  -1   6 -11 4459.27 1125.43   4
   1  -6  11 5033.99 1135.06   6
  -1   6 -12 1265.41 647.594   4
   1  -6  12 538.822 494.433   6
   1  -5 -12 6800.19 1366.46   5
   1  -5 -11 8414.45 1483.00   5
   1  -5 -10 4730.25 1077.84   5
   1  -5  -9 5023.01 1044.81   5
   1  -5  -8 55330.6 3568.06   5
  -1   5   7 39545.2 2192.62   3
   1  -5  -7 35538.0 2739.47   5
  -1   5   6 100644. 4162.44   3
   1  -5  -6 111900. 5115.64   5
   1  -5  -5 2486.05 680.944   5
  -1   5   5 4669.59 675.917   3
   1  -5  -4 13027.8 1396.64   5
   1  -5  -3 48678.4 2856.23   5
   1  -5  -2 125675. 5103.68   6
   1  -5  -2 138328. 5523.77   5
  -1   5   1 39632.1 1686.18   4
   1  -5  -1 47142.4 2472.65   6
   1  -5   0 196058. 6985.66   6
  -1   5   0 195536. 6303.06   4
  -1   5  -1 6250.41 698.416   4
   1  -5   1 5986.91 807.313   6
   1  -5   2 6420.31 858.785   6
  -1   5  -2 7224.47 834.814   4
   1  -5   2 5864.69 603.699   1
   1  -5   3 1984.32 502.540   6
   1  -5   3 1405.55 238.229   1
   1  -5   4 24780.2 1829.42   6
  -1   5  -4 24063.4 1811.39   4
  -1   5  -5 17288.5 1602.81   4
   1  -5   5 18765.4 1595.61   6
  -1   5  -6 12323.3 1405.80   4
   1  -5   6 13842.4 1402.14   6
  -1   5  -6 13653.2 1267.62   5
   1  -5   7-30.9330 325.323   6
  -1   5  -7 164.415 266.491   5
   1  -5   8 224.023 362.340   6
  -1   5  -8 349.215 327.120   5
  -1   5  -8 99.9394 279.305   4
  -1   5  -9 491.016 235.098   4
   1  -5   9-90.2410 297.270   6
   1  -5  10 3800.10 895.455   6
  -1   5 -10 3557.35 879.070   4
   1  -5  11 8452.69 1341.87   6
  -1   5 -11 7909.07 1403.60   4
  -1   5 -12 18046.8 2232.30   4
   1  -5  12 17298.5 2027.83   6
   1  -4 -13 20239.2 2350.67   5
   1  -4 -12 6217.36 1276.95   5
   1  -4 -11 26242.2 2495.20   5
   1  -4 -10 21189.6 2129.33   5
   1  -4  -9 16079.8 1766.13   5
   1  -4  -8 9447.44 1295.83   5
  -1   4   8 9743.23 1010.65   3
  -1   4   7 54450.6 2674.54   3
   1  -4  -7 57868.0 3348.90   5
  -1   4   6 149571. 5468.84   3
   1  -4  -6 159789. 6335.73   5
  -1   4   5 145177. 5292.50   3
   1  -4  -5 155338. 5987.99   5
   1  -4  -4 58374.5 2994.86   5
  -1   4   4 54708.9 2534.53   3
  -1   4   3 9886.90 893.236   3
   1  -4  -3 8919.56 1020.14   5
   1  -4  -2 18355.9 1424.72   5
  -1   4   1 54089.2 2040.77   4
   1  -4  -1 58655.0 2673.75   6
   1  -4  -1 58498.6 2779.79   5
  -1   4   0 39058.6 1701.82   4
   1  -4   0 37185.4 2061.25   6
  -1   4  -1 120110. 4228.05   4
   1  -4   1 115773. 4465.75   6
   1  -4   2 16281.3 1230.11   6
  -1   4  -2 17346.4 1222.38   4
  -1   4  -3 1373.22 390.601   4
   1  -4   3 698.215 134.176   1
   1  -4   3 888.253 356.415   6
   1  -4   4 927.312 396.917   6
  -1   4  -4 796.470 296.219   4
   1  -4   5 6505.98 863.484   6
  -1   4  -5 6486.28 912.278   4
  -1   4  -6 27076.4 1717.87   5
   1  -4   6 26461.6 1853.90   6
  -1   4  -6 26698.6 2023.38   4
   1  -4   7 61414.2 3189.03   6
  -1   4  -7 57624.5 2885.01   5
  -1   4  -7 61232.0 3399.75   4
  -1   4  -8-284.901 356.134   5
   1  -4   8-407.758 383.645   6
  -1   4  -8-103.405 370.991   4
   1  -4   9 307.188 349.189   6
  -1   4  -9-28.5511 357.007   4
  -1   4 -10 4163.64 956.118   4
   1  -4  10 5651.01 1026.48   6
  -1   4 -11 665.477 490.873   4
   1  -4  11 763.750 489.897   6
  -1   4 -12 16320.2 2017.37   4
  -1   4 -13 30302.8 2959.94   4
   1  -3 -13 12623.2 1752.77   5
   1  -3 -12 14956.8 1873.15   5
   1  -3 -11 55659.4 3611.49   5
   1  -3 -10 48006.4 3192.92   5
   1  -3  -9 45657.4 2971.02   5
   1  -3  -8 31929.7 2323.68   5
   1  -3  -7 10007.7 702.726   4
  -1   3   7 12476.0 1075.73   3
   1  -3  -7 10948.4 1223.22   5
   1  -3  -6 23592.1 1761.63   5
   1  -3  -6 18476.5 922.611   4
  -1   3   6 23282.7 1469.19   3
   1  -3  -5 120189. 4365.41   5
  -1   3   5 121514. 3944.43   3
   1  -3  -4 149438. 5422.20   5
  -1   3   4 141644. 4987.00   3
   1  -3  -3 96611.6 3812.68   5
  -1   3   3 89826.8 3435.31   3
   1  -3  -2 10409.4 930.955   5
  -1   3   2 12586.4 915.283   3
   1  -3  -1 2013.33 434.941   5
  -1   3   1 2318.45 399.776   3
  -1   3   1 2838.25 290.699   4
   1  -3   0 2522.18 436.731   6
   1  -3   0 2647.62 446.787   5
  -1   3   0 2619.75 326.734   4
   1  -3   1 163438. 5702.35   6
  -1   3  -1 178585. 5590.62   4
   1  -3   2 704.983 155.535   1
   1  -3   2 796.310 281.869   6
  -1   3  -2 1074.00 315.752   4
  -1   3  -3 150645. 5369.21   4
   1  -3   3 149104. 5256.13   6
  -1   3  -4 4208.24 644.515   4
   1  -3   4 4034.38 598.915   6
  -1   3  -5 15883.2 1128.41   5
  -1   3  -5 15463.5 1338.02   4
   1  -3   5 14201.5 1174.74   6
  -1   3  -6 2209.30 434.903   5
  -1   3  -6 2714.53 609.848   4
   1  -3   6 1640.54 444.940   6
  -1   3  -7 113222. 4848.86   4
   1  -3   7 100197. 4297.12   6
  -1   3  -7 104270. 4190.52   5
  -1   3  -8 15383.9 1564.15   4
  -1   3  -8 12435.3 1210.73   5
   1  -3   8 13719.7 1357.89   6
   1  -3   9 80182.2 3882.55   6
  -1   3  -9 71929.4 3579.52   5
  -1   3  -9 79166.4 4176.26   4
  -1   3 -10 7799.56 1063.50   5
  -1   3 -10 6102.42 1116.84   4
   1  -3  10 8451.50 1148.62   6
  -1   3 -11 9563.17 1292.44   5
  -1   3 -11 11623.8 1607.45   4
  -1   3 -12 12036.2 1711.10   4
  -1   3 -13 30865.5 2907.98   4
  -1   3 -14 29851.6 2996.23   4
   1  -2 -14 6967.21 1372.80   5
   1  -2 -13 6884.10 1278.31   5
   1  -2 -11 16117.5 1802.17   5
   1  -2 -10 84618.3 4355.69   5
   1  -2 -10 78412.0 3626.42   4
   1  -2  -9 61352.3 3467.42   5
   1  -2  -8 78402.0 3887.76   5
   1  -2  -7 49515.7 2779.60   5
   1  -2  -6 42561.1 2423.76   5
   1  -2  -5 153.418 288.015   5
   1  -2  -4 189745. 6487.66   5
   1  -2  -3 9495.14 578.737   4
  -1   2   3 9602.75 762.206   3
   1  -2  -3 9108.34 844.527   5
  -1   2   2 45993.9 1862.02   3
   1  -2  -2 44236.5 1918.96   5
  -1   2   1 2292.27 345.331   3
   1  -2  -1 2053.73 342.105   5
   1  -2  -1 2138.26 222.041   4
  -1   2   1 2156.41 228.347   4
   1  -2   0 6504.19 464.623   4
  -1   2   0 6969.50 600.147   3
  -1   2   0 6609.43 467.013   4
   1  -2   0 5129.09 520.295   5
   1  -2   1 22441.8 1178.77   6
  -1   2  -1 21874.9 1118.99   4
  -1   2  -2 17732.5 1074.90   4
   1  -2   2 15843.5 996.340   6
   1  -2   3 149199. 5115.45   6
  -1   2  -3 159458. 5316.90   4
   1  -2   4 76744.8 3072.87   6
  -1   2  -4 81665.5 2878.66   5
  -1   2  -4 79557.0 3331.12   4
  -1   2  -5 44083.5 1844.28   5
  -1   2  -5 45708.2 2326.24   4
   1  -2   5 41061.3 1980.82   6
  -1   2  -6 4449.62 567.278   5
   1  -2   6 3704.69 568.779   6
  -1   2  -6 4001.00 714.805   4
   1  -2   7 4325.38 658.302   6
  -1   2  -7 6534.08 953.842   4
  -1   2  -7 6090.57 735.864   5
   1  -2   8 43635.5 2436.54   6
  -1   2  -8 41949.5 2315.02   5
  -1   2  -8 43761.4 2738.44   4
  -1   2  -9 76706.5 3694.77   5
  -1   2  -9 89442.3 4352.27   4
  -1   2 -10 97731.7 4809.94   4
  -1   2 -10 85106.0 4231.39   5
  -1   2 -11 28060.6 2469.50   4
  -1   2 -11 23362.2 2062.24   5
  -1   2 -12 9840.03 1506.03   4
  -1   2 -12 7510.19 1208.41   5
  -1   2 -13 11632.5 1717.97   4
  -1   2 -13 10546.2 1528.24   5
  -1   2 -14 20552.9 2443.29   4
  -1   2 -15 23517.9 2707.50   4
   1  -1 -14 26736.6 2658.65   5
   1  -1 -13 32914.5 2877.94   5
   1  -1 -12 5378.61 1065.04   5
   1  -1 -12 6537.22 1039.21   4
   1  -1 -11 24532.1 2004.75   4
   1  -1 -11 23773.3 2191.99   5
   1  -1 -10 51724.3 3232.29   5
   1  -1  -9 16090.7 1577.80   5
   1  -1  -8 81444.8 3909.45   5
   1  -1  -7 96704.3 4223.19   5
   1  -1  -6 245.735 287.428   5
   1  -1  -5 2895.62 545.591   5
   1  -1  -4 87095.2 3440.00   5
   1  -1  -3 2680.22 433.493   5
   1  -1  -2 137494. 4510.13   5
  -1   1   1 34507.3 1473.28   3
   1  -1  -1 38419.2 1349.29   4
   1  -1  -1 34229.7 1455.01   5
  -1   1   0 73762.3 2425.02   3
  -1   1   0 73944.4 2262.51   4
   1  -1   0 69039.3 2229.34   4
   1  -1   0 61109.9 2182.93   5
  -1   1   0 64169.3 2189.43   5
   1  -1   1 6462.72 476.014   6
  -1   1  -1 5122.48 334.452   5
   1  -1   1 6430.77 478.956   4
  -1   1  -1 6496.98 480.765   4
   1  -1   2 28236.0 1265.07   6
  -1   1  -2 31800.9 1424.64   4
  -1   1  -3 683.437 142.029   5
  -1   1  -3 720.234 267.987   4
   1  -1   3 837.327 224.073   6
  -1   1  -4 247649. 7747.96   4
   1  -1   4 225840. 7314.64   6
  -1   1  -4 245623. 7224.39   5
   1  -1   5 122250. 4397.28   6
  -1   1  -5 133592. 4358.58   5
  -1   1  -5 131212. 4832.51   4
  -1   1  -6 95294.2 4088.64   4
   1  -1   6 96033.7 3704.76   6
  -1   1  -6 102156. 3681.45   5
  -1   1  -7 36811.3 1995.02   5
  -1   1  -7 38999.9 2343.71   4
  -1   1  -8 49514.9 2576.24   5
  -1   1  -8 47319.3 2817.42   4
  -1   1  -9 26375.8 1896.33   5
  -1   1  -9 27605.8 2159.98   4
  -1   1 -10 148636. 6048.63   5
  -1   1 -10 146536. 6430.92   4
  -1   1 -11 50423.4 3217.18   5
  -1   1 -11 65183.6 3812.74   4
  -1   1 -12 84087.4 4761.98   4
  -1   1 -12 77920.6 4378.46   5
  -1   1 -13 6108.56 1271.65   4
  -1   1 -13 7017.80 1241.12   5
  -1   1 -14 1946.89 765.530   4
  -1   1 -14 1487.96 604.513   5
  -1   1 -15 521.928 486.059   4
   1   0 -15 6068.11 1345.63   5
   1   0 -14 26781.6 2684.62   5
   1   0 -14 23456.5 2393.77   4
   1   0 -13 47904.1 3595.05   5
   1   0 -13 55751.3 3643.66   4
   1   0 -12 14738.8 1795.12   5
   1   0 -12 15666.0 1756.68   4
   1   0 -11 16421.6 1790.61   5
   1   0 -10 7325.47 1111.89   5
   1   0  -9 17655.9 1647.00   5
   1   0  -8 28669.3 2003.37   5
   1   0  -7 78252.4 3572.23   5
   1   0  -6 47639.6 2435.58   5
   1   0  -5 5179.58 651.204   5
  -1   0   4 79755.2 2503.73   2
   1   0  -4 80332.0 3071.54   5
  -1   0   3 3328.27 263.541   2
   1   0  -3 2826.45 394.355   5
  -1   0   2 4248.03 318.184   2
   1   0  -2 4224.61 401.032   5
  -1   0   1 102259. 3110.58   5
   1   0  -1 96562.0 3100.31   5
  -1   0   0 18693.3 656.921   5
   1   0   0 17673.8 647.376   5
  -1   0   0 17614.2 783.746   4
   1   0   0 18610.7 794.357   1
   1   0   0 16916.9 797.536   4
  -1   0   0 16538.0 769.569   3
  -1   0  -1 100881. 3097.68   4
   1   0   1 94032.7 3079.31   4
  -1   0  -1 104559. 2988.42   1
   1   0   1 101401. 2991.11   1
   1   0   1 91246.6 3034.73   3
   1   0   1 95397.9 2886.06   6
  -1   0  -1 99114.9 3023.78   3
   1   0   2 204102. 5989.78   6
  -1   0  -2 205963. 6043.94   2
  -1   0  -2 207913. 6274.70   4
  -1   0  -2 205490. 5996.63   6
  -1   0  -2 212841. 5986.95   5
   1   0   2 209347. 5964.06   5
  -1   0  -3 192229. 5723.14   6
   1   0   3 191894. 5763.68   5
  -1   0  -3 206063. 5811.92   5
  -1   0  -3 187216. 5629.09   2
   1   0   3 189352. 5734.63   6
  -1   0  -3 196127. 6070.20   4
  -1   0  -4 378.203 166.207   5
  -1   0  -4 488.307 113.079   2
  -1   0  -4 533.778 209.039   4
   1   0   4 516.856 195.087   6
  -1   0  -5 523856. 15200.2   5
  -1   0  -5 509368. 15470.5   4
  -1   0  -6 220221. 7652.89   4
  -1   0  -6 233964. 7445.82   5
  -1   0  -7 141805. 5556.51   4
  -1   0  -7 151704. 5394.43   5
  -1   0  -8 48963.7 2564.64   5
  -1   0  -8 46117.4 2705.51   4
  -1   0  -9 41512.3 2487.81   5
  -1   0  -9 41601.3 2671.68   4
  -1   0 -10 24911.6 2113.73   4
  -1   0 -10 23957.6 1938.17   5
  -1   0 -11 24711.4 2214.24   4
  -1   0 -11 23765.3 2043.05   5
  -1   0 -12 60962.4 3857.47   4
  -1   0 -12 57440.0 3603.66   5
  -1   0 -13 38131.1 3015.07   5
  -1   0 -13 42056.2 3279.17   4
  -1   0 -14 12058.0 1788.28   4
  -1   0 -14 11780.2 1710.79   5
  -1   0 -15-205.804 407.744   5
  -1   0 -15-218.514 372.137   4
  -1   0 -16 2094.67 839.560   4
   1   1 -15 2124.22 932.434   5
   1   1 -15 4477.34 1107.47   4
   1   1 -14 4204.97 1087.20   5
   1   1 -14 5719.63 1214.27   4
   1   1 -13 19825.0 2219.25   5
   1   1 -13 21506.0 2218.22   4
   1   1 -12 43296.8 3191.35   5
   1   1 -11 29089.7 2428.78   5
   1   1 -10 5635.89 956.405   5
   1   1  -9 1911.09 562.454   5
   1   1  -8 386.923 274.093   5
   1   1  -7 7557.13 895.685   5
   1   1  -6 76222.9 3254.14   5
   1   1  -5 15398.2 1121.77   5
   1   1  -4 184387. 5987.77   5
   1   1  -3 26162.6 1290.18   5
   1   1  -2 182.604 136.555   1
   1   1  -2 140.036 120.470   5
  -1  -1   1 603568. 16918.0   6
   1   1  -1 584729. 16920.7   6
  -1  -1   1 611778. 16967.3   1
   1   1  -1 589325. 16946.8   1
   1   1   0 172821. 5056.81   1
  -1  -1   0 167326. 5031.77   1
   1   1   0 163098. 4847.66   6
  -1  -1  -1 116337. 3515.63   4
   1   1   1 110937. 3492.62   5
   1   1   1 111798. 3607.10   1
   1   1   1 118341. 3539.33   4
  -1  -1  -1 111346. 3490.08   5
  -1  -1  -1 111603. 3614.78   1
  -1  -1  -2 449045. 12385.1   5
   1   1   2 434970. 12364.1   5
   1   1   2 427118. 12320.0   4
  -1  -1  -2 419889. 12332.0   4
  -1  -1  -3 47560.0 1863.76   4
  -1  -1  -3 51774.3 1923.54   5
  -1  -1  -4 37634.5 1666.06   5
  -1  -1  -4 34264.8 1601.28   4
  -1  -1  -5 255175. 8180.63   4
  -1  -1  -5 268875. 8255.03   5
  -1  -1  -6 88410.4 3504.67   5
  -1  -1  -6 84919.9 3448.62   4
  -1  -1  -7 286461. 9361.33   5
  -1  -1  -7 283356. 9305.34   4
  -1  -1  -8 131764. 5160.88   5
  -1  -1  -8 128740. 5146.58   4
  -1  -1  -9 53513.5 2912.39   4
  -1  -1  -9 46831.2 2767.38   5
  -1  -1 -10 19032.5 1755.70   4
  -1  -1 -10 18286.1 1686.20   5
  -1  -1 -11 13097.5 1510.39   4
  -1  -1 -11 12231.5 1451.45   5
  -1  -1 -12 8770.00 1322.84   5
  -1  -1 -12 10754.6 1430.67   4
  -1  -1 -13 11538.3 1589.64   5
  -1  -1 -13 11325.7 1602.03   4
  -1  -1 -14 12779.4 1766.14   5
  -1  -1 -14 15693.0 1910.32   4
  -1  -1 -15 5010.42 1171.67   5
  -1  -1 -16-1095.43 650.878   5
   1   2 -15 11162.4 1863.93   5
   1   2 -15 13916.3 1969.84   4
   1   2 -14 335.501 426.333   4
   1   2 -14-106.650 411.740   5
   1   2 -13-208.402 482.231   5
   1   2 -13 1039.81 616.358   4
   1   2 -12 2137.48 859.844   5
   1   2 -11 25769.7 2272.64   5
   1   2 -10 21168.3 1903.39   5
   1   2  -9 20956.1 1766.56   5
   1   2  -8 69.8529 326.368   5
   1   2  -7 8392.01 986.946   5
   1   2  -6 4213.17 642.101   5
   1   2  -5 63197.4 2809.38   5
  -1  -2   5 68951.7 2953.84   6
   1   2  -4 220649. 7105.34   5
  -1  -2   4 223028. 7216.99   6
   1   2  -3 838.311 259.873   5
  -1  -2   3 843.539 294.773   6
  -1  -2   2 119684. 3955.80   1
  -1  -2   2 123698. 4059.10   6
  -1  -2   1 15648.9 885.907   6
  -1  -2   1 17019.7 906.781   1
   1   2  -1 17760.0 946.821   1
   1   2   0 111915. 3612.11   1
   1   2   0 105910. 3402.60   6
  -1  -2   0 104082. 3389.69   6
  -1  -2   0 101078. 3522.59   1
  -1  -2  -1 581979. 16747.4   6
  -1  -2  -1 615960. 17118.4   5
   1   2   2 968137. 27162.9   4
  -1  -2  -2 962578. 27194.6   4
  -1  -2  -2 999999. 27548.8   5
   1   2   3 334204. 9629.56   4
  -1  -2  -3 316219. 9631.16   4
  -1  -2  -4 155612. 5032.56   4
  -1  -2  -4 175836. 5502.63   5
  -1  -2  -5 18995.5 1047.35   4
  -1  -2  -5 17264.8 1208.08   5
  -1  -2  -6 106585. 4135.72   5
  -1  -2  -6 103769. 3798.81   4
  -1  -2  -7 49525.3 2382.42   4
  -1  -2  -7 55748.9 2730.50   5
  -1  -2  -8 84614.7 3879.51   5
  -1  -2  -8 86129.5 3635.74   4
  -1  -2  -9 46340.5 2755.61   5
  -1  -2  -9 46478.3 2540.71   4
  -1  -2 -10 17908.0 1552.67   4
  -1  -2 -10 15876.3 1609.16   5
  -1  -2 -11 2870.57 764.808   5
  -1  -2 -11 3420.35 692.053   4
  -1  -2 -12 7445.60 1115.05   4
  -1  -2 -12 6116.56 1100.93   5
  -1  -2 -13-472.652 448.336   5
  -1  -2 -13-274.279 317.653   4
  -1  -2 -14 13035.4 1790.67   5
  -1  -2 -15 5658.63 1252.75   5
   1   3 -15 31674.8 3167.12   5
   1   3 -14 2208.02 910.272   4
   1   3 -14 3917.34 1071.61   5
   1   3 -13 1676.36 682.344   5
   1   3 -13 814.866 404.756   4
   1   3 -12 1561.34 681.595   5
   1   3 -11 1809.32 612.179   5
   1   3 -10-50.1850 324.060   5
   1   3  -9 53531.9 3128.90   5
   1   3  -8 15918.0 1474.56   5
   1   3  -7 21699.5 1659.74   5
  -1  -3   7 20287.5 1651.81   6
  -1  -3   6 1358.76 433.498   6
   1   3  -6 1097.29 379.699   5
  -1  -3   5 8898.90 929.886   6
   1   3  -5 8199.56 899.280   5
  -1  -3   4 148885. 5259.33   6
  -1  -3   3 525254. 15028.8   6
  -1  -3   3 488789. 14653.1   1
  -1  -3   2 168346. 5485.49   1
  -1  -3   2 179422. 5710.99   6
  -1  -3   1 131157. 4456.74   1
  -1  -3   1 139633. 4555.36   6
  -1  -3   0 95907.4 3301.42   6
  -1  -3   0 93399.6 3440.92   1
  -1  -3  -1 36372.1 1560.53   6
  -1  -3  -2 110928. 3952.13   5
   1   3   2 107832. 3295.97   4
  -1  -3  -2 106917. 3559.23   6
  -1  -3  -2 102757. 3280.04   3
   1   3   3 499099. 14163.3   4
  -1  -3  -3 510274. 14991.2   5
   1   3   4 125394. 3901.49   3
  -1  -3  -4 133371. 4081.04   4
   1   3   5 146687. 4520.24   3
  -1  -3  -5 146500. 4684.67   4
  -1  -3  -6 4217.86 456.812   4
  -1  -3  -6 5917.44 793.380   5
  -1  -3  -7 4087.69 496.752   4
  -1  -3  -7 4826.61 737.060   5
  -1  -3  -8 68997.1 2915.57   4
  -1  -3  -8 75792.5 3620.94   5
  -1  -3  -9 31986.0 2230.32   5
  -1  -3  -9 27983.1 1699.81   4
  -1  -3 -10 6187.03 994.278   5
  -1  -3 -10 5914.37 776.236   4
  -1  -3 -11 19712.9 1934.28   5
  -1  -3 -12 900.358 541.746   5
  -1  -3 -13 1287.93 667.046   5
  -1  -3 -14 4231.72 1095.06   5
  -1  -3 -15 5616.04 1259.64   5
   1   4 -14 5111.82 1152.98   4
   1   4 -14 6705.32 1493.84   5
   1   4 -13 6573.75 1367.95   5
   1   4 -13 7346.36 1391.83   4
   1   4 -12 1806.49 638.910   5
   1   4 -11 68.3726 439.694   5
   1   4 -10 1398.21 503.699   5
   1   4  -9 10053.8 1278.35   5
  -1  -4   8 46640.0 2806.14   6
   1   4  -8 38617.7 2598.99   5
   1   4  -7 59833.7 3184.62   5
  -1  -4   7 61736.4 3264.13   6
   1   4  -6 82484.7 3728.00   5
  -1  -4   6 74971.9 3640.84   6
   1   4  -5 15573.4 1342.37   5
  -1  -4   5 15338.0 1313.91   6
  -1  -4   4 7523.52 868.366   6
  -1  -4   4 6739.46 653.456   1
  -1  -4   3 55242.2 2634.56   6
  -1  -4   3 60062.4 2387.84   1
  -1  -4   2 386317. 11778.8   1
  -1  -4   2 407401. 12127.6   6
  -1  -4   1 232686. 7435.78   1
  -1  -4   1 234993. 7540.44   6
  -1  -4   0 156447. 5402.45   1
  -1  -4   0 156712. 5270.05   6
  -1  -4  -1 122924. 4274.12   6
  -1  -4  -2 27955.6 1419.28   6
   1   4   2 23202.4 1028.73   4
  -1  -4  -2 27422.4 1718.17   5
   1   4   3 19565.3 772.243   4
  -1  -4  -3 31942.1 1824.05   5
  -1  -4  -4 62676.2 2985.93   5
  -1  -4  -5 247581. 8466.88   5
  -1  -4  -6 4189.28 401.604   4
  -1  -4  -6 4643.66 759.992   5
   1   4   6 4070.80 383.763   3
  -1  -4  -7 295.140 288.052   5
  -1  -4  -7 824.081 188.291   4
   1   4   7 544.912 164.853   3
  -1  -4  -8 129.860 303.899   5
  -1  -4  -9 4753.50 923.504   5
  -1  -4 -10 13370.3 1591.41   5
  -1  -4 -11 25977.6 2396.87   5
  -1  -4 -12 9875.69 1518.15   5
  -1  -4 -13 7103.31 1353.48   5
  -1  -4 -14 164.354 412.796   5
   1   5 -13 5860.48 1339.54   4
   1   5 -13 7822.04 1475.76   5
   1   5 -12 13578.5 1828.45   5
   1   5 -12 12120.5 1747.34   4
   1   5 -11 2349.59 741.040   5
  -1  -5  10 2521.39 708.910   6
   1   5 -10 2005.49 682.648   5
   1   5  -9 2162.14 647.534   5
  -1  -5   9 1737.85 611.781   6
  -1  -5   8 61324.5 3460.96   6
   1   5  -8 52175.1 3235.53   5
  -1  -5   7 16503.8 1609.47   6
   1   5  -7 15958.7 1577.74   5
  -1  -5   6 208168. 7846.67   6
   1   5  -6 232925. 8169.41   5
  -1  -5   5 81366.4 3771.87   6
  -1  -5   4 76271.9 3471.97   6
  -1  -5   4 75002.4 2942.01   1
  -1  -5   3 22411.8 1331.16   1
  -1  -5   3 23461.9 1626.84   6
  -1  -5   2 115273. 4459.56   6
  -1  -5   2 112289. 4124.04   1
  -1  -5   1 15506.3 1237.63   6
  -1  -5   1 14729.0 1133.50   1
  -1  -5   0 297624. 9518.80   1
  -1  -5   0 291555. 9365.08   6
  -1  -5  -1 46639.8 2289.72   6
  -1  -5  -1 48394.4 2434.46   1
  -1  -5  -2 27051.5 1511.82   6
   1   5   2 19168.4 925.070   4
  -1  -5  -3 2279.35 426.857   6
  -1  -5  -3 2148.23 602.840   5
  -1  -5  -4 2738.34 455.743   6
  -1  -5  -4 3385.45 707.508   5
  -1  -5  -5 20003.9 1732.21   5
  -1  -5  -6 70969.2 3644.14   5
  -1  -5  -7 30068.6 2248.15   5
  -1  -5  -8 4089.60 818.665   5
  -1  -5  -9-159.027 414.718   5
  -1  -5 -10 202.843 356.196   5
  -1  -5 -11 6472.43 1212.14   5
  -1  -5 -12 21761.4 2337.50   5
  -1  -5 -13 6528.59 1341.95   5
   1   6 -12 15100.9 1979.78   4
   1   6 -11 23299.6 2387.72   4
   1   6 -11 25877.8 2525.27   5
   1   6 -10 14463.9 1790.75   5
  -1  -6  10 16333.4 1919.33   6
   1   6  -9 23614.0 2237.13   5
  -1  -6   9 26320.0 2324.18   6
   1   6  -8 10862.9 1409.72   5
  -1  -6   8 10838.1 1436.84   6
  -1  -6   7 10966.6 1340.08   6
   1   6  -7 12967.2 1526.20   5
  -1  -6   6 101612. 4679.45   6
  -1  -6   5 71042.7 3590.67   6
  -1  -6   4 63255.7 2678.58   1
  -1  -6   4 65027.8 3279.54   6
  -1  -6   3 44798.7 2174.99   1
  -1  -6   3 44554.6 2547.30   6
  -1  -6   2 24908.2 1761.65   6
  -1  -6   2 24082.1 1521.56   1
  -1  -6   1 19912.6 1432.82   1
  -1  -6   1 18851.3 1507.51   6
  -1  -6   0 29433.3 1901.25   1
  -1  -6   0 32222.4 1958.53   6
  -1  -6  -1 45978.7 2522.23   1
  -1  -6  -1 44421.8 2367.46   6
  -1  -6  -2 49261.5 2514.18   6
  -1  -6  -3 12360.8 1126.17   6
  -1  -6  -4-77.5773 336.463   5
  -1  -6  -4-83.3579 292.201   6
  -1  -6  -5 166.317 249.663   6
  -1  -6  -5 199.979 339.529   5
  -1  -6  -6 397.212 351.483   5
  -1  -6  -7 21369.2 2033.70   5
  -1  -6  -8 17839.9 1927.82   5
  -1  -6  -9 11807.3 1573.79   5
  -1  -6 -10 4087.07 1015.75   5
  -1  -6 -11 606.100 547.761   5
  -1  -6 -12 7063.87 1390.88   5
   1   7 -11 23286.3 2471.89   4
  -1  -7  11 28754.1 2722.05   6
   1   7 -10 25350.3 2497.11   5
  -1  -7  10 26861.9 2556.12   6
   1   7 -10 23388.5 2377.00   4
   1   7  -9 36201.1 2884.89   5
  -1  -7   9 34946.1 2879.19   6
  -1  -7   8 25696.3 2303.62   6
   1   7  -8 22907.7 2228.36   5
   1   7  -7 18031.1 1893.00   5
  -1  -7   7 17602.2 1811.81   6
  -1  -7   6 11298.6 1394.03   6
  -1  -7   5 59295.7 3357.82   6
  -1  -7   4 56113.3 3186.73   6
  -1  -7   3 41820.4 2605.96   6
  -1  -7   2 4593.50 692.337   1
  -1  -7   2 6643.31 968.747   6
  -1  -7   1 3744.82 722.065   6
  -1  -7   1 3439.65 688.597   1
  -1  -7   0-76.6836 382.897   6
  -1  -7   0-85.6540 225.678   1
  -1  -7  -1 24888.6 1800.58   6
  -1  -7  -1 23389.8 1874.33   1
  -1  -7  -2 1084.81 449.089   1
  -1  -7  -2 871.786 405.402   6
  -1  -7  -3 50782.5 2782.83   6
  -1  -7  -4 15648.7 1441.10   6
  -1  -7  -5 292.233 315.525   5
  -1  -7  -5 566.808 343.857   6
  -1  -7  -6-1292.09 456.481   6
  -1  -7  -6-1281.21 582.650   5
  -1  -7  -7 26641.1 2484.70   5
  -1  -7  -7 21764.9 1787.05   6
  -1  -7  -8 2818.86 628.955   6
  -1  -7  -8 2497.22 800.167   5
  -1  -7  -9 27650.6 2711.38   5
  -1  -7 -10 14036.6 1934.27   5
  -1  -7 -11 11154.8 1741.27   5
   1   8 -10 24642.4 2560.42   4
  -1  -8  10 27255.7 2648.93   6
  -1  -8   9 28008.8 2605.81   6
   1   8  -9 26057.2 2551.80   4
   1   8  -8 20626.0 2175.17   4
   1   8  -8 24503.9 2412.95   5
  -1  -8   8 26250.6 2414.56   6
  -1  -8   7 12871.5 1630.96   6
   1   8  -7 10717.7 1520.05   5
   1   8  -7 12479.3 1602.99   4
   1   8  -6 4289.27 873.226   4
  -1  -8   6 3828.07 923.080   6
   1   8  -5 1431.98 527.612   4
  -1  -8   5 1081.60 582.587   6
  -1  -8   4 9215.05 1262.10   6
   1   8  -4 9522.57 1201.05   4
   1   8  -3 32825.9 2218.25   4
  -1  -8   3 29155.4 2280.46   6
  -1  -8   2 24559.9 2036.17   6
  -1  -8   1 410.582 392.602   6
  -1  -8   0 2227.62 566.812   1
  -1  -8   0 1627.12 504.208   6
  -1  -8  -1 3036.41 708.479   6
  -1  -8  -1 2274.03 674.360   1
  -1  -8  -2-143.262 329.228   6
  -1  -8  -2-482.316 363.767   1
  -1  -8  -3 13161.4 1574.04   1
  -1  -8  -3 14456.3 1456.81   6
  -1  -8  -4 5146.09 1005.66   1
  -1  -8  -4 6551.72 1000.84   6
  -1  -8  -5 12634.4 1417.03   6
  -1  -8  -6 5181.42 925.770   6
  -1  -8  -7 3319.32 745.693   6
  -1  -8  -7 5486.30 1179.81   5
  -1  -8  -8 6031.27 1330.10   5
  -1  -8  -8 4797.54 883.609   6
  -1  -8  -9 22102.5 2556.53   5
   1   9  -9 5845.56 1249.06   4
   1   9  -8 17549.5 2101.11   4
   1   9  -7 28861.8 2638.12   4
  -1  -9   7 29147.4 2615.37   6
  -1  -9   6 4702.40 1031.21   6
  -1  -9   5-323.098 504.012   6
  -1  -9   4 264.176 386.591   6
  -1  -9   3 624.268 481.986   6
  -1  -9   2 7468.39 1195.91   6
  -1  -9   1 6261.86 1090.46   6
  -1  -9   0 6162.06 1025.36   6
  -1  -9  -1 82.3343 361.108   6
  -1  -9  -2 1217.99 507.356   6
  -1  -9  -2 879.254 548.232   1
  -1  -9  -3 3531.56 956.054   1
  -1  -9  -3 3839.61 840.558   6
  -1  -9  -4 18190.1 1788.88   6
  -1  -9  -4 12084.0 1710.88   1
  -1  -9  -5 18050.1 2090.31   1
  -1  -9  -5 16259.5 1719.58   6
  -1  -9  -6 15265.8 2004.85   1
  -1  -9  -6 14410.3 1632.76   6
  -1  -9  -7 10954.1 1443.97   6
  -1 -10   4-154.429 386.790   6
  -1 -10   3-1273.58 620.377   6
  -1 -10   2-857.440 542.628   6
  -1 -10   1 5749.27 1071.18   6
  -1 -10   0 9531.50 1387.03   6
  -1 -10  -1 12346.7 1611.61   6
  -1 -10  -2 5420.46 1102.86   6
  -1 -10  -3 868.927 466.238   6
  -1 -10  -4 2325.63 745.071   6
  -1 -10  -5 8115.80 1481.78   1
  -1 -10  -5 9624.74 1422.81   6
  -1 -10  -6 19768.1 2040.02   6
  -1 -10  -6 16130.6 2194.87   1
   2  -8  -5 6598.14 1278.15   6
   2  -8  -4 9075.39 1491.46   6
   2  -8  -3 2028.15 675.062   6
   2  -8  -2-206.277 536.681   6
   2  -8  -1-57.5316 444.824   6
   2  -8   0 13123.2 1735.31   6
   2  -8   1 32748.9 2723.25   6
   2  -8   2 1214.00 632.176   6
   2  -8   3 1285.77 519.587   6
   2  -8   4 1938.03 698.745   6
   2  -8   5 1103.69 574.886   6
   2  -8   6 5509.76 1110.71   6
   2  -8   7 26594.8 2505.77   6
   2  -7  -8 3443.91 1086.11   5
   2  -7  -7 2997.05 833.404   6
   2  -7  -7 1232.41 677.469   5
   2  -7  -6 7151.52 1283.97   6
   2  -7  -6 9299.94 1623.05   5
   2  -7  -5 1091.94 665.436   5
   2  -7  -5-12.6092 462.624   6
   2  -7  -4 26423.3 2661.74   5
   2  -7  -4 24468.0 2266.34   6
   2  -7  -3 5895.21 1119.83   6
   2  -7  -2 3474.11 880.787   6
   2  -7  -1 456.165 431.334   6
   2  -7   0 389.411 353.622   6
   2  -7   1 10242.8 1368.51   6
   2  -7   2 36771.9 2711.03   6
   2  -7   3 27529.1 2338.65   6
   2  -7   4 15008.4 1717.53   6
   2  -7   5 7036.26 1173.16   6
   2  -7   6 8210.21 1287.67   6
  -2   7  -6 7269.29 1244.51   4
  -2   7  -7 17577.2 1987.24   4
   2  -7   7 15391.2 1790.09   6
   2  -7   8 39157.9 2974.17   6
  -2   7  -8 34600.9 3001.46   4
   2  -7   9 28950.3 2619.55   6
  -2   7  -9 23600.7 2519.49   4
   2  -7  10 15897.5 1941.47   6
  -2   7 -10 14409.0 2007.12   4
   2  -6 -10 17671.0 2398.10   5
   2  -6  -9 546.764 435.070   5
   2  -6  -8 7102.63 1348.55   5
   2  -6  -7 3867.59 1061.09   5
   2  -6  -6-26.1451 425.246   5
   2  -6  -5 137.479 457.069   5
   2  -6  -4 4109.37 1003.60   5
   2  -6  -4 3430.31 849.726   6
   2  -6  -3 19027.6 1814.48   6
   2  -6  -3 18387.1 2032.33   5
   2  -6  -2 33822.5 2448.00   6
   2  -6  -1 18139.5 1711.02   6
   2  -6   0 6727.97 1018.75   6
   2  -6   1 4195.65 811.836   6
   2  -6   2 10350.4 1284.20   6
  -2   6  -3 48873.8 2838.60   4
   2  -6   3 47451.3 2952.29   6
   2  -6   4 70539.9 3806.45   6
  -2   6  -4 71997.9 3774.58   4
   2  -6   5 36891.2 2592.43   6
  -2   6  -5 35647.9 2600.98   4
   2  -6   6 14422.6 1594.98   6
  -2   6  -6 15845.3 1737.04   4
   2  -6   7 7019.55 1129.93   6
  -2   6  -7 7776.31 1270.65   4
   2  -6   8 15214.4 1711.53   6
  -2   6  -8 16319.1 1916.55   4
  -2   6  -9 23084.9 2395.77   4
   2  -6   9 24644.7 2254.44   6
  -2   6 -10 52375.1 3889.80   4
   2  -6  10 57747.3 3708.61   6
  -2   6 -11 8473.52 1551.93   4
   2  -6  11 9258.68 1465.19   6
   2  -6  12 2143.10 791.256   6
   2  -5 -11-29.7759 357.003   5
   2  -5 -10 1535.07 734.464   5
   2  -5  -9 12030.5 1729.05   5
   2  -5  -8 10040.0 1525.92   5
   2  -5  -7 12545.4 1614.06   5
  -2   5   7 9312.72 1112.52   3
   2  -5  -6 10916.7 1462.43   5
  -2   5   6 13026.3 1304.91   3
   2  -5  -5 2793.07 733.223   5
  -2   5   5 3283.80 671.706   3
  -2   5   4 405.315 336.583   3
   2  -5  -4-272.923 462.701   5
   2  -5  -3 30526.3 2358.09   5
   2  -5  -2 1216.21 556.109   6
   2  -5  -2 1084.40 564.936   5
   2  -5  -1 135181. 5495.57   6
   2  -5   0 45713.1 2663.89   6
  -2   5   0 43382.5 2135.00   4
  -2   5  -1 24225.8 1594.80   4
   2  -5   1 23680.9 1836.49   6
   2  -5   2 23341.5 1766.91   6
  -2   5  -2 19971.0 1523.00   4
   2  -5   3 77636.3 3720.48   6
  -2   5  -3 76464.3 3638.68   4
   2  -5   4 23682.3 1875.99   6
  -2   5  -4 22784.4 1855.09   4
  -2   5  -5 137423. 5828.04   4
   2  -5   5 133202. 5611.17   6
   2  -5   6 75550.4 3825.51   6
  -2   5  -6 75005.0 4046.80   4
  -2   5  -7 26113.2 2291.08   4
   2  -5   7 28551.2 2182.98   6
   2  -5   8-30.2563 231.457   6
  -2   5  -8 464.624 393.759   4
   2  -5   9 1139.17 437.069   6
  -2   5  -9 1599.52 657.209   4
  -2   5 -10 12580.2 1754.33   4
   2  -5  10 10233.7 1434.90   6
   2  -5  11 16972.9 1897.50   6
  -2   5 -11 17118.2 2119.78   4
   2  -5  12 7319.13 1303.26   6
  -2   5 -12 8469.82 1526.71   4
   2  -4 -12 10086.8 1635.44   5
   2  -4 -11 4078.48 1060.85   5
   2  -4 -10-65.7780 378.399   5
   2  -4  -9 6.73546 315.098   5
  -2   4   9 291.514 280.365   3
   2  -4  -8 3068.78 802.166   5
  -2   4   8 3962.66 757.171   3
  -2   4   7 28928.3 2018.53   3
   2  -4  -7 30751.2 2428.47   5
  -2   4   6 16654.0 1445.90   3
   2  -4  -6 18621.1 1807.84   5
   2  -4  -5 15855.9 1577.71   5
  -2   4   5 12352.5 1220.24   3
  -2   4   4 52217.2 2712.53   3
   2  -4  -4 56202.3 3059.62   5
  -2   4   3 23750.9 1643.96   3
   2  -4  -3 22059.7 1730.21   5
   2  -4  -2 5439.36 848.521   5
  -2   4   2 6112.64 787.227   3
  -2   4   1 199875. 6142.13   4
   2  -4  -1 175592. 6850.20   5
  -2   4   0 100845. 3762.88   4
   2  -4   0 102216. 4218.05   6
   2  -4   1 114785. 4529.51   6
  -2   4  -1 109733. 4204.51   4
  -2   4  -2 63001.1 2868.70   4
   2  -4   2 57366.8 2890.55   6
   2  -4   3 23468.8 1539.94   6
  -2   4  -3 22843.0 1535.64   4
  -2   4  -4 37662.3 2348.69   4
   2  -4   4 37887.6 2261.09   6
   2  -4   5 39557.5 2370.44   6
  -2   4  -5 40995.3 2598.01   4
  -2   4  -6 46649.0 2869.90   4
   2  -4   6 42560.7 2509.80   6
  -2   4  -6 39299.6 2058.74   5
   2  -4   7 69229.5 3542.97   6
  -2   4  -7 78151.2 4111.26   4
   2  -4   8 33065.8 2298.73   6
  -2   4  -8 34035.7 2662.43   4
   2  -4   9 646.502 389.093   6
  -2   4  -9 554.553 374.763   4
   2  -4  10-185.303 317.870   6
  -2   4 -10-64.0030 283.544   4
   2  -4  11 1948.11 618.375   6
  -2   4 -11 2808.72 833.746   4
   2  -4  12 7731.14 1305.67   6
  -2   4 -12 9577.46 1622.68   4
  -2   4 -13 5602.75 1268.48   4
   2  -3 -13 407.001 501.717   5
   2  -3 -12 4717.70 1061.63   5
   2  -3 -11 26313.4 2474.80   5
   2  -3 -10 8721.88 1370.83   5
  -2   3  10 9218.79 1199.77   3
  -2   3   9 4225.56 797.804   3
   2  -3  -9 2403.17 712.518   5
   2  -3  -8 1479.57 533.726   5
  -2   3   8 977.450 340.868   3
  -2   3   7 13389.1 1301.16   3
   2  -3  -7 13115.5 1465.90   5
  -2   3   6 61141.2 3033.16   3
   2  -3  -6 57874.0 3243.51   5
  -2   3   5 81750.7 3556.48   3
   2  -3  -5 76803.1 3695.61   5
  -2   3   4 68245.3 2944.81   3
   2  -3  -4 75277.6 3238.52   5
  -2   3   3 37505.5 2021.86   3
   2  -3  -3 34311.7 1394.75   4
  -2   3   2 56649.5 2663.79   3
   2  -3  -2 59357.8 2728.04   5
   2  -3  -1 31941.4 1767.63   5
  -2   3   1 33767.7 1527.47   4
  -2   3   1 30795.3 1806.40   3
  -2   3   0 190802. 6556.17   3
   2  -3   0 184051. 6383.69   5
  -2   3   0 197411. 6194.37   4
  -2   3  -1 180036. 6054.33   4
   2  -3   1 184779. 6249.64   6
  -2   3  -2 162204. 5661.84   4
   2  -3   2 163860. 5729.13   6
   2  -3   3 77255.4 3270.60   6
  -2   3  -3 80680.2 3425.14   4
  -2   3  -4 36351.7 2222.29   4
   2  -3   4 38765.2 2096.25   6
   2  -3   5-15.6669 263.677   6
  -2   3  -5 211.522 149.798   5
   2  -3   6 80660.5 3466.56   6
  -2   3  -6 79442.5 3890.15   4
  -2   3  -6 70263.8 2964.64   5
  -2   3  -7 71.4174 348.735   4
  -2   3  -7 26.8288 199.794   5
   2  -3   7 3.65300 250.289   6
   2  -3   8 34839.4 2235.60   6
  -2   3  -8 35547.2 2031.29   5
  -2   3  -8 39302.5 2773.05   4
  -2   3  -9 10450.9 1437.14   4
   2  -3   9 8167.63 1084.54   6
  -2   3 -10-872.334 500.332   4
   2  -3  10 247.600 325.477   6
   2  -3  11 4926.39 922.479   6
  -2   3 -11 3031.22 899.813   4
  -2   3 -12 3743.48 1059.98   4
  -2   3 -13 2654.85 898.530   4
  -2   3 -14 18466.9 2383.14   4
   2  -2 -13-716.157 576.662   5
   2  -2 -11 15004.4 1811.33   5
   2  -2 -10 24474.3 2238.29   5
   2  -2  -9 42798.8 2903.43   5
   2  -2  -8 11167.0 1357.65   5
   2  -2  -7 15686.2 1509.19   5
   2  -2  -6 29620.2 2041.90   5
   2  -2  -5 115003. 4679.56   5
   2  -2  -4 277340. 8910.23   5
  -2   2   4 257860. 8674.79   3
  -2   2   3 327759. 10343.9   3
   2  -2  -3 334254. 10431.9   5
   2  -2  -2 78423.1 3064.98   5
  -2   2   2 73306.7 3052.49   3
  -2   2   1 58364.5 2215.18   4
  -2   2   1 58030.3 2487.51   3
   2  -2  -1 54400.4 2364.92   5
  -2   2   0 45084.8 2017.46   3
  -2   2   0 45257.5 1828.40   4
  -2   2  -1 50096.1 2296.91   3
  -2   2  -1 50298.7 2160.24   4
   2  -2   1 49934.9 2183.66   6
   2  -2   2 163282. 4917.59   6
  -2   2  -2 166769. 5026.52   4
   2  -2   3 120896. 3922.98   6
  -2   2  -3 136830. 4286.01   4
  -2   2  -4 3826.09 392.158   5
   2  -2   4 3620.10 529.887   6
  -2   2  -4 4644.80 701.353   4
  -2   2  -5 16022.9 942.216   5
  -2   2  -5 15308.9 1364.11   4
   2  -2   5 15895.6 1168.29   6
   2  -2   6 5681.17 709.035   6
  -2   2  -6 5808.73 906.385   4
  -2   2  -6 4947.84 569.913   5
  -2   2  -7 2002.31 400.721   5
   2  -2   7 2417.31 497.500   6
   2  -2   8 48781.7 2640.76   6
  -2   2  -8 50377.7 2516.59   5
  -2   2  -9 17510.2 1812.89   4
   2  -2   9 14248.8 1348.88   6
  -2   2  -9 14073.1 1310.11   5
  -2   2 -10 5038.36 824.039   5
  -2   2 -10 4634.84 1021.42   4
  -2   2 -11 725.982 539.137   4
  -2   2 -12 379.662 384.880   4
  -2   2 -13 239.306 417.858   4
  -2   2 -14 6709.23 1412.60   4
   2  -1 -14 11365.9 1752.02   5
   2  -1 -13 7140.62 1365.40   5
   2  -1 -12 2530.49 774.422   5
   2  -1 -11 1044.93 656.770   5
   2  -1 -10 41726.7 2940.86   5
   2  -1  -9 49121.7 3089.09   5
   2  -1  -8 207398. 7832.00   5
   2  -1  -7 34525.8 2278.96   5
   2  -1  -6 54437.6 2855.32   5
   2  -1  -5 34436.0 2055.36   5
   2  -1  -4 41124.1 2166.10   5
   2  -1  -3 141924. 4993.41   5
  -2   1   2 728287. 21358.4   3
  -2   1   2 744714. 21226.2   2
   2  -1  -2 741182. 21327.6   5
  -2   1   1 177278. 5962.14   3
  -2   1   1 186965. 5958.23   2
   2  -1  -1 190590. 5842.45   5
   2  -1   0 428.334 145.938   5
  -2   1   0 249.630 146.290   4
  -2   1   0 445.704 149.470   5
  -2   1   0 366.823 187.712   3
  -2   1   0 635.056 238.679   2
  -2   1  -1 16286.5 968.084   4
  -2   1  -1 17522.4 1024.61   3
   2  -1   1 17972.2 878.467   1
  -2   1  -1 17399.3 1022.96   2
  -2   1  -1 14869.0 655.987   5
   2  -1   2 69097.0 2530.54   6
  -2   1  -2 74611.7 2698.48   2
  -2   1  -2 71807.4 2729.54   4
   2  -1   2 65559.9 2275.45   1
  -2   1  -3 105394. 3232.99   5
  -2   1  -3 114494. 4046.23   4
   2  -1   3 107189. 3697.22   6
  -2   1  -3 114420. 3326.70   1
   2  -1   4 45919.1 1948.13   6
  -2   1  -4 41455.6 1567.97   1
  -2   1  -4 48469.4 2308.39   4
  -2   1  -4 47840.1 1637.71   5
  -2   1  -5 29952.8 1364.66   1
   2  -1   5 32186.1 1610.19   6
  -2   1  -5 34969.7 1473.07   5
  -2   1  -6-49.1229 157.856   5
  -2   1  -6 186.583 219.904   4
   2  -1   6 8.57721 158.033   6
  -2   1  -6 213.995 145.287   1
  -2   1  -7 302.536 212.016   5
   2  -1   7 573.182 276.077   6
  -2   1  -7 119.964 239.086   4
  -2   1  -8 3138.42 564.181   5
  -2   1  -8 2327.13 627.008   4
   2  -1   8 2728.04 531.784   6
  -2   1  -9 25474.8 2179.00   4
  -2   1  -9 25268.2 1785.33   5
  -2   1 -10 30369.2 2133.17   5
  -2   1 -10 32555.3 2628.61   4
  -2   1 -11 25502.7 2419.39   4
  -2   1 -11 20906.5 1869.38   5
  -2   1 -12 7279.73 1160.34   5
  -2   1 -12 6478.18 1277.46   4
  -2   1 -13 11910.2 1793.72   4
  -2   1 -14 2782.91 960.441   4
  -2   1 -15 21958.8 2650.85   4
   2   0 -14 18315.8 2250.53   5
   2   0 -13 10262.3 1607.87   5
   2   0 -12 42991.6 3284.54   5
   2   0 -11 10895.5 1491.71   5
   2   0 -10 8224.18 1187.85   5
   2   0  -9 7422.55 1085.51   5
   2   0  -8 265742. 9384.57   5
   2   0  -7 53211.2 2866.35   5
   2   0  -6 342822. 11088.2   5
  -2   0   5 80794.8 2830.55   2
   2   0  -5 81578.3 3441.19   5
  -2   0   4 59645.8 2212.68   2
   2   0  -4 58350.6 2587.27   5
   2   0  -3 3199.24 454.451   5
  -2   0   3 3630.84 400.272   2
  -2   0   2 154356. 4944.51   2
   2   0  -2 160911. 5061.84   5
  -2   0   1 100108. 3429.82   2
   2   0  -1 105424. 3372.85   5
  -2   0   0 340631. 9663.67   5
  -2   0   0 329040. 10035.6   3
  -2   0   0 351511. 10065.8   4
  -2   0   0 331514. 9973.56   2
   2   0   0 339668. 9687.21   5
  -2   0  -1 23878.2 1177.04   3
   2   0   1 25839.8 1175.06   1
  -2   0  -1 22947.2 1182.44   2
  -2   0  -1 25618.9 1268.93   4
  -2   0  -1 27083.8 1177.37   1
  -2   0  -2 65332.6 2310.08   3
   2   0   2 61528.5 2216.41   1
  -2   0  -2 61915.8 2191.68   1
  -2   0  -2 61434.0 2407.33   4
  -2   0  -2 58315.2 2272.77   2
   2   0   2 59486.5 2049.73   6
   2   0   3 1378.75 157.918   5
  -2   0  -3 861.514 128.561   5
  -2   0  -3 1081.67 256.305   2
  -2   0  -3 1382.14 266.134   1
  -2   0  -3 1175.68 290.493   4
   2   0   3 1328.73 201.923   6
  -2   0  -3 1198.23 196.344   6
   2   0   4 48286.7 1688.37   5
  -2   0  -4 43065.7 1776.27   2
   2   0   4 44326.3 1703.91   6
  -2   0  -4 42792.8 2086.73   4
  -2   0  -4 44083.6 1666.00   5
  -2   0  -4 43641.4 1874.92   1
  -2   0  -5 53286.7 2476.41   4
  -2   0  -5 48445.6 1922.33   2
   2   0   5 48318.2 1957.09   6
  -2   0  -5 51263.3 2024.46   5
  -2   0  -6 82992.8 2928.57   2
   2   0   6 83093.8 3125.38   6
  -2   0  -6 92754.3 3314.86   5
  -2   0  -6 89954.8 3766.35   4
  -2   0  -7 14266.0 1363.34   4
  -2   0  -7 15734.1 1174.89   5
  -2   0  -8 1902.63 413.470   5
  -2   0  -8 2369.54 629.566   4
  -2   0  -9 1933.45 538.494   5
  -2   0  -9 2156.36 615.140   4
  -2   0 -10 18580.9 1851.60   4
  -2   0 -10 13118.2 1383.23   5
  -2   0 -11 53709.3 3246.73   5
  -2   0 -11 62661.6 3804.13   4
  -2   0 -12 51460.8 3313.57   5
  -2   0 -12 58043.5 3801.75   4
  -2   0 -13 6675.14 1174.14   5
  -2   0 -13 8174.45 1481.71   4
  -2   0 -14 7963.68 1493.26   4
  -2   0 -15 21140.5 2492.01   4
   2   1 -15 2673.33 905.255   4
   2   1 -14 10194.3 1697.39   5
   2   1 -14 10207.7 1559.80   4
   2   1 -13 22751.4 2440.66   5
   2   1 -12 56528.3 3794.28   5
   2   1 -11 55903.4 3591.35   5
   2   1 -10 40245.0 2807.58   5
   2   1  -9 28188.0 2176.48   5
   2   1  -8 31358.3 2141.52   5
   2   1  -7 57697.3 2950.83   5
  -2  -1   7 59898.4 2060.87   2
   2   1  -6 121978. 4731.03   5
   2   1  -5 122606. 4604.99   5
   2   1  -4 66197.9 2791.35   5
   2   1  -3 7253.17 669.634   5
   2   1  -2 1493.30 289.347   5
   2   1  -1 123156. 4060.54   5
  -2  -1   1 136810. 4389.67   1
  -2  -1   0 680.200 228.556   1
  -2  -1  -1 631161. 18063.4   3
  -2  -1  -1 645558. 18328.4   1
  -2  -1  -1 645153. 18355.0   4
   2   1   2 10061.2 591.637   3
  -2  -1  -2 11560.5 798.458   1
  -2  -1  -2 10424.6 743.618   4
  -2  -1  -2 10702.5 590.317   3
   2   1   2 9375.84 572.929   5
  -2  -1  -3 23511.5 1252.41   4
  -2  -1  -3 25239.0 1359.39   1
  -2  -1  -3 22565.9 1042.12   5
   2   1   3 21913.3 1010.56   3
   2   1   3 24948.1 1091.10   5
  -2  -1  -4 7103.82 673.581   4
  -2  -1  -4 7254.25 587.018   5
  -2  -1  -4 7158.71 408.640   6
  -2  -1  -5 23077.4 1379.42   4
  -2  -1  -5 19565.7 928.482   6
  -2  -1  -5 21914.5 1199.96   5
  -2  -1  -6 24123.6 1420.38   5
  -2  -1  -6 24778.8 1561.01   4
  -2  -1  -7 147253. 5071.48   5
  -2  -1  -7 131220. 4213.45   2
  -2  -1  -7 142109. 5291.48   4
  -2  -1  -8 53659.9 1882.46   2
  -2  -1  -8 61965.5 2876.44   5
  -2  -1  -8 57236.5 2974.07   4
  -2  -1  -9 11180.1 1267.04   4
  -2  -1  -9 9050.38 1067.89   5
  -2  -1 -10 12447.1 1432.93   4
  -2  -1 -10 13375.0 1404.40   5
  -2  -1 -11 27883.1 2329.20   4
  -2  -1 -12 69595.3 3978.62   5
  -2  -1 -12 73084.4 4227.22   4
  -2  -1 -13 48255.8 3449.68   4
  -2  -1 -13 46586.2 3269.67   5
  -2  -1 -14 27227.4 2721.70   4
  -2  -1 -14 27308.5 2549.39   5
  -2  -1 -15 5983.50 1278.56   4
   2   2 -15 9552.79 1626.78   4
   2   2 -14 6453.08 1367.65   5
   2   2 -13 9848.59 1645.25   5
   2   2 -12 32051.5 2805.29   5
   2   2 -11 61145.5 3807.16   5
   2   2 -10 48166.0 3097.91   5
   2   2  -9 29206.1 2183.79   5
   2   2  -8 24504.3 1891.04   5
   2   2  -7 43331.7 2504.30   5
   2   2  -6 7042.30 863.882   5
   2   2  -5 186059. 6448.87   5
   2   2  -4 21806.3 1394.24   5
   2   2  -3 106396. 3876.41   5
  -2  -2   2 11080.2 874.401   1
  -2  -2   1 10036.0 805.154   1
  -2  -2   1 10205.3 744.237   6
   2   2   0 221834. 6528.66   6
  -2  -2   0 213457. 6555.09   6
  -2  -2   0 219838. 6901.39   1
   2   2   1 788386. 22151.8   6
  -2  -2  -1 809024. 22117.9   6
  -2  -2  -1 743102. 22825.2   1
  -2  -2  -2 71747.1 2231.69   3
  -2  -2  -2 78900.2 2768.00   4
  -2  -2  -2 77967.2 2986.20   1
  -2  -2  -2 71963.7 2211.10   6
  -2  -2  -3 287074. 8940.72   1
  -2  -2  -3 280281. 8619.46   4
  -2  -2  -3 287138. 8667.06   5
   2   2   4 44481.7 1501.81   3
  -2  -2  -4 50151.0 2070.12   5
  -2  -2  -4 47089.3 2002.98   4
  -2  -2  -5 14892.2 1067.92   5
  -2  -2  -5 12590.4 936.649   4
  -2  -2  -6 2982.55 495.483   5
  -2  -2  -6 3148.70 486.511   4
  -2  -2  -7 176428. 6120.05   5
  -2  -2  -7 167021. 5981.52   4
  -2  -2  -8 84615.2 3740.97   4
  -2  -2  -8 90799.1 3892.76   5
  -2  -2  -9 128225. 5131.65   5
  -2  -2  -9 115824. 4906.52   4
  -2  -2 -10 25612.0 1983.15   5
  -2  -2 -10 22775.5 1842.07   4
  -2  -2 -11 8550.18 1232.85   5
  -2  -2 -11 8829.00 1160.60   4
  -2  -2 -12 14019.1 1585.06   4
  -2  -2 -12 11905.4 1494.64   5
  -2  -2 -13 25144.3 2338.36   5
  -2  -2 -13 27264.2 2368.45   4
  -2  -2 -14 31066.0 2709.95   4
  -2  -2 -14 32822.9 2855.15   5
  -2  -2 -15 20845.9 2385.77   5
   2   3 -14 17773.9 2308.19   5
   2   3 -13 11435.1 1759.85   5
   2   3 -12 11072.3 1628.93   5
   2   3 -11 12693.6 1603.00   5
   2   3 -10 80918.8 4363.02   5
   2   3  -9 42137.7 2809.94   5
   2   3  -8 8173.05 1115.24   5
   2   3  -7 679.573 323.206   5
   2   3  -6 7542.48 943.714   5
   2   3  -5 7867.82 910.071   5
  -2  -3   5 8265.25 968.574   6
   2   3  -4 664.613 295.680   5
  -2  -3   4 908.997 331.932   6
  -2  -3   3 54927.1 2483.26   1
  -2  -3   3 59778.6 2597.01   6
  -2  -3   2 84568.7 3317.79   1
  -2  -3   2 88341.5 3286.17   6
  -2  -3   1 5616.41 572.377   6
  -2  -3   1 5736.98 629.759   1
  -2  -3   0 1772.71 390.590   1
  -2  -3   0 1865.80 323.107   6
  -2  -3  -1 70831.8 2899.10   1
  -2  -3  -1 67461.9 2428.92   6
  -2  -3  -2 59987.7 2638.49   1
  -2  -3  -2 55991.6 2016.67   6
  -2  -3  -3 119509. 4118.09   5
  -2  -3  -3 112088. 3695.66   4
  -2  -3  -4 73353.8 2983.16   5
  -2  -3  -4 67383.1 2650.02   4
  -2  -3  -5 107248. 3891.69   4
  -2  -3  -5 115651. 4288.45   5
  -2  -3  -6 48884.7 2209.40   4
  -2  -3  -6 50343.6 2529.17   5
  -2  -3  -7 9019.20 855.887   4
  -2  -3  -7 9520.10 1035.15   5
  -2  -3  -8 84905.7 3618.94   4
  -2  -3  -8 97761.0 4208.23   5
  -2  -3  -9 72060.9 3345.23   4
  -2  -3  -9 80550.5 3893.98   5
  -2  -3 -10 146097. 6081.48   5
  -2  -3 -10 134730. 5420.50   4
  -2  -3 -11 28925.5 2352.65   5
  -2  -3 -11 24703.9 1909.26   4
  -2  -3 -12 8680.72 1351.03   5
  -2  -3 -12 7528.41 1069.77   4
  -2  -3 -13 5567.92 1133.79   5
  -2  -3 -14 12225.7 1782.16   5
  -2  -3 -15 4326.46 1205.23   5
   2   4 -14 10223.9 1788.13   5
   2   4 -13 27300.0 2754.64   5
   2   4 -12 1012.10 559.455   5
   2   4 -11 269.048 377.088   5
   2   4 -10 8457.13 1310.06   5
   2   4  -9 26655.4 2256.32   5
   2   4  -8 39068.7 2648.25   5
   2   4  -7 19069.5 1728.57   5
  -2  -4   7 18953.5 1705.03   6
   2   4  -6 1204.85 480.760   5
  -2  -4   6 988.011 436.769   6
   2   4  -5 259.936 289.545   5
  -2  -4   5-83.0108 309.440   6
  -2  -4   4 17769.5 1379.08   6
  -2  -4   4 16219.8 1227.28   1
  -2  -4   3 8324.73 823.762   1
  -2  -4   3 7603.18 818.689   6
  -2  -4   2 39637.6 2011.40   1
  -2  -4   2 42387.7 2069.97   6
  -2  -4   1 48353.8 2268.59   1
  -2  -4   1 49282.4 2199.59   6
  -2  -4   0 34488.5 1659.18   6
  -2  -4   0 32159.4 1810.63   1
  -2  -4  -1 4869.28 544.409   6
  -2  -4  -1 5594.10 695.367   1
  -2  -4  -2 127803. 4815.72   1
  -2  -4  -2 122491. 4149.14   6
  -2  -4  -3 68293.8 2455.39   6
  -2  -4  -3 59762.4 1959.51   3
  -2  -4  -4 310889. 9893.70   6
  -2  -4  -4 392487. 10969.1   5
  -2  -4  -5 70603.5 2739.87   4
  -2  -4  -5 69505.2 3250.47   5
  -2  -4  -6 109355. 3957.56   4
  -2  -4  -6 116004. 4664.62   5
  -2  -4  -7 49660.6 2244.91   4
  -2  -4  -7 51709.9 2845.75   5
  -2  -4  -8 45980.6 2233.91   4
  -2  -4  -8 50788.3 2922.32   5
  -2  -4  -9-37.9270 380.217   5
  -2  -4  -9 315.213 211.034   4
  -2  -4 -10 125657. 5764.28   5
  -2  -4 -11 15635.8 1773.93   5
  -2  -4 -12 27484.2 2516.23   5
  -2  -4 -13 4125.07 1006.95   5
  -2  -4 -14 4949.05 1111.70   5
   2   5 -14 6889.57 1415.59   5
   2   5 -13 34269.5 3135.23   5
   2   5 -12 8301.85 1511.41   5
   2   5 -11 2348.04 788.341   5
   2   5 -10 3050.06 832.441   5
   2   5  -9 335.154 361.461   5
   2   5  -8 1848.85 624.383   5
  -2  -5   8 2170.64 643.906   6
  -2  -5   7 30999.4 2285.95   6
   2   5  -7 28185.1 2226.47   5
   2   5  -6 20208.7 1783.60   5
  -2  -5   6 17620.1 1634.61   6
  -2  -5   5 1669.91 491.908   6
  -2  -5   4 2233.37 561.278   6
  -2  -5   4 2122.42 427.037   1
  -2  -5   3 23176.4 1505.58   1
  -2  -5   3 24019.2 1658.38   6
  -2  -5   2 38342.2 2034.45   1
  -2  -5   2 37887.4 2064.06   6
  -2  -5   1 157278. 5720.65   1
  -2  -5   1 168342. 5737.33   6
  -2  -5   0 117879. 4345.90   6
  -2  -5   0 115765. 4540.49   1
  -2  -5  -1 75032.6 3018.39   6
  -2  -5  -1 68233.1 3260.22   1
  -2  -5  -2 18423.7 1192.13   6
  -2  -5  -2 16554.1 1395.72   1
  -2  -5  -3 54053.3 2858.50   1
  -2  -5  -3 51360.7 1896.63   3
  -2  -5  -3 50399.1 2280.29   6
  -2  -5  -4 112396. 4593.80   5
  -2  -5  -4 98790.1 3753.32   6
  -2  -5  -5 81666.1 3768.89   5
  -2  -5  -5 71386.0 2943.58   6
  -2  -5  -6 111633. 4903.41   5
  -2  -5  -7 63775.3 3467.62   5
  -2  -5  -8 28324.9 2225.92   5
  -2  -5  -9 10745.2 1388.09   5
  -2  -5 -10 27656.4 2390.61   5
  -2  -5 -11 7167.74 1284.77   5
  -2  -5 -12 22045.4 2329.88   5
  -2  -5 -13 8834.32 1514.41   5
  -2  -5 -14 3215.08 1007.22   5
   2   6 -13 3014.58 995.027   5
   2   6 -12 12535.9 1932.16   5
   2   6 -11 6993.93 1402.67   5
   2   6 -10 4543.88 1039.47   5
  -2  -6   9 2378.56 764.713   6
   2   6  -9 2264.06 790.466   5
  -2  -6   8-230.928 348.301   6
   2   6  -8-996.284 528.935   5
   2   6  -7 8014.07 1253.78   5
  -2  -6   7 7283.59 1118.78   6
   2   6  -6 54113.9 3304.11   5
  -2  -6   6 47399.2 2949.96   6
  -2  -6   5 10487.7 1208.10   6
  -2  -6   5 10086.4 972.873   1
  -2  -6   4 77764.8 3374.27   1
  -2  -6   4 79406.7 3739.35   6
  -2  -6   3 6693.02 892.339   6
  -2  -6   3 4961.20 712.610   1
  -2  -6   2-59.1684 184.724   1
  -2  -6   2-81.1699 256.349   6
  -2  -6   1 75022.8 3340.16   1
  -2  -6   1 73495.3 3329.53   6
  -2  -6   0 141423. 5300.89   6
  -2  -6   0 142585. 5464.80   1
  -2  -6  -1 123134. 4669.59   6
  -2  -6  -1 121915. 4995.89   1
  -2  -6  -2 91687.6 3702.72   6
  -2  -6  -2 88006.2 4129.76   1
  -2  -6  -3 40804.3 2559.23   1
  -2  -6  -3 41716.7 2153.32   6
  -2  -6  -4 26984.5 1669.62   6
  -2  -6  -5 40131.0 2128.65   6
  -2  -6  -5 42547.8 2764.13   5
  -2  -6  -6 31826.5 1878.53   6
  -2  -6  -6 37864.0 2645.84   5
  -2  -6  -7 48791.0 2494.89   6
  -2  -6  -7 52933.4 3279.37   5
  -2  -6  -8 24706.0 2219.68   5
  -2  -6  -9 2056.17 628.256   5
  -2  -6 -10-68.8791 515.183   5
  -2  -6 -11 10503.7 1605.00   5
  -2  -6 -12 3631.32 989.784   5
  -2  -6 -13 11296.2 1770.22   5
   2   7 -12 1419.58 923.580   5
   2   7 -11 4970.17 1442.39   5
   2   7 -10 26778.9 2651.11   5
  -2  -7  10 23082.5 2399.84   6
   2   7  -9 1408.02 680.496   5
  -2  -7   9 1126.30 591.379   6
   2   7  -8 632.820 482.703   5
  -2  -7   8-516.197 486.809   6
   2   7  -7 505.385 511.047   5
  -2  -7   7-234.813 434.633   6
  -2  -7   6 23429.6 2019.25   6
  -2  -7   5 16609.0 1637.03   6
  -2  -7   4 114699. 4552.39   1
  -2  -7   4 115132. 5034.26   6
  -2  -7   3 53162.0 2704.30   1
  -2  -7   3 52953.7 2961.62   6
  -2  -7   2 58172.1 2923.38   1
  -2  -7   2 60449.6 3125.78   6
  -2  -7   1 7157.76 925.740   1
  -2  -7   1 6868.30 938.316   6
  -2  -7   0 23368.3 1792.58   1
  -2  -7   0 25508.4 1827.99   6
  -2  -7  -1 68993.9 3342.84   6
  -2  -7  -1 72528.5 3592.21   1
  -2  -7  -2 96110.1 4113.90   6
  -2  -7  -2 99677.0 4583.48   1
  -2  -7  -3 47259.2 2518.91   6
  -2  -7  -3 46306.2 2947.88   1
  -2  -7  -4 11532.7 1445.36   1
  -2  -7  -4 10721.0 1090.23   6
  -2  -7  -5 6078.72 820.461   6
  -2  -7  -6 13873.2 1262.05   6
  -2  -7  -6 12324.7 1569.58   5
  -2  -7  -7 8713.42 1368.93   5
  -2  -7  -7 8578.62 1025.69   6
  -2  -7  -8 22420.5 1721.01   6
  -2  -7  -8 28430.2 2549.82   5
  -2  -7  -9 28555.4 2690.85   5
  -2  -7 -10 3050.91 867.062   5
  -2  -7 -11 250.629 486.242   5
  -2  -8  10 4953.09 1136.95   6
   2   8 -10 4467.90 1137.24   5
  -2  -8   9 21497.7 2294.55   6
   2   8  -9 19832.9 2290.06   5
  -2  -8   8 20197.3 2150.27   6
   2   8  -8 19115.7 2232.28   5
  -2  -8   7 12190.7 1586.86   6
   2   8  -7 10158.4 1567.40   5
  -2  -8   6 5963.87 1070.14   6
  -2  -8   5 13418.5 1560.76   6
  -2  -8   4 27610.0 2194.27   6
  -2  -8   3 67690.0 3625.64   6
  -2  -8   2 40047.7 2439.44   1
  -2  -8   2 44068.8 2727.68   6
  -2  -8   1 49888.2 2838.46   1
  -2  -8   1 49738.7 2915.74   6
  -2  -8   0 14513.6 1457.47   6
  -2  -8   0 15101.9 1509.24   1
  -2  -8  -1 4060.52 761.332   1
  -2  -8  -1 4361.88 788.785   6
  -2  -8  -2 17894.4 1586.55   6
  -2  -8  -2 15533.2 1664.79   1
  -2  -8  -3 88025.9 4025.65   6
  -2  -8  -3 82698.0 4449.45   1
  -2  -8  -4 5721.32 1051.67   1
  -2  -8  -4 7555.09 994.327   6
  -2  -8  -5 15502.1 1477.01   6
  -2  -8  -5 17204.2 1924.51   1
  -2  -8  -6 809.641 582.594   1
  -2  -8  -6 1477.84 518.455   6
  -2  -8  -7 216.722 276.780   6
  -2  -8  -8 2396.17 833.298   5
  -2  -8  -9 10889.2 1717.09   5
  -2  -8 -10 9254.73 1676.50   5
   2   9  -9 10723.0 1643.98   4
   2   9  -8 25636.9 2681.17   5
  -2  -9   8 19633.1 2219.96   6
   2   9  -7 21875.2 2433.73   5
  -2  -9   7 21782.8 2237.88   6
  -2  -9   6 23010.7 2230.67   6
  -2  -9   5 18277.5 1942.79   6
  -2  -9   4 8739.96 1282.24   6
  -2  -9   3 26082.6 2218.69   6
  -2  -9   2 19030.5 1848.38   6
  -2  -9   1 56048.8 3335.39   6
  -2  -9   0 9620.79 1256.20   1
  -2  -9   0 10594.0 1349.92   6
  -2  -9  -1 4901.30 887.729   6
  -2  -9  -1 5055.63 973.025   1
  -2  -9  -2 465.807 394.202   1
  -2  -9  -2 238.584 341.246   6
  -2  -9  -3 4304.71 1016.37   1
  -2  -9  -3 5666.18 951.301   6
  -2  -9  -4 1256.35 610.799   1
  -2  -9  -4 1350.06 585.500   6
  -2  -9  -5 29889.2 2251.01   6
  -2  -9  -5 31518.9 2799.88   1
  -2  -9  -6 5750.44 955.875   6
  -2  -9  -6 5649.50 1217.31   1
  -2  -9  -7 3341.63 885.803   1
  -2  -9  -8 312.905 562.679   1
  -2 -10   5 10934.6 1560.11   6
  -2 -10   4 10034.3 1478.15   6
  -2 -10   3 2441.62 779.018   6
  -2 -10   2 3918.21 882.170   6
  -2 -10   1 13062.7 1579.09   6
  -2 -10   0 20453.5 1998.19   6
  -2 -10  -1 9616.17 1369.82   6
  -2 -10  -2 1269.94 510.906   6
  -2 -10  -3 485.997 422.950   1
  -2 -10  -3 858.226 479.624   6
  -2 -10  -4 2050.69 731.589   1
  -2 -10  -4 300.060 339.435   6
  -2 -10  -5 794.756 546.186   1
  -2 -10  -5 56.4234 347.085   6
  -2 -10  -6 6935.22 1402.30   1
  -2 -11   0 1389.10 676.862   6
  -2 -11  -1 6026.29 1124.26   6
  -2 -11  -2 2628.73 900.257   6
  -2 -11  -3 812.281 610.289   6
  -2 -11  -4 2128.31 754.955   6
   3  -8  -1 5235.91 1211.21   6
   3  -8   0 21216.0 2334.20   6
   3  -8   1 10688.8 1624.41   6
   3  -8   2 14017.4 1869.09   6
   3  -8   3 2910.08 897.192   6
   3  -7  -7 8898.46 1748.71   5
   3  -7  -6 11584.6 1995.71   5
   3  -7  -6 13480.0 1898.71   6
   3  -7  -5 38305.0 3207.88   6
   3  -7  -5 34204.6 3475.60   5
   3  -7  -4 37273.8 3112.33   6
   3  -7  -3 15446.6 1925.08   6
   3  -7  -2 4767.38 1075.47   6
   3  -7  -1 3681.32 919.192   6
   3  -7   0 8535.68 1387.60   6
   3  -7   1 685.008 408.811   6
   3  -7   2 9947.20 1451.28   6
   3  -7   3 8037.91 1353.10   6
   3  -7   4-161.952 433.723   6
   3  -7   5-141.118 343.945   6
   3  -7   6 507.634 487.175   6
   3  -7   7 2531.07 713.557   6
   3  -7   8 9382.73 1458.09   6
  -3   7  -8 6934.22 1385.14   4
  -3   7  -9 6500.43 1363.53   4
   3  -6  -9 14372.1 2098.43   5
   3  -6  -8 41572.4 3534.68   5
   3  -6  -7 4178.44 1189.82   5
   3  -6  -6 1420.87 725.289   5
   3  -6  -5 21995.6 2438.94   5
   3  -6  -4 20794.4 2162.00   6
   3  -6  -4 23825.5 2442.19   5
   3  -6  -3 22025.4 2156.26   6
   3  -6  -3 19161.7 2094.16   5
   3  -6  -2 19164.4 1956.56   6
   3  -6  -1 2380.76 704.563   6
   3  -6   0-1138.03 547.602   6
   3  -6   1 1895.54 580.550   6
   3  -6   2 6343.55 1096.36   6
   3  -6   3 19342.0 1883.99   6
   3  -6   4 6312.39 1102.84   6
  -3   6  -4 6540.03 1104.93   4
   3  -6   5 1175.21 523.668   6
  -3   6  -5 1.07670 338.109   4
   3  -6   6 321.864 338.314   6
  -3   6  -6-76.2787 293.665   4
   3  -6   7 2510.25 755.141   6
  -3   6  -7 2551.12 800.501   4
   3  -6   8 951.273 465.846   6
  -3   6  -8 649.789 488.166   4
   3  -6   9 24957.1 2347.05   6
  -3   6  -9 23590.5 2538.19   4
   3  -6  10 12614.7 1689.85   6
  -3   6 -10 17069.6 2189.12   4
   3  -6  11 13145.2 1787.06   6
   3  -5 -10 3967.98 1093.21   5
   3  -5  -9 8878.27 1570.70   5
   3  -5  -8 62576.7 4213.50   5
   3  -5  -7 28361.0 2609.05   5
  -3   5   7 26292.9 2134.08   3
  -3   5   6 11347.7 1327.50   3
   3  -5  -6 9762.82 1526.47   5
   3  -5  -5-193.248 443.566   5
  -3   5   5 323.439 371.542   3
   3  -5  -4 5434.94 1046.74   5
  -3   5   4 4096.53 808.258   3
  -3   5   3 18718.1 1715.41   3
   3  -5  -3 22533.4 2081.47   5
   3  -5  -2 18617.5 1808.52   6
   3  -5  -2 16912.7 1774.01   5
   3  -5  -1 11371.7 1369.14   6
   3  -5   0 3631.67 790.662   6
   3  -5   1 2977.94 690.082   6
  -3   5  -2 145.026 216.608   4
   3  -5   2-264.330 403.023   6
  -3   5  -3 2473.83 606.575   4
   3  -5   3 2797.34 687.869   6
   3  -5   4 33539.4 2419.49   6
  -3   5  -4 36417.0 2537.64   4
   3  -5   5 31745.8 2315.20   6
  -3   5  -5 27465.4 2301.07   4
   3  -5   6 14138.5 1554.06   6
  -3   5  -6 15467.1 1748.87   4
   3  -5   7 6566.70 1056.28   6
  -3   5  -7 5058.53 1023.27   4
   3  -5   8 13194.3 1509.10   6
  -3   5  -8 11410.7 1612.36   4
   3  -5   9 22629.9 2102.92   6
  -3   5  -9 23180.8 2416.36   4
   3  -5  10 16426.2 1816.28   6
  -3   5 -10 14620.0 1971.39   4
   3  -5  11 31174.5 2645.66   6
  -3   5 -11 27910.9 2858.00   4
   3  -4 -11 15521.4 2050.58   5
   3  -4 -10 11128.2 1695.04   5
   3  -4  -9 3418.23 941.744   5
  -3   4   9 4735.66 867.198   3
  -3   4   8 3269.74 743.914   3
   3  -4  -8 5030.47 1103.58   5
   3  -4  -7 42078.7 3106.11   5
  -3   4   7 39707.1 2632.86   3
  -3   4   6 16773.1 1567.75   3
   3  -4  -6 13951.1 1714.28   5
  -3   4   5 12625.4 1343.32   3
   3  -4  -5 11230.8 1473.74   5
   3  -4  -4 722.803 383.747   5
  -3   4   4 310.155 313.504   3
  -3   4   3 4406.27 778.952   3
   3  -4  -3 3032.92 695.254   5
   3  -4  -2 2928.61 730.280   5
  -3   4   2 4033.03 736.040   3
  -3   4   1 66187.5 3316.94   3
  -3   4   1 68434.8 2805.39   4
   3  -4  -1 60266.0 3202.31   5
  -3   4   0 3207.43 571.950   4
   3  -4   0 4833.79 821.976   6
  -3   4  -1 53997.9 2697.55   4
   3  -4   1 55191.5 2969.54   6
   3  -4   2 9038.87 1092.10   6
  -3   4  -2 9674.36 1055.96   4
   3  -4   3 2037.02 542.043   6
  -3   4  -3 1328.78 467.891   4
   3  -4   4 18744.8 1582.89   6
  -3   4  -4 16132.3 1557.24   4
   3  -4   5 66712.8 3401.53   6
  -3   4  -5 65615.6 3612.04   4
   3  -4   6 65692.6 3422.09   6
  -3   4  -6 67745.7 3805.20   4
   3  -4   7 36733.7 2412.68   6
  -3   4  -7 34422.5 2703.47   4
  -3   4  -8 11644.5 1577.96   4
   3  -4   8 12886.1 1394.14   6
   3  -4   9 14381.7 1544.12   6
  -3   4  -9 13045.6 1746.62   4
  -3   4 -10 25413.6 2548.57   4
   3  -4  10 24116.7 2102.31   6
   3  -4  11 25931.9 2294.14   6
  -3   4 -11 26952.6 2704.88   4
  -3   4 -12 38382.3 3382.81   4
   3  -3 -12 16879.7 2118.29   5
   3  -3 -11 12947.8 1783.61   5
   3  -3 -10 10388.0 1565.87   5
  -3   3  10 15881.1 1686.23   3
   3  -3  -9 3844.13 926.152   5
  -3   3   9 3787.37 847.930   3
   3  -3  -8 303.665 327.734   5
  -3   3   8 1483.88 522.234   3
   3  -3  -7 9274.24 1287.23   5
  -3   3   7 8277.88 1114.72   3
   3  -3  -6 4025.51 847.598   5
  -3   3   6 3755.62 726.231   3
  -3   3   5 84419.9 3910.85   3
   3  -3  -5 79664.9 4017.80   5
   3  -3  -4 3597.20 746.174   5
  -3   3   4 4828.35 772.565   3
   3  -3  -3 892.555 400.267   5
  -3   3   3 1815.29 473.615   3
   3  -3  -2 282.769 240.014   5
  -3   3   2 28.8849 232.122   3
  -3   3   1 2714.06 589.289   3
  -3   3   1 3713.18 520.679   4
   3  -3  -1 2892.47 559.029   5
  -3   3   0 7409.84 954.865   3
   3  -3   0 8496.66 908.848   5
  -3   3   0 6362.19 765.515   4
   3  -3   1 174032. 6169.10   6
  -3   3  -1 164625. 5941.31   4
  -3   3  -2 32129.8 1954.21   4
   3  -3   2 30328.1 1895.95   6
   3  -3   3 61318.3 2936.13   6
  -3   3  -3 63839.3 3136.51   4
   3  -3   4 10786.7 1084.28   6
  -3   3  -4 11904.0 1247.70   4
  -3   3  -5 32493.6 2242.37   4
   3  -3   5 29104.2 1926.88   6
   3  -3   6 80623.8 3680.25   6
  -3   3  -6 83729.6 4185.65   4
   3  -3   7 147694. 5758.49   6
  -3   3  -7 152720. 6487.94   4
  -3   3  -8 78760.9 4381.00   4
   3  -3   8 79471.3 3780.68   6
  -3   3  -9 29957.6 2603.04   4
   3  -3   9 28611.0 2080.79   6
   3  -3  10 2355.72 612.765   6
  -3   3 -10 2157.03 782.263   4
   3  -3  11 7434.18 1111.56   6
  -3   3 -11 7692.76 1400.88   4
  -3   3 -12 7655.94 1452.12   4
  -3   3 -13 19761.4 2407.00   4
   3  -2 -11 2644.69 890.485   5
   3  -2 -10 24180.9 2300.77   5
   3  -2  -9 6784.02 1168.41   5
   3  -2  -8 889.120 471.067   5
   3  -2  -7 1847.14 595.407   5
   3  -2  -6 1663.88 541.268   5
  -3   2   6 1684.29 493.253   3
  -3   2   5 7865.21 1012.92   3
   3  -2  -5 7973.83 1035.88   5
  -3   2   4 37349.9 2221.79   3
   3  -2  -4 34477.5 2168.03   5
  -3   2   3 47815.8 2520.10   3
   3  -2  -3 46372.5 2440.62   5
  -3   2   2 39458.2 2163.22   3
   3  -2  -2 36956.9 1996.92   5
  -3   2   1 28224.3 1748.92   3
   3  -2  -1 25369.1 1495.78   5
  -3   2   1 28809.8 1534.54   4
   3  -2   0 25017.8 1357.34   5
  -3   2   0 26152.4 1676.45   3
  -3   2   0 29434.9 1604.68   4
  -3   2  -1 29490.7 1776.39   3
  -3   2  -1 30308.9 1680.27   4
  -3   2  -2 333228. 9661.48   4
   3  -2   2 327492. 9440.69   6
   3  -2   3 146510. 4140.95   6
  -3   2  -3 147285. 4519.50   4
  -3   2  -4 85650.4 3214.98   4
   3  -2   4 82225.2 2765.79   6
   3  -2   5 40536.2 1968.64   6
  -3   2  -5 37034.7 2265.45   4
   3  -2   6 15717.3 1228.45   6
  -3   2  -6 13609.7 809.960   5
   3  -2   7 27226.4 1752.57   6
  -3   2  -7 28194.3 2214.17   4
   3  -2   8 136067. 5358.08   6
  -3   2  -8 152911. 6420.44   4
  -3   2  -9 43777.7 3139.41   4
   3  -2   9 43255.3 2524.47   6
   3  -2  10 41471.9 2547.59   6
  -3   2 -10 42516.4 3210.13   4
  -3   2 -11 7195.12 1324.45   4
  -3   2 -12 710.592 460.728   4
  -3   2 -13 3045.62 979.676   4
  -3   2 -14 13455.2 2036.54   4
   3  -1 -13 141.986 367.486   5
   3  -1 -12 858.095 453.102   5
   3  -1 -11 330.143 450.439   5
   3  -1 -10 9925.37 1437.12   5
   3  -1  -9 13655.4 1596.21   5
   3  -1  -8 24849.5 2096.62   5
   3  -1  -7 7269.97 1073.68   5
   3  -1  -6 290.865 345.733   5
   3  -1  -5 12286.2 1238.09   5
   3  -1  -4 57576.0 2839.70   5
  -3   1   3 69106.4 3157.26   3
  -3   1   3 67081.3 2908.43   2
   3  -1  -3 74742.9 3148.00   5
  -3   1   2 77896.4 3320.47   3
   3  -1  -2 76992.7 3129.44   5
  -3   1   2 75698.4 3132.66   2
  -3   1   1 86684.9 3452.41   3
   3  -1  -1 78458.2 3104.03   5
  -3   1   1 88280.8 3390.69   2
  -3   1   0 99177.5 3661.66   3
  -3   1   0 94176.3 3502.84   4
  -3   1   0 94916.4 3620.10   2
  -3   1  -1 43073.5 2069.49   3
  -3   1  -1 44291.9 2107.52   2
  -3   1  -1 39886.9 1980.12   4
  -3   1  -2 174759. 5926.72   3
  -3   1  -2 168987. 5928.14   4
  -3   1  -2 181366. 5929.00   2
   3  -1   2 167739. 5624.22   6
  -3   1  -3 49165.8 2449.49   4
   3  -1   3 48372.5 2133.26   6
  -3   1  -3 53006.9 2372.88   2
   3  -1   4 566593. 16949.4   6
  -3   1  -4 611727. 17233.0   2
  -3   1  -4 586816. 17585.5   4
  -3   1  -4 572169. 16514.8   1
  -3   1  -5 94817.0 3127.12   1
   3  -1   5 94276.4 3540.43   6
  -3   1  -5 95355.8 4127.59   4
  -3   1  -6 30022.6 1323.73   1
   3  -1   6 30973.2 1624.77   6
  -3   1  -6 32687.0 2146.84   4
  -3   1  -7 10513.6 795.303   1
   3  -1   7 11029.4 949.865   6
  -3   1  -7 11329.8 1326.00   4
  -3   1  -7 10592.2 798.716   5
  -3   1  -8 47932.9 2993.14   4
   3  -1   8 45433.6 2290.81   6
  -3   1  -8 39668.6 2038.00   5
   3  -1   9 1425.63 373.966   6
  -3   1  -9 912.485 414.788   4
  -3   1 -10 63339.9 3948.77   4
  -3   1 -11 15389.4 1907.93   4
  -3   1 -12 2020.70 709.699   4
  -3   1 -13 1528.95 633.573   4
  -3   1 -14 588.471 533.063   4
   3   0 -13 10906.0 1698.09   5
   3   0 -12 654.066 565.601   5
   3   0 -11 184.847 395.711   5
   3   0 -10-412.208 404.921   5
   3   0  -9 24962.5 2133.75   5
   3   0  -8 8059.70 1139.63   5
   3   0  -7 47995.6 2812.75   5
  -3   0   6 33177.6 1645.36   2
   3   0  -6 29496.1 2052.18   5
  -3   0   5 12974.5 954.306   2
   3   0  -5 14577.1 1282.65   5
   3   0  -4 2283.60 485.461   5
  -3   0   4 1517.30 309.724   2
  -3   0   3 438236. 13141.4   2
   3   0  -3 445687. 13371.3   5
  -3   0   2 134782. 4784.44   2
   3   0  -2 146422. 4821.87   5
  -3   0   1 327395. 9875.64   3
  -3   0   1 301498. 9644.65   2
   3   0  -1 321599. 9496.31   5
  -3   0   0 204511. 6597.67   3
  -3   0   0 200473. 6563.70   4
  -3   0   0 197212. 6508.01   2
   3   0   0 205234. 6137.68   5
  -3   0  -1 177729. 5703.41   3
  -3   0  -1 169699. 5758.46   4
  -3   0  -1 181902. 5737.98   2
  -3   0  -1 188617. 5696.56   1
   3   0   1 162730. 5071.96   5
  -3   0  -2 75562.6 2761.81   1
  -3   0  -2 72574.1 2856.24   3
  -3   0  -2 69975.9 2961.19   4
  -3   0  -2 73501.1 2882.75   2
   3   0   3 62147.1 2274.38   6
  -3   0  -3 63772.5 2591.23   2
  -3   0  -3 61124.3 2408.48   1
  -3   0  -3 63806.5 2781.14   4
   3   0   4 81471.1 2444.19   6
   3   0   4 77622.8 1941.35   5
  -3   0  -4 85703.6 2644.04   1
  -3   0  -4 84574.6 3155.94   4
  -3   0  -4 81510.8 2755.70   2
   3   0   5 138065. 3912.78   5
  -3   0  -5 135911. 4392.89   1
  -3   0  -5 139677. 4965.04   4
  -3   0  -5 136096. 4412.13   2
   3   0   5 131116. 4117.67   6
  -3   0  -6 89528.7 3840.99   4
   3   0   6 84604.2 3021.64   6
  -3   0  -6 90424.5 3336.07   1
  -3   0  -6 86136.7 3183.76   2
   3   0   7 11596.0 873.394   6
  -3   0  -7 11044.9 866.756   5
  -3   0  -7 11295.3 863.791   2
  -3   0  -7 11783.2 1266.00   4
  -3   0  -7 13300.1 1077.81   1
  -3   0  -8 2168.98 444.108   5
  -3   0  -8 1612.44 501.420   1
  -3   0  -8 2397.90 620.730   4
  -3   0  -9 7316.52 1123.11   4
  -3   0  -9 5976.85 845.675   1
  -3   0 -10 4136.32 706.443   5
  -3   0 -10 4790.72 972.342   4
  -3   0 -11 22366.3 2240.58   4
  -3   0 -12 13369.5 1772.31   4
  -3   0 -13 5732.94 1248.58   4
  -3   0 -14 398.093 367.479   4
  -3   0 -15-8.71298 390.378   4
   3   1 -14 2156.30 840.700   5
   3   1 -13 7130.46 1396.01   5
   3   1 -12 23427.9 2432.26   5
   3   1 -11 1487.99 633.791   5
   3   1 -10 1468.35 630.767   5
   3   1  -9 7294.16 1165.14   5
  -3  -1   8 10855.9 757.978   2
   3   1  -8 10537.7 1253.88   5
  -3  -1   7 120378. 4079.33   2
   3   1  -7 120128. 4996.24   5
  -3  -1   6 165875. 5462.18   2
   3   1  -6 174251. 6266.56   5
   3   1  -5 47203.1 2451.88   5
   3   1  -4 56370.3 2608.81   5
   3   1  -3 65658.9 2753.12   5
   3   1  -2 41986.5 1892.39   5
   3   1  -1 429256. 12562.2   5
  -3  -1   0 316929. 9596.80   1
   3   1   0 302804. 9038.75   5
  -3  -1  -1 251389. 7766.08   1
  -3  -1  -1 239531. 7506.26   3
  -3  -1  -1 241055. 7737.64   4
  -3  -1  -2 97419.9 3380.67   3
  -3  -1  -2 99564.1 3595.13   1
   3   1   2 91528.1 3102.52   5
  -3  -1  -2 105247. 3695.23   4
  -3  -1  -3 30429.3 1420.04   3
   3   1   3 27219.4 1155.55   5
   3   1   3 29918.3 1064.61   6
  -3  -1  -3 30431.5 1590.61   1
  -3  -1  -3 28547.2 1610.17   4
   3   1   4 48406.0 1582.53   6
  -3  -1  -4 44536.6 2262.28   4
  -3  -1  -4 44318.5 1823.94   5
  -3  -1  -5 73360.1 2717.04   5
  -3  -1  -5 77032.5 3305.40   4
  -3  -1  -5 78881.7 3228.02   1
  -3  -1  -6 40482.1 2194.68   4
  -3  -1  -6 42787.1 1821.78   5
  -3  -1  -6 39710.7 2100.41   1
  -3  -1  -7 38308.9 2176.41   1
  -3  -1  -7 38004.7 2322.68   4
  -3  -1  -7 38019.8 1907.18   5
  -3  -1  -7 37717.2 1722.68   2
  -3  -1  -8 3900.18 450.694   2
  -3  -1  -8 3260.33 547.937   5
  -3  -1  -8 3599.93 708.635   4
  -3  -1  -8 3525.80 691.669   1
  -3  -1  -9-41.2829 198.018   5
  -3  -1  -9 195.383 319.459   4
  -3  -1 -10 716.369 282.885   5
  -3  -1 -10 1271.70 528.445   4
  -3  -1 -11 13929.3 1678.62   4
  -3  -1 -11 14099.5 1457.43   5
  -3  -1 -12 855.344 433.642   5
  -3  -1 -12 727.098 470.293   4
  -3  -1 -13 30256.2 2796.79   4
  -3  -1 -14 9815.87 1641.63   4
  -3  -1 -15 4854.05 1212.41   4
   3   2 -14-295.425 436.597   5
   3   2 -13 2536.87 879.558   5
   3   2 -12 17805.9 2110.26   5
   3   2 -11 17218.5 1957.92   5
   3   2 -10 40044.4 2885.60   5
   3   2  -9 10726.9 1302.06   5
   3   2  -8 3045.44 698.799   5
   3   2  -7 15412.4 1451.59   5
   3   2  -6 182720. 6726.04   5
   3   2  -5 282115. 9304.58   5
   3   2  -4 216335. 7264.15   5
   3   2  -3 80276.4 3211.73   5
   3   2  -2 143113. 5028.53   5
  -3  -2   2 153542. 5344.05   1
  -3  -2   1 19711.6 1349.21   1
  -3  -2   0 253680. 8176.06   1
  -3  -2  -1 181357. 6215.52   1
   3   2   1 187572. 5587.20   6
  -3  -2  -2 113701. 3785.26   3
   3   2   2 117293. 3458.54   6
  -3  -2  -2 122305. 4267.99   4
  -3  -2  -2 123813. 4379.47   1
  -3  -2  -3 13009.1 727.697   3
  -3  -2  -3 13973.5 1038.47   4
  -3  -2  -3 13940.8 1107.15   1
  -3  -2  -4 1567.34 323.999   5
  -3  -2  -4 1870.10 441.761   1
  -3  -2  -4 1142.26 326.723   4
  -3  -2  -5 23106.5 1497.65   4
  -3  -2  -5 23975.5 1369.98   5
  -3  -2  -5 25814.4 1695.21   1
  -3  -2  -6 106495. 3834.57   4
  -3  -2  -6 109006. 3580.50   5
  -3  -2  -6 103043. 3985.40   1
  -3  -2  -7 12550.2 1100.74   5
  -3  -2  -7 14053.8 1253.80   4
  -3  -2  -8 26326.1 1888.49   4
  -3  -2  -8 29088.7 1870.42   5
  -3  -2  -9 12582.2 1339.02   4
  -3  -2  -9 13618.4 1331.34   5
  -3  -2 -10 6024.07 941.520   5
  -3  -2 -10 6251.70 990.912   4
  -3  -2 -11 391.150 257.298   5
  -3  -2 -11 690.886 360.998   4
  -3  -2 -12 1735.95 599.595   5
  -3  -2 -12 2965.65 813.311   4
  -3  -2 -13 17486.7 1992.56   4
  -3  -2 -13 20253.0 2101.67   5
  -3  -2 -14 16132.8 1971.56   4
  -3  -2 -15 12424.2 1866.17   4
   3   3 -14 893.792 482.029   5
   3   3 -13 709.083 572.626   5
   3   3 -12 6446.51 1298.84   5
   3   3 -11 26882.9 2474.57   5
   3   3 -10 48215.4 3266.34   5
   3   3  -9 99062.8 4905.47   5
   3   3  -8 76200.5 3984.80   5
   3   3  -7 30189.8 2159.38   5
   3   3  -6 14428.7 1377.02   5
   3   3  -5 102432. 4291.60   5
   3   3  -4 172814. 6201.27   5
   3   3  -3 408388. 12395.7   5
  -3  -3   3 387428. 12443.8   1
  -3  -3   2 1857.43 425.235   1
  -3  -3   1 15164.4 1180.24   1
  -3  -3   1 14427.7 1011.99   6
  -3  -3   0 86559.7 3109.01   6
  -3  -3   0 84369.4 3491.00   1
  -3  -3  -1 533.049 251.370   1
  -3  -3  -1 582.256 187.040   6
  -3  -3  -2 94002.4 3894.24   1
   3   3   2 90766.3 2948.61   6
  -3  -3  -2 93904.6 2951.45   6
  -3  -3  -3 292076. 8329.67   3
  -3  -3  -3 284631. 8290.82   6
  -3  -3  -3 307745. 9210.68   4
  -3  -3  -3 307864. 9592.69   1
  -3  -3  -4 4263.42 582.326   5
  -3  -3  -4 5354.11 742.236   1
  -3  -3  -4 4360.37 557.922   4
  -3  -3  -4 3870.16 247.331   6
  -3  -3  -5 11291.9 1173.54   1
  -3  -3  -5 12325.9 548.663   6
  -3  -3  -5 12291.8 1009.08   4
  -3  -3  -5 13172.5 1085.04   5
  -3  -3  -6 1705.47 517.165   1
  -3  -3  -6 1722.67 405.706   4
  -3  -3  -6 1519.71 402.961   5
  -3  -3  -7 451.370 294.881   5
  -3  -3  -7 14.4407 207.005   4
  -3  -3  -8 44553.9 2497.60   4
  -3  -3  -8 49103.4 2667.52   5
  -3  -3  -9 21814.1 1727.87   4
  -3  -3  -9 24510.3 1896.16   5
  -3  -3 -10 16248.6 1547.24   4
  -3  -3 -10 19267.1 1744.61   5
  -3  -3 -11 15110.3 1633.48   5
  -3  -3 -11 11057.0 1326.56   4
  -3  -3 -12 8337.91 1287.25   5
  -3  -3 -12 6920.81 1110.14   4
  -3  -3 -13 10684.9 1573.81   5
  -3  -3 -13 9878.44 1382.85   4
  -3  -3 -14 26111.3 2602.61   5
   3   4 -14 31232.5 3317.78   5
   3   4 -13 5643.16 1303.53   5
   3   4 -12 8627.24 1470.15   5
   3   4 -11 10623.3 1578.99   5
   3   4 -10 37666.1 2961.87   5
   3   4  -9 39199.9 2892.83   5
   3   4  -8 103120. 4970.80   5
   3   4  -7 82130.8 4129.62   5
   3   4  -6 35521.1 2370.19   5
   3   4  -5 15680.2 1467.67   5
  -3  -4   4 20271.7 1541.09   6
   3   4  -4 17377.6 1509.10   5
  -3  -4   4 20273.6 1542.82   1
  -3  -4   3 165941. 6084.82   1
  -3  -4   3 173784. 6080.90   6
  -3  -4   2 94599.8 3931.98   1
  -3  -4   2 99799.7 3844.45   6
  -3  -4   1 97112.5 3947.53   1
  -3  -4   1 97325.6 3651.67   6
  -3  -4   0 2040.39 471.744   1
  -3  -4   0 1758.18 347.862   6
  -3  -4  -1 3874.89 453.059   6
  -3  -4  -1 4923.63 692.156   1
  -3  -4  -2 4761.54 712.571   1
  -3  -4  -2 4079.47 430.811   6
  -3  -4  -3 23021.1 1151.20   6
  -3  -4  -3 28532.7 1896.86   1
  -3  -4  -4 91304.1 3417.02   4
  -3  -4  -4 94112.8 3732.60   5
  -3  -4  -4 86823.3 3900.26   1
  -3  -4  -5 67176.1 3440.02   1
  -3  -4  -5 68294.4 2935.11   4
  -3  -4  -5 68665.5 2416.71   6
  -3  -4  -5 72464.2 3300.34   5
  -3  -4  -6 1326.97 480.659   5
  -3  -4  -6 1320.89 216.523   6
  -3  -4  -6 922.185 281.324   4
  -3  -4  -7 4317.24 738.791   5
  -3  -4  -7 4100.24 601.518   4
  -3  -4  -8 3482.42 712.355   5
  -3  -4  -8 2935.90 530.284   4
  -3  -4  -9 58188.6 2952.56   4
  -3  -4  -9 63218.9 3424.44   5
  -3  -4 -10 48432.4 2733.97   4
  -3  -4 -10 54451.0 3269.70   5
  -3  -4 -11 22155.5 1797.71   4
  -3  -4 -11 26115.8 2290.28   5
  -3  -4 -12 18801.3 2022.96   5
  -3  -4 -13 12798.0 1751.65   5
  -3  -4 -14 1833.43 691.522   5
  -3  -4 -15 20597.4 2475.58   5
   3   5 -13 12125.6 1895.51   5
   3   5 -12 30269.5 2950.31   5
   3   5 -11 15324.3 2018.55   5
   3   5 -10 27274.2 2585.26   5
   3   5  -9 9869.59 1450.50   5
   3   5  -8 86175.3 4614.40   5
   3   5  -7 41923.6 2865.74   5
   3   5  -6 56815.0 3388.90   5
  -3  -5   6 59956.5 3291.47   6
   3   5  -5 6064.80 980.663   5
  -3  -5   5 7858.00 1025.61   6
  -3  -5   4 1598.24 452.747   1
  -3  -5   4 2268.45 553.840   6
  -3  -5   3 424.354 303.760   1
  -3  -5   3 76.9933 218.811   6
  -3  -5   2 17270.3 1381.26   1
  -3  -5   2 14837.4 1206.55   6
  -3  -5   1 29240.3 1855.36   1
  -3  -5   1 29291.7 1700.25   6
  -3  -5   0 73216.6 3326.54   1
  -3  -5   0 71573.6 2973.56   6
  -3  -5  -1 13074.6 1257.38   1
  -3  -5  -1 13362.6 1011.13   6
  -3  -5  -2 785.327 406.177   1
  -3  -5  -2 835.765 253.946   6
  -3  -5  -3 36.9185 59.2629   3
  -3  -5  -3-4.20006 287.007   1
  -3  -5  -3-16.4542 151.031   6
  -3  -5  -4 31225.8 1530.26   6
  -3  -5  -4 32300.9 2246.03   1
  -3  -5  -5 18920.8 1726.53   1
  -3  -5  -5 17258.3 1056.58   6
  -3  -5  -5 18142.3 1573.98   5
  -3  -5  -6 120468. 5403.33   1
  -3  -5  -6 115106. 4062.79   6
  -3  -5  -6 124940. 5193.15   5
  -3  -5  -7 17760.1 1266.97   4
  -3  -5  -7 15840.2 1048.90   6
  -3  -5  -7 17027.7 1624.05   5
  -3  -5  -8 2506.76 639.780   5
  -3  -5  -8 2789.49 499.426   4
  -3  -5  -9 23199.0 2075.75   5
  -3  -5 -10 22999.4 2145.43   5
  -3  -5 -11 39786.6 3013.32   5
  -3  -5 -12 68168.6 4315.56   5
  -3  -5 -13 17635.7 2161.02   5
  -3  -5 -14 3971.07 1062.42   5
   3   6 -13 23279.3 2778.23   5
   3   6 -12 21149.1 2566.16   5
   3   6 -11 19196.2 2360.25   5
   3   6 -10 9602.72 1594.97   5
   3   6  -9 6272.19 1226.59   5
   3   6  -8 3435.39 900.138   5
  -3  -6   7 32249.1 2499.14   6
   3   6  -7 29982.8 2541.77   5
   3   6  -6 24890.5 2203.46   5
  -3  -6   6 24779.0 2073.60   6
  -3  -6   5 43550.7 2724.57   6
  -3  -6   5 40740.6 2418.41   1
  -3  -6   4 1131.68 409.705   1
  -3  -6   4 1079.49 487.259   6
  -3  -6   3-5.60742 271.678   6
  -3  -6   3 228.587 250.825   1
  -3  -6   2 50.8683 240.287   6
  -3  -6   2 350.888 291.507   1
  -3  -6   1 12684.1 1219.58   1
  -3  -6   1 11843.4 1100.03   6
  -3  -6   0 620.127 359.159   1
  -3  -6   0 546.764 292.788   6
  -3  -6  -1 49749.1 2406.47   6
  -3  -6  -1 47617.6 2757.96   1
  -3  -6  -2 47923.7 2318.32   6
  -3  -6  -2 45842.4 2737.93   1
  -3  -6  -3 3024.24 752.687   1
  -3  -6  -3 3710.60 553.220   6
  -3  -6  -4 5691.97 973.678   1
  -3  -6  -4 5924.03 666.845   6
  -3  -6  -5 25361.4 2145.02   1
  -3  -6  -5 23352.6 1424.35   6
  -3  -6  -6 110830. 5350.53   1
  -3  -6  -6 108185. 4130.46   6
  -3  -6  -6 118524. 5227.29   5
  -3  -6  -7 39571.4 2036.36   6
  -3  -6  -7 43087.2 2891.64   5
  -3  -6  -8 57734.4 3577.83   5
  -3  -6  -9 26306.3 2368.35   5
  -3  -6 -10 10084.6 1482.69   5
  -3  -6 -11 4012.65 1058.28   5
  -3  -6 -12 27108.5 2708.72   5
  -3  -6 -13 29787.2 2983.51   5
   3   7 -12 17526.8 2393.47   5
   3   7 -11 32404.1 3183.55   5
   3   7 -10 9716.79 1678.08   5
  -3  -7   9 5704.60 1196.01   6
   3   7  -9 5013.26 1171.50   5
   3   7  -8-262.159 528.215   5
  -3  -7   8 200.661 395.805   6
  -3  -7   7 2337.95 730.637   6
   3   7  -7 3858.79 982.577   5
   3   7  -6 3654.09 904.690   5
  -3  -7   6 3467.70 820.553   6
  -3  -7   5 51356.2 3095.71   6
  -3  -7   5 45850.9 2663.41   1
  -3  -7   4 4357.04 768.905   1
  -3  -7   4 3687.06 776.788   6
  -3  -7   3 2472.57 565.169   1
  -3  -7   3 2043.54 559.915   6
  -3  -7   2 89.6041 271.649   6
  -3  -7   2-45.1249 224.075   1
  -3  -7   1 19806.5 1621.55   1
  -3  -7   1 19175.5 1557.82   6
  -3  -7   0 1706.99 502.049   1
  -3  -7   0 1032.07 304.173   6
  -3  -7  -1 63800.5 3050.94   6
  -3  -7  -1 62279.9 3367.67   1
  -3  -7  -2 24985.2 1747.00   6
  -3  -7  -2 26710.7 2083.90   1
  -3  -7  -3 69380.5 3164.94   6
  -3  -7  -3 67269.8 3791.77   1
  -3  -7  -4 22487.1 2060.32   1
  -3  -7  -4 22624.0 1565.82   6
  -3  -7  -5 7703.16 852.871   6
  -3  -7  -5 5766.87 1050.26   1
  -3  -7  -6 19148.5 2009.69   1
  -3  -7  -6 16116.4 1298.58   6
  -3  -7  -7 53761.0 3467.39   5
  -3  -7  -7 48615.2 3542.56   1
  -3  -7  -8 41351.7 3369.27   1
  -3  -7  -8 47945.2 3356.41   5
  -3  -7  -9 35670.9 3001.67   5
  -3  -7 -10 27992.4 2719.61   5
  -3  -7 -11 14601.2 1990.27   5
  -3  -7 -12 5747.73 1310.12   5
   3   8 -11 4403.89 1333.76   5
   3   8 -10 16563.6 2240.38   5
   3   8  -9 8522.34 1557.22   5
  -3  -8   9 7599.63 1403.06   6
   3   8  -8 3130.76 1015.73   5
  -3  -8   8 3272.38 897.637   6
  -3  -8   7-52.3459 397.859   6
   3   8  -7 122.782 512.188   5
  -3  -8   6 394.638 359.914   6
  -3  -8   5 7918.03 1176.00   6
  -3  -8   4 13186.3 1326.66   1
  -3  -8   4 10632.9 1333.96   6
  -3  -8   3 21537.2 1756.73   1
  -3  -8   3 21664.4 1870.27   6
  -3  -8   2 11320.1 1266.74   1
  -3  -8   2 11142.7 1277.03   6
  -3  -8   1 2441.45 601.562   1
  -3  -8   1 1527.69 463.295   6
  -3  -8   0 3166.08 740.801   1
  -3  -8   0 4472.10 751.712   6
  -3  -8  -1 19865.3 1639.63   6
  -3  -8  -1 20362.3 1841.46   1
  -3  -8  -2 53504.2 2914.54   6
  -3  -8  -2 50203.2 3167.41   1
  -3  -8  -3 40166.0 2399.40   6
  -3  -8  -3 36077.8 2716.72   1
  -3  -8  -4 56594.6 3632.60   1
  -3  -8  -4 54905.3 2927.84   6
  -3  -8  -5 31166.6 2073.54   6
  -3  -8  -5 38036.1 2944.51   1
  -3  -8  -6 15610.0 1378.29   6
  -3  -8  -6 15126.6 1905.09   1
  -3  -8  -7 8829.92 1516.55   1
  -3  -8  -8 30172.6 2929.02   1
  -3  -8  -9 18589.2 2388.07   1
  -3  -8  -9 15461.3 1987.17   5
  -3  -8 -10 14826.0 1995.53   5
  -3  -8 -10 12304.9 2047.80   1
  -3  -8 -11 8329.90 1534.71   5
   3   9 -10 1207.25 828.777   5
   3   9  -9 1790.17 745.281   5
   3   9  -8 11690.8 1898.30   5
  -3  -9   8 11985.0 1758.86   6
   3   9  -7 4645.35 1123.58   5
  -3  -9   7 3010.66 865.606   6
  -3  -9   6-435.585 447.670   6
  -3  -9   5-168.924 408.623   6
  -3  -9   4 9086.57 1304.95   6
  -3  -9   3 15884.7 1693.01   6
  -3  -9   2 41613.1 2695.44   1
  -3  -9   2 41214.6 2779.53   6
  -3  -9   1 29889.2 2264.11   1
  -3  -9   1 31373.4 2305.33   6
  -3  -9   0 17315.7 1714.69   1
  -3  -9   0 17117.0 1662.88   6
  -3  -9  -1 6429.08 974.697   6
  -3  -9  -1 4914.72 946.623   1
  -3  -9  -2 32481.5 2292.38   6
  -3  -9  -2 28982.5 2451.27   1
  -3  -9  -3 5916.81 1168.07   1
  -3  -9  -3 7074.28 1029.84   6
  -3  -9  -4 66113.1 3517.59   6
  -3  -9  -4 65662.5 4102.09   1
  -3  -9  -5 17898.8 1653.39   6
  -3  -9  -5 16924.2 2056.62   1
  -3  -9  -6 8860.12 1554.75   1
  -3  -9  -7 6475.38 1320.87   1
  -3  -9  -8 14348.6 2096.57   1
  -3  -9  -9 1988.70 823.511   1
   3  10  -8 439.038 551.848   5
   3  10  -7 13478.4 2048.96   5
  -3 -10   6 16839.1 1977.74   6
  -3 -10   5 4931.72 1070.99   6
  -3 -10   4-47.9504 395.170   6
  -3 -10   3 4600.03 979.674   6
  -3 -10   2 23087.1 2142.47   6
  -3 -10   1 29161.2 2374.00   6
  -3 -10   0 21225.7 1990.07   6
  -3 -10  -1 26949.5 2200.51   6
  -3 -10  -1 23764.1 2216.93   1
  -3 -10  -2 11940.9 1463.22   6
  -3 -10  -2 12546.7 1640.80   1
  -3 -10  -3 1203.53 573.366   6
  -3 -10  -3 933.873 604.017   1
  -3 -10  -4 24498.6 2071.98   6
  -3 -10  -4 17016.8 2076.23   1
  -3 -10  -5 22280.4 2438.81   1
  -3 -10  -6 17158.5 2231.59   1
  -3 -10  -7 3562.93 1061.93   1
  -3 -11   3 6743.02 1253.18   6
  -3 -11   2 3616.76 895.841   6
  -3 -11   1 14784.0 1774.36   6
  -3 -11   0 14292.2 1734.74   6
  -3 -11  -1 17678.0 1899.37   6
  -3 -11  -2 10589.5 1483.63   6
  -3 -11  -3 4054.61 949.147   6
  -3 -11  -4-379.866 470.291   1
  -3 -11  -5 2225.23 840.119   1
   4  -7  -2 4945.97 1206.92   6
   4  -7  -1 7701.33 1487.33   6
   4  -7   0 17000.8 2165.97   6
   4  -7   1 28806.6 2748.16   6
   4  -7   2 57105.0 3959.94   6
   4  -7   3 12564.8 1755.75   6
   4  -7   4 1544.56 646.023   6
   4  -7   5 7212.97 1346.91   6
   4  -7   6 2314.30 840.352   6
   4  -6  -7 6156.00 1494.66   5
   4  -6  -6 5096.51 1243.59   5
   4  -6  -5 17048.1 2313.04   5
   4  -6  -4 19624.6 2320.13   6
   4  -6  -3 48900.2 3692.54   6
   4  -6  -2 28954.5 2704.70   6
   4  -6  -1 9443.73 1530.70   6
   4  -6   0 5914.87 1218.34   6
   4  -6   1 11359.7 1604.96   6
   4  -6   2 34944.6 2802.17   6
   4  -6   3 22641.9 2209.12   6
   4  -6   4 37615.4 2905.90   6
   4  -6   5 6835.73 1200.53   6
   4  -6   6-722.290 631.378   6
  -4   6  -6-21.5675 293.940   4
   4  -6   7-556.982 462.151   6
  -4   6  -7-433.910 422.440   4
  -4   6  -8 4914.64 1213.07   4
   4  -6   8 6754.72 1192.86   6
   4  -6   9 6478.58 1217.63   6
  -4   6  -9 5271.40 1287.14   4
   4  -5  -9 33612.2 3226.26   5
   4  -5  -8 2852.29 985.433   5
  -4   5   7 13806.1 1646.86   3
   4  -5  -7 9535.30 1693.85   5
   4  -5  -6 18333.3 2171.16   5
  -4   5   6 15395.6 1732.86   3
  -4   5   5 21234.5 2034.45   3
   4  -5  -5 22478.5 2339.95   5
   4  -5  -4 5623.84 1166.76   5
  -4   5   4 5073.97 991.436   3
  -4   5   3 65410.0 3734.83   3
   4  -5  -3 57949.3 3753.81   5
   4  -5  -2 61043.2 3753.15   6
   4  -5  -2 46873.1 3252.18   5
   4  -5  -1 62107.7 3802.18   6
   4  -5   0 16358.9 1805.25   6
   4  -5   1 6061.28 1077.67   6
   4  -5   2 7255.39 1132.49   6
  -4   5  -3 9567.34 1275.61   4
   4  -5   3 9109.91 1268.73   6
   4  -5   4 7812.65 1205.23   6
  -4   5  -4 4819.75 953.499   4
  -4   5  -5 19418.6 2041.33   4
   4  -5   5 19989.7 1913.10   6
  -4   5  -6 5631.76 1120.13   4
   4  -5   6 3411.19 834.353   6
   4  -5   7 1193.67 458.804   6
  -4   5  -7 1615.50 657.777   4
   4  -5   8-292.379 374.615   6
  -4   5  -8 1260.70 640.462   4
   4  -5   9 3024.06 809.223   6
  -4   5  -9 4514.85 1161.31   4
   4  -5  10 5381.48 1058.62   6
  -4   5 -10 5045.92 1236.82   4
   4  -4 -10 1468.77 853.274   5
  -4   4   9 34045.0 2646.63   3
   4  -4  -9 28091.7 2870.42   5
  -4   4   8 28562.1 2405.42   3
   4  -4  -8 28996.5 2794.17   5
  -4   4   7 59114.8 3577.81   3
   4  -4  -7 54726.9 3880.62   5
  -4   4   6 30528.2 2437.00   3
   4  -4  -6 34927.8 2865.07   5
  -4   4   5 22039.0 2002.04   3
   4  -4  -5 23043.9 2214.59   5
   4  -4  -4 19831.3 1977.66   5
  -4   4   4 20840.3 1895.70   3
   4  -4  -3 8731.19 1243.22   5
  -4   4   3 8497.31 1189.96   3
  -4   4   2 28516.9 2196.48   3
   4  -4  -2 28114.4 2188.01   5
  -4   4   1 36129.5 2492.86   3
   4  -4  -1 34435.2 2344.70   5
  -4   4   0 34911.9 2137.05   4
   4  -4   0 40740.0 2664.46   6
  -4   4  -1 9192.74 1072.40   4
   4  -4   1 10404.3 1286.28   6
   4  -4   2 640.604 333.793   6
  -4   4  -2 1525.14 426.810   4
   4  -4   3 23.1294 308.159   6
  -4   4  -3-66.1108 335.913   4
   4  -4   4 9770.85 1182.50   6
  -4   4  -4 8658.53 1235.83   4
   4  -4   5 5572.65 932.870   6
  -4   4  -5 6911.42 1160.17   4
   4  -4   6 10062.4 1251.09   6
  -4   4  -6 7039.90 1224.34   4
   4  -4   7 9302.55 1202.36   6
  -4   4  -7 8172.57 1376.28   4
   4  -4   8-793.472 420.410   6
  -4   4  -8-953.906 569.781   4
   4  -4   9 452.427 419.405   6
  -4   4  -9 1279.31 617.311   4
   4  -4  10 775.088 436.751   6
  -4   4 -10-403.873 408.319   4
  -4   4 -11 21331.2 2511.85   4
   4  -3 -11 17952.4 2199.94   5
   4  -3 -10 6616.48 1350.68   5
  -4   3  10 8173.56 1273.25   3
   4  -3  -9 4002.28 950.079   5
  -4   3   9 3625.99 809.505   3
  -4   3   8 17921.3 1873.11   3
   4  -3  -8 15189.9 1848.82   5
  -4   3   7 27852.6 2291.46   3
   4  -3  -7 24161.3 2272.64   5
  -4   3   6 76906.0 4045.22   3
   4  -3  -6 72005.7 4111.14   5
  -4   3   5 63753.3 3486.13   3
   4  -3  -5 56580.1 3421.07   5
  -4   3   4 20393.5 1792.49   3
   4  -3  -4 19507.5 1794.09   5
   4  -3  -3 4181.63 810.978   5
  -4   3   3 4482.41 847.849   3
  -4   3   2 46097.5 2757.73   3
   4  -3  -2 45539.8 2675.85   5
   4  -3  -1 1245.05 545.678   5
  -4   3   1 1512.28 516.242   3
  -4   3   0 93722.8 4218.76   3
  -4   3   0 96308.7 3938.97   4
   4  -3   0 85199.1 3713.61   5
  -4   3  -1 9609.44 1064.70   4
   4  -3   1 12762.0 1308.89   6
  -4   3  -2 569.173 329.422   4
   4  -3   2 481.888 342.215   6
   4  -3   3 189.523 255.120   6
  -4   3  -3 417.618 286.626   4
   4  -3   4 1143.77 364.995   6
  -4   3  -4 627.634 326.296   4
   4  -3   5 1867.38 474.356   6
  -4   3  -5 2623.78 718.303   4
   4  -3   6 31044.8 2131.60   6
  -4   3  -6 34289.4 2604.19   4
  -4   3  -7 15426.8 1769.43   4
   4  -3   7 15015.1 1419.07   6
  -4   3  -8 21508.8 2219.16   4
   4  -3   8 21381.0 1749.47   6
   4  -3   9 9927.68 1210.24   6
  -4   3  -9 9907.93 1565.97   4
  -4   3 -10 4514.85 1156.43   4
  -4   3 -11 5649.24 1280.74   4
  -4   3 -12 17413.8 2323.61   4
   4  -2 -12 11526.1 1771.70   5
  -4   2  11 55141.8 3740.13   3
  -4   2  10 61374.9 3792.90   3
   4  -2 -10 46148.9 3529.26   5
  -4   2   9 30573.8 2510.26   3
   4  -2  -9 23158.9 2307.36   5
   4  -2  -8 10124.8 1452.88   5
  -4   2   8 13432.6 1597.92   3
   4  -2  -7 9007.51 1305.44   5
  -4   2   7 8734.83 1252.39   3
  -4   2   6 27983.3 2213.27   3
   4  -2  -6 25608.7 2171.66   5
  -4   2   5 37996.5 2543.31   3
   4  -2  -5 36223.1 2478.77   5
  -4   2   4 48901.5 2873.57   3
  -4   2   3 29280.0 2072.39   3
   4  -2  -3 30926.0 2052.03   5
   4  -2  -2 1976.22 466.788   5
  -4   2   2 2578.86 588.581   3
  -4   2   1 12389.6 1245.21   3
   4  -2  -1 11502.3 1071.63   5
  -4   2   0 37603.6 2259.01   3
  -4   2   0 38800.3 2105.54   4
   4  -2   0 31839.4 1714.09   5
  -4   2  -1 11706.3 1186.13   3
  -4   2  -1 8936.52 986.876   4
   4  -2   1 9604.66 745.546   5
  -4   2  -2 33857.8 2115.59   4
   4  -2   2 37134.5 2093.81   6
   4  -2   3 17521.8 1354.97   6
  -4   2  -3 18352.7 1551.85   4
   4  -2   4 3114.85 558.758   6
  -4   2  -4 1725.67 539.226   4
   4  -2   5 4451.32 682.890   6
  -4   2  -5 3060.92 701.021   4
   4  -2   6 2824.62 587.635   6
  -4   2  -6 3435.63 800.738   4
   4  -2   7 31580.9 1982.89   6
  -4   2  -7 34625.7 2624.39   4
   4  -2   8 45167.7 2533.48   6
  -4   2  -8 50368.6 3339.91   4
   4  -2   9 31801.9 2109.89   6
  -4   2  -9 37305.8 2964.42   4
  -4   2 -10 16499.3 2042.97   4
  -4   2 -11 14158.5 1976.36   4
  -4   2 -12 15401.6 2142.69   4
  -4   2 -13 21286.0 2617.89   4
   4  -1 -12 3167.56 953.633   5
   4  -1 -11 5977.26 1231.09   5
   4  -1 -10 45466.7 3367.63   5
   4  -1  -9 30652.2 2568.02   5
   4  -1  -8 30582.2 2483.61   5
   4  -1  -7 6382.58 1070.13   5
   4  -1  -6 1629.04 581.644   5
   4  -1  -5 6257.52 952.599   5
  -4   1   4 19852.8 1672.57   3
   4  -1  -4 18032.8 1546.40   5
  -4   1   3 75184.8 3578.09   3
  -4   1   3 71398.2 3228.19   2
   4  -1  -3 76227.1 3439.92   5
  -4   1   2 43629.6 2486.74   3
  -4   1   2 43446.2 2324.36   2
   4  -1  -2 45622.1 2323.68   5
   4  -1  -1-58.2366 183.844   5
  -4   1   1-145.895 292.135   3
  -4   1   1 221.421 225.418   2
  -4   1   0 32825.3 1971.28   3
  -4   1   0 33180.0 1888.58   4
  -4   1   0 34397.8 1989.19   2
   4  -1   0 30347.1 1548.14   5
  -4   1  -1 7717.16 536.631   5
  -4   1  -1 8977.75 941.409   4
  -4   1  -1 8263.70 932.982   2
   4  -1   1 5635.63 478.337   5
  -4   1  -1 8534.95 951.525   3
  -4   1  -2 22138.4 1554.22   3
  -4   1  -2 18890.2 1482.04   4
  -4   1  -2 21815.5 1525.49   2
  -4   1  -3 55243.5 2904.74   4
  -4   1  -3 61236.3 2871.97   2
   4  -1   3 59092.5 2582.21   6
  -4   1  -4 41336.1 2298.28   2
   4  -1   4 46400.2 2142.90   6
  -4   1  -4 43434.3 2539.43   4
   4  -1   5 28616.3 1634.14   6
  -4   1  -5 29355.7 1823.91   2
  -4   1  -5 27938.8 2062.66   4
   4  -1   6 4157.62 580.461   6
  -4   1  -6 3008.21 708.525   4
   4  -1   7 82183.0 3401.79   6
  -4   1  -7 85751.6 4324.77   4
   4  -1   8 8632.36 902.295   6
  -4   1  -8 12503.5 1549.83   4
   4  -1   9 146930. 5511.62   6
  -4   1  -9 150539. 6803.28   4
  -4   1 -10 70307.7 4360.90   4
  -4   1 -11 19090.4 2232.36   4
  -4   1 -12 3959.72 1086.68   4
  -4   1 -13 23020.1 2680.37   4
  -4   1 -14 3722.04 1112.46   4
   4   0 -13 13010.7 1922.60   5
   4   0 -12 12196.8 1801.47   5
   4   0 -11 3620.63 978.075   5
   4   0 -10 9360.04 1442.45   5
   4   0  -9 17510.5 1889.03   5
   4   0  -8 43295.4 2931.50   5
   4   0  -7 19046.3 1779.31   5
   4   0  -6 2321.98 651.008   5
  -4   0   6 2069.96 433.470   2
   4   0  -5 2239.84 578.542   5
  -4   0   5 1427.24 364.965   2
   4   0  -4 1604.45 478.678   5
  -4   0   4 1498.95 382.047   2
  -4   0   3 1091.19 332.375   2
   4   0  -3 1592.00 428.715   5
  -4   0   2 52541.2 2692.59   3
  -4   0   2 51101.7 2502.77   2
   4   0  -2 56400.2 2541.99   5
  -4   0   1 72121.3 3225.40   3
  -4   0   1 69338.8 3058.74   2
   4   0  -1 72541.7 2901.43   5
  -4   0   0 54273.8 2619.74   3
  -4   0   0 55193.9 2614.60   4
  -4   0   0 56404.9 2627.39   2
   4   0   0 55205.8 2232.09   5
   4   0   1 268.389 108.925   5
  -4   0  -1 276.614 239.555   3
  -4   0  -1 53.8578 177.164   4
  -4   0  -1 142.078 238.914   2
  -4   0  -2 977.899 315.859   3
  -4   0  -2 767.150 330.413   4
  -4   0  -2 976.270 354.922   2
  -4   0  -2 451.398 232.050   1
  -4   0  -3 118937. 4359.91   1
  -4   0  -3 123730. 4576.54   3
  -4   0  -3 121494. 4805.32   4
   4   0   3 124554. 4162.49   6
  -4   0  -3 122610. 4622.37   2
  -4   0  -4 187717. 6238.68   1
  -4   0  -4 189167. 6875.93   4
   4   0   4 192209. 6019.97   6
  -4   0  -4 187450. 6512.95   2
  -4   0  -5 86875.4 3311.32   1
   4   0   5 84613.5 3123.37   6
  -4   0  -5 86671.1 3952.02   4
  -4   0  -5 82724.5 3488.07   2
  -4   0  -6 100376. 3743.05   1
   4   0   6 93546.9 3486.97   6
  -4   0  -6 107378. 4607.55   4
  -4   0  -6 98561.3 3898.94   2
  -4   0  -7 38744.0 1982.72   1
   4   0   7 37827.8 1798.43   6
  -4   0  -7 36992.0 2019.16   2
  -4   0  -7 43380.6 2745.74   4
  -4   0  -8 1296.94 368.840   1
   4   0   8 1544.26 358.978   6
  -4   0  -8 1869.56 608.265   4
  -4   0  -9 70292.7 4031.66   4
  -4   0 -10 65287.4 4063.27   4
  -4   0 -11 67882.7 4307.97   4
  -4   0 -12 22896.4 2481.06   4
  -4   0 -13 6726.09 1422.39   4
  -4   0 -14 1179.74 709.210   4
   4   1 -13 25803.1 2740.01   5
   4   1 -12 10886.7 1661.75   5
   4   1 -11 5167.61 1111.26   5
   4   1 -10-95.5145 406.569   5
   4   1  -9 3773.47 901.697   5
   4   1  -8-688.626 436.483   5
  -4  -1   7 66303.4 2759.54   2
   4   1  -7 59121.1 3349.54   5
   4   1  -6 4439.47 783.411   5
  -4  -1   6 5172.85 626.852   2
  -4  -1   5 28768.8 1634.97   2
   4   1  -5 28691.3 1907.91   5
   4   1  -4 3612.20 601.337   5
   4   1  -3 514.489 236.959   5
   4   1  -2 440.523 242.760   5
   4   1  -1 159639. 5315.98   5
   4   1   0 75230.1 2776.81   5
  -4  -1   0 75519.3 3139.31   3
  -4  -1   0 78003.8 3312.97   1
   4   1   1 80700.1 2824.74   5
  -4  -1  -1 87891.7 3489.41   1
  -4  -1  -1 83793.5 3299.77   3
  -4  -1  -1 84915.0 3484.84   4
   4   1   2 58869.6 2073.26   5
  -4  -1  -2 67744.1 2802.95   1
  -4  -1  -2 59244.0 2558.10   3
  -4  -1  -2 60777.2 2812.89   4
  -4  -1  -3 18396.3 1166.35   3
  -4  -1  -3 20139.2 1314.76   1
  -4  -1  -3 19035.1 1379.93   4
   4   1   3 19134.9 880.390   6
  -4  -1  -4 68130.7 2877.47   1
  -4  -1  -4 62601.5 3026.62   4
   4   1   4 64834.0 2207.83   6
   4   1   4 61158.0 2172.77   5
   4   1   5 161012. 4894.85   6
  -4  -1  -5 159089. 6048.30   4
  -4  -1  -5 165006. 5747.20   1
   4   1   6 226455. 6665.52   6
  -4  -1  -6 241220. 8165.24   4
  -4  -1  -6 239743. 7655.81   1
  -4  -1  -6 233774. 7437.36   2
  -4  -1  -7 122903. 5167.15   4
  -4  -1  -7 126888. 4757.78   1
  -4  -1  -7 123325. 4403.02   2
  -4  -1  -8 42978.7 2803.12   4
  -4  -1  -8 44854.5 2139.38   2
  -4  -1  -8 46019.1 2513.40   1
  -4  -1  -8 39361.3 2023.25   5
  -4  -1  -9 4669.49 668.510   5
  -4  -1  -9 4777.58 796.296   1
  -4  -1  -9 4963.86 605.841   2
  -4  -1  -9 4012.32 882.882   4
  -4  -1 -10 20893.8 2063.20   4
  -4  -1 -10 21062.3 1780.43   1
  -4  -1 -11 23214.0 2307.01   4
  -4  -1 -12 35239.3 3034.48   4
  -4  -1 -13 15016.7 2020.69   4
  -4  -1 -14 3253.50 962.923   4
  -4  -1 -15 579.607 551.934   4
   4   2 -13 10204.8 1714.63   5
   4   2 -12 10057.0 1626.74   5
   4   2 -11 32303.8 2846.23   5
   4   2 -10 199.603 405.156   5
   4   2  -9 168.757 356.214   5
   4   2  -8 1611.37 572.788   5
  -4  -2   8 1224.47 273.833   2
   4   2  -7 31578.5 2252.28   5
   4   2  -6 7047.18 986.198   5
   4   2  -5 80016.8 3695.46   5
   4   2  -4 20914.2 1525.31   5
   4   2  -3 29135.0 1744.88   5
   4   2  -2 3839.01 570.095   5
   4   2  -1 103160. 3840.88   5
  -4  -2   1 108728. 4329.03   1
  -4  -2   0 148923. 5490.54   1
  -4  -2  -1 341279. 10861.0   1
  -4  -2  -2 139524. 4771.65   3
  -4  -2  -2 146742. 5314.30   1
  -4  -2  -2 142827. 5203.56   4
  -4  -2  -3 163913. 5285.60   3
  -4  -2  -3 162326. 5798.29   1
  -4  -2  -3 154947. 5727.61   4
  -4  -2  -4 60715.2 2879.44   4
  -4  -2  -4 61865.7 2913.47   1
  -4  -2  -5 25987.1 1771.81   4
  -4  -2  -5 31429.6 1931.80   1
  -4  -2  -6 51800.6 2366.12   5
  -4  -2  -6 50313.1 2745.43   4
  -4  -2  -6 55915.1 2845.44   1
  -4  -2  -7 137874. 5593.48   4
  -4  -2  -7 139106. 5037.81   5
  -4  -2  -7 142396. 5620.54   1
  -4  -2  -8 85615.3 4171.31   4
  -4  -2  -8 87396.8 3671.57   5
  -4  -2  -8 91588.6 4220.50   1
  -4  -2  -9 20687.9 1884.19   4
  -4  -2  -9 22119.6 1636.65   5
  -4  -2  -9 23966.7 1946.36   1
  -4  -2 -10 1864.32 506.958   5
  -4  -2 -10 2336.26 691.169   1
  -4  -2 -10 1829.36 572.428   4
  -4  -2 -11 1207.81 460.825   5
  -4  -2 -11 682.477 364.233   1
  -4  -2 -11 515.378 410.457   4
  -4  -2 -12 12009.8 1629.86   4
  -4  -2 -12 10670.6 1502.64   1
  -4  -2 -13 19606.1 2225.24   4
  -4  -2 -14 6871.12 1418.46   4
  -4  -2 -15 2587.92 950.696   4
   4   3 -13 433.796 482.117   5
   4   3 -12 83.1837 376.317   5
   4   3 -11 9915.93 1543.22   5
   4   3 -10 15075.8 1809.80   5
   4   3  -9 2939.49 756.793   5
   4   3  -8-87.4597 343.890   5
   4   3  -7 3689.12 782.118   5
   4   3  -6 33117.9 2259.82   5
   4   3  -5 39552.5 2401.16   5
   4   3  -4 90379.7 3918.80   5
   4   3  -3 98990.9 4080.57   5
  -4  -3   2 94074.3 4057.97   1
   4   3  -2 91631.0 3757.93   5
  -4  -3   1 24488.0 1729.88   1
  -4  -3   0 147346. 5574.55   1
  -4  -3  -1 40295.0 2281.20   1
  -4  -3  -2 527887. 16017.6   1
   4   3   2 520049. 14816.6   6
  -4  -3  -3 75662.7 2755.78   3
  -4  -3  -3 79891.5 3380.49   4
  -4  -3  -3 83527.4 3596.97   1
  -4  -3  -4 102963. 4267.20   4
  -4  -3  -4 120768. 4720.40   1
  -4  -3  -5 91900.5 4038.28   1
  -4  -3  -5 82398.4 3652.81   4
  -4  -3  -6 26290.8 1794.76   4
  -4  -3  -6 31415.7 1850.61   5
  -4  -3  -6 29074.0 2104.26   1
  -4  -3  -7 3185.99 574.287   5
  -4  -3  -7 2158.16 535.949   4
  -4  -3  -7 2307.11 686.404   1
  -4  -3  -8 64332.7 3387.42   4
  -4  -3  -8 70060.2 3351.23   5
  -4  -3  -8 71807.4 3819.79   1
  -4  -3  -9 39797.9 2603.89   4
  -4  -3  -9 43463.8 2556.69   5
  -4  -3  -9 43683.8 2953.41   1
  -4  -3 -10 9946.03 1401.00   1
  -4  -3 -10 10464.8 1320.40   4
  -4  -3 -10 10644.9 1226.77   5
  -4  -3 -11-101.813 298.848   5
  -4  -3 -11-253.643 441.476   1
  -4  -3 -11 392.595 363.838   4
  -4  -3 -12-76.0188 419.764   5
  -4  -3 -12 168.639 360.083   1
  -4  -3 -12 477.355 412.860   4
  -4  -3 -13 3158.84 919.706   1
  -4  -3 -13 1984.43 693.573   4
  -4  -3 -14 4608.89 1057.22   4
   4   4 -13-307.778 473.793   5
   4   4 -12 877.111 534.508   5
   4   4 -11-561.405 487.833   5
   4   4 -10 10748.8 1574.59   5
   4   4  -9 35996.5 2879.15   5
   4   4  -8 22621.7 2113.50   5
   4   4  -7 3668.74 802.301   5
   4   4  -6 5031.18 904.992   5
   4   4  -5 12073.8 1301.50   5
   4   4  -4 200673. 7401.92   5
  -4  -4   3 82780.1 3827.38   1
  -4  -4   2 246569. 8545.74   1
  -4  -4   1 102326. 4329.72   1
  -4  -4   0 107330. 4473.79   1
  -4  -4  -1 3637.68 670.759   1
  -4  -4  -1 3888.47 487.451   6
  -4  -4  -2 375575. 11196.7   6
  -4  -4  -2 403613. 12440.2   1
  -4  -4  -3 4895.17 409.080   3
  -4  -4  -3 4777.58 388.093   6
  -4  -4  -3 3777.95 698.140   1
  -4  -4  -4 159190. 5361.45   4
  -4  -4  -4 157728. 5827.56   1
  -4  -4  -5 18707.4 1405.86   4
  -4  -4  -5 17949.2 1642.51   1
  -4  -4  -6 12421.1 1165.80   4
  -4  -4  -6 15350.2 1336.08   5
  -4  -4  -6 14727.4 1514.22   1
  -4  -4  -7 1309.11 443.086   5
  -4  -4  -7 1377.33 436.624   1
  -4  -4  -7 710.752 320.339   4
  -4  -4  -8 11000.4 1168.09   4
  -4  -4  -8 13068.7 1363.46   5
  -4  -4  -9 4915.91 917.749   5
  -4  -4  -9 4047.94 890.010   1
  -4  -4  -9 5214.83 818.449   4
  -4  -4 -10 29699.5 2607.89   1
  -4  -4 -10 27299.9 2102.49   4
  -4  -4 -10 32176.6 2413.19   5
  -4  -4 -11 13048.3 1446.03   4
  -4  -4 -11 12818.5 1735.47   1
  -4  -4 -11 15594.9 1727.46   5
  -4  -4 -12 2720.26 835.976   1
  -4  -4 -12 2724.14 801.389   5
  -4  -4 -12 2758.93 712.749   4
  -4  -4 -13-953.936 543.095   5
  -4  -4 -13 8.88159 336.341   1
  -4  -4 -14 975.666 656.261   1
   4   5 -13 8157.72 1610.55   5
   4   5 -12 1349.99 676.608   5
   4   5 -11-895.707 591.229   5
   4   5 -10 586.382 507.937   5
   4   5  -9 36424.4 3002.29   5
   4   5  -8 50874.8 3479.34   5
   4   5  -7 76444.1 4234.97   5
   4   5  -6 50812.4 3212.40   5
   4   5  -5 40413.0 2728.97   5
  -4  -5   4 22619.2 1829.16   1
  -4  -5   3 69986.7 3539.00   1
  -4  -5   3 76713.5 3478.99   6
  -4  -5   2 185610. 6888.93   1
  -4  -5   2 185226. 6551.25   6
  -4  -5   1 152096. 6006.49   1
  -4  -5   1 160977. 5615.96   6
  -4  -5   0 45895.4 2208.97   6
  -4  -5   0 47116.1 2634.73   1
  -4  -5  -1 18790.9 1203.68   6
  -4  -5  -1 21186.8 1650.93   1
  -4  -5  -2 31985.4 1582.39   6
  -4  -5  -2 38572.9 2331.34   1
  -4  -5  -3 33049.5 1511.80   6
  -4  -5  -3 33536.1 2289.52   1
  -4  -5  -4 43381.3 1798.33   6
  -4  -5  -4 45492.2 2923.62   1
  -4  -5  -5 52116.5 1985.09   6
  -4  -5  -5 60666.2 3399.22   1
  -4  -5  -6 20734.6 1522.96   4
  -4  -5  -6 20772.2 1926.94   1
  -4  -5  -7 1717.86 553.013   5
  -4  -5  -7 1396.62 588.810   1
  -4  -5  -7 1137.59 341.722   4
  -4  -5  -8 916.250 470.319   5
  -4  -5  -8 208.973 230.328   4
  -4  -5  -8 301.212 392.254   1
  -4  -5  -9 9363.47 1302.23   5
  -4  -5  -9 9281.23 1070.87   4
  -4  -5  -9 10381.1 1509.06   1
  -4  -5 -10-85.9445 491.998   5
  -4  -5 -10 790.906 611.967   1
  -4  -5 -10 166.928 230.781   4
  -4  -5 -11 30679.0 2915.53   1
  -4  -5 -11 31294.8 2655.49   5
  -4  -5 -12 6313.25 1330.78   1
  -4  -5 -12 7269.55 1343.30   5
  -4  -5 -13 9013.29 1514.05   5
  -4  -5 -13 8585.18 1667.74   1
  -4  -5 -14 5622.37 1275.10   5
  -4  -5 -14 5179.10 1306.51   1
   4   6 -12 43671.8 3877.62   5
   4   6 -11 12078.6 1981.37   5
   4   6 -10 3218.83 876.159   5
   4   6  -9 4249.30 998.768   5
   4   6  -8 27326.8 2588.50   5
   4   6  -7 60070.8 3835.35   5
   4   6  -6 93380.7 4947.09   5
   4   6  -5 77340.9 4189.97   5
  -4  -6   5 68999.0 3740.26   6
  -4  -6   4 41462.2 2654.42   1
  -4  -6   4 48725.1 2816.28   6
  -4  -6   3 16507.1 1551.24   1
  -4  -6   3 18871.9 1571.94   6
  -4  -6   2 18087.5 1592.87   1
  -4  -6   2 17731.6 1460.53   6
  -4  -6   1 110586. 4736.64   1
  -4  -6   1 107523. 4320.76   6
  -4  -6   0 122724. 5006.85   1
  -4  -6   0 111754. 4402.96   6
  -4  -6  -1 29386.9 1702.75   6
  -4  -6  -1 31374.3 2162.67   1
  -4  -6  -2 164.760 212.915   6
  -4  -6  -2-28.5225 324.599   1
  -4  -6  -3 3356.24 763.060   1
  -4  -6  -3 3519.18 500.096   6
  -4  -6  -4 354.759 360.520   1
  -4  -6  -4 552.810 254.054   6
  -4  -6  -5 33587.1 1698.84   6
  -4  -6  -5 39629.1 2785.65   1
  -4  -6  -6 9206.45 1363.04   1
  -4  -6  -7 33855.5 2749.76   1
  -4  -6  -8 5178.32 998.123   5
  -4  -6  -8 4017.25 929.873   1
  -4  -6  -9 4938.99 1015.41   5
  -4  -6  -9 5105.70 1158.65   1
  -4  -6 -10 227.631 324.550   5
  -4  -6 -10 529.746 477.924   1
  -4  -6 -11 55623.6 4294.92   1
  -4  -6 -11 63290.7 4171.28   5
  -4  -6 -12 5527.65 1205.76   5
  -4  -6 -12 4694.02 1191.79   1
  -4  -6 -13 17135.3 2203.81   5
  -4  -6 -13 13030.0 2078.22   1
  -4  -6 -14 9265.73 1691.52   5
   4   7 -11 27881.0 3075.94   5
   4   7 -10 39468.7 3540.00   5
   4   7  -9 16427.5 2180.58   5
   4   7  -8 15381.5 1993.41   5
   4   7  -7 15597.4 1966.13   5
  -4  -7   7 15750.0 1829.64   6
  -4  -7   6 65531.3 3796.06   6
   4   7  -6 59511.8 3979.70   5
  -4  -7   5 67974.9 3672.14   6
  -4  -7   5 55648.4 3251.18   1
  -4  -7   4 37913.6 2524.28   1
  -4  -7   4 42769.7 2751.98   6
  -4  -7   3 22816.2 1887.46   1
  -4  -7   3 23339.7 1864.58   6
  -4  -7   2 6222.61 959.777   1
  -4  -7   2 5325.70 856.886   6
  -4  -7   1 2728.19 605.331   6
  -4  -7   1 3056.16 685.585   1
  -4  -7   0 24899.5 1967.91   1
  -4  -7   0 26286.5 1776.56   6
  -4  -7  -1 59454.0 2842.87   6
  -4  -7  -1 58123.2 3269.95   1
  -4  -7  -2 33403.5 1964.40   6
  -4  -7  -2 38964.3 2603.10   1
  -4  -7  -3 1205.21 355.470   6
  -4  -7  -3 744.535 410.225   1
  -4  -7  -4-264.367 479.910   1
  -4  -7  -4 136.249 196.844   6
  -4  -7  -5 2215.99 697.724   1
  -4  -7  -5 2845.88 491.904   6
  -4  -7  -6 2688.74 831.828   1
  -4  -7  -7 21132.0 2251.78   1
  -4  -7  -8 24987.2 2533.98   1
  -4  -7  -9 14075.8 1963.59   1
  -4  -7  -9 15574.4 1853.14   5
  -4  -7 -10 898.294 471.845   5
  -4  -7 -10-912.240 658.955   1
  -4  -7 -11 8232.66 1493.34   5
  -4  -7 -11 10578.3 1808.33   1
  -4  -7 -12 13011.5 1981.46   5
  -4  -7 -12 14254.5 2270.51   1
   4   8 -10 21015.8 2647.44   5
   4   8  -9 43043.9 3764.50   5
  -4  -8   8 12789.1 1775.43   6
   4   8  -8 13442.7 2008.33   5
   4   8  -7 8937.49 1542.55   5
  -4  -8   7 6392.71 1179.82   6
   4   8  -6 7858.71 1468.87   5
  -4  -8   6 7191.24 1255.14   6
  -4  -8   5 27060.4 2291.29   6
  -4  -8   5 21418.9 1902.00   1
  -4  -8   4 10183.4 1276.21   1
  -4  -8   4 9832.16 1312.68   6
  -4  -8   3 64094.2 3471.19   1
  -4  -8   3 55669.5 3278.77   6
  -4  -8   2 8001.94 1124.76   1
  -4  -8   2 8242.86 1118.32   6
  -4  -8   1 123.711 281.244   6
  -4  -8   1-404.142 318.945   1
  -4  -8   0 569.585 418.912   1
  -4  -8   0 72.7128 246.524   6
  -4  -8  -1 305.364 415.027   1
  -4  -8  -1 129.524 265.825   6
  -4  -8  -2 9604.99 1074.06   6
  -4  -8  -2 10056.6 1359.48   1
  -4  -8  -3 25975.8 1818.24   6
  -4  -8  -3 25710.5 2322.32   1
  -4  -8  -4 10850.3 1500.31   1
  -4  -8  -4 11270.2 1123.87   6
  -4  -8  -5 1602.53 540.724   1
  -4  -8  -6 3293.35 946.767   1
  -4  -8  -7 7021.74 1409.42   1
  -4  -8  -8 27602.5 2820.70   1
  -4  -8  -9 30639.6 3100.33   1
  -4  -8 -10 19750.8 2540.00   1
  -4  -8 -11 5945.53 1395.24   1
   4   9  -9 30602.4 3240.47   5
   4   9  -8 12549.4 2056.54   5
  -4  -9   8 8461.40 1550.42   6
   4   9  -7 10462.0 1799.30   5
  -4  -9   7 9061.07 1499.87   6
  -4  -9   6 1792.09 698.342   6
  -4  -9   5 1419.78 612.406   6
  -4  -9   4 211.275 374.314   6
  -4  -9   3 14110.6 1572.48   1
  -4  -9   3 10591.1 1360.92   6
  -4  -9   2 7728.07 1148.11   6
  -4  -9   2 8422.65 1181.44   1
  -4  -9   1 7195.24 1069.45   6
  -4  -9   1 7742.68 1139.84   1
  -4  -9   0-163.897 281.482   1
  -4  -9   0 4.72012 291.018   6
  -4  -9  -1 1791.09 599.773   1
  -4  -9  -1 1452.84 487.243   6
  -4  -9  -2 3348.43 850.582   1
  -4  -9  -2 1807.68 548.591   6
  -4  -9  -3 9771.26 1178.19   6
  -4  -9  -3 10225.2 1512.00   1
  -4  -9  -4 28916.1 2588.29   1
  -4  -9  -5 20508.4 2236.15   1
  -4  -9  -6 12485.3 1818.88   1
  -4  -9  -7 5013.00 1219.58   1
  -4  -9  -8 1690.33 838.736   1
  -4  -9  -9 19166.2 2551.20   1
   4  10  -7 5111.31 1380.62   5
  -4 -10   6 1753.82 687.791   6
  -4 -10   5 789.051 502.200   6
  -4 -10   4 328.133 399.047   6
  -4 -10   3-262.735 440.919   6
  -4 -10   2 5260.25 987.265   6
  -4 -10   1 5566.12 1015.52   6
  -4 -10   1 3741.31 871.994   1
  -4 -10   0 12372.3 1566.64   1
  -4 -10   0 14133.5 1567.21   6
  -4 -10  -1 728.233 475.252   1
  -4 -10  -1 1403.38 537.277   6
  -4 -10  -2 900.613 493.364   1
  -4 -10  -2 829.417 444.001   6
  -4 -10  -3 4559.09 1050.22   1
  -4 -10  -3 4104.40 808.786   6
  -4 -10  -4 26146.8 2606.52   1
  -4 -10  -5 3391.44 1058.50   1
  -4 -10  -6 34251.8 3159.39   1
  -4 -10  -7 19843.0 2474.43   1
  -4 -11   4 911.548 528.078   6
  -4 -11   3-645.415 473.050   6
  -4 -11   2 3038.15 899.875   6
  -4 -11   1 3734.01 938.490   6
  -4 -11   0 18047.1 1891.77   6
  -4 -11  -1 11100.5 1485.10   6
  -4 -11  -2 8677.36 1411.72   1
  -4 -11  -2 7751.79 1226.90   6
  -4 -11  -3 3075.33 918.086   1
  -4 -11  -4 12420.8 1789.23   1
  -4 -11  -5 4963.37 1242.95   1
   5  -6  -2 3631.95 1137.55   6
   5  -6  -1-500.562 712.592   6
   5  -6   0-939.505 653.812   6
   5  -6   1 24101.3 2550.83   6
   5  -6   2 15402.6 1948.05   6
   5  -6   3 25105.8 2504.91   6
   5  -6   4 14447.2 1834.24   6
   5  -6   5 8680.84 1464.81   6
   5  -6   6 4121.37 970.134   6
   5  -6   7 37321.4 3014.61   6
  -5   5   7 3218.18 885.268   3
  -5   5   6-863.504 565.807   3
  -5   5   5-276.465 400.595   3
  -5   5   4 8581.71 1386.91   3
   5  -5  -2 16315.9 2072.21   6
   5  -5  -1 13609.9 1888.71   6
   5  -5   0 11933.2 1711.73   6
   5  -5   1 11030.0 1618.32   6
   5  -5   2 14328.5 1809.80   6
   5  -5   3 65838.2 3974.43   6
   5  -5   4 64279.8 3879.89   6
  -5   5  -5 18844.6 2109.89   4
   5  -5   5 20767.1 2057.95   6
   5  -5   6 5148.35 1019.17   6
  -5   5  -6 5134.11 1199.89   4
   5  -5   7 7212.28 1204.33   6
  -5   5  -7 7334.15 1424.52   4
   5  -5   8 6035.58 1112.99   6
  -5   5  -8 6546.76 1383.64   4
  -5   5  -9 11616.4 1913.97   4
   5  -4  -9 1059.89 692.237   5
   5  -4  -8 829.910 803.397   5
  -5   4   8 558.392 467.584   3
  -5   4   7 37710.2 3041.02   3
   5  -4  -7 39815.7 3410.84   5
   5  -4  -6 7193.23 1399.77   5
  -5   4   6 6288.78 1178.96   3
   5  -4  -5 2042.85 756.347   5
  -5   4   5 1431.88 616.288   3
   5  -4  -4 5994.74 1138.36   5
  -5   4   4 6711.10 1189.37   3
  -5   4   3 9624.71 1364.10   3
  -5   4   2 37551.7 2797.84   3
  -5   4   1 63155.5 3773.19   3
   5  -4   0 36533.9 2796.00   6
   5  -4   1 22214.6 2082.26   6
   5  -4   2 9483.59 1324.53   6
  -5   4  -2 8038.09 1152.63   4
  -5   4  -3 11254.0 1422.78   4
   5  -4   3 9660.13 1308.00   6
  -5   4  -4 44387.4 3149.01   4
   5  -4   4 50974.4 3102.44   6
  -5   4  -5 72484.2 4271.57   4
   5  -4   5 66398.1 3738.13   6
  -5   4  -6 33318.6 2868.12   4
   5  -4   6 34150.3 2523.85   6
   5  -4   7 4348.83 884.047   6
  -5   4  -7 4995.28 1169.52   4
   5  -4   8 1875.93 615.771   6
  -5   4  -8 3992.96 1063.54   4
  -5   4  -9-241.719 394.677   4
  -5   4 -10 10196.5 1790.71   4
   5  -3 -10 3592.50 1011.19   5
  -5   3  10 2928.10 902.374   3
   5  -3  -9 1750.97 745.247   5
  -5   3   9-224.175 382.303   3
   5  -3  -8 1852.99 790.590   5
  -5   3   8 811.722 503.966   3
  -5   3   7 18166.3 1994.75   3
   5  -3  -7 19222.8 2136.33   5
  -5   3   6 20849.0 2058.12   3
   5  -3  -6 16032.8 1880.70   5
  -5   3   5 29678.5 2462.85   3
   5  -3  -5 30575.0 2585.48   5
  -5   3   4 14561.8 1665.56   3
   5  -3  -4 17604.9 1835.66   5
  -5   3   3 15729.2 1685.38   3
   5  -3  -3 14224.5 1567.01   5
  -5   3   2 20663.1 1900.92   3
   5  -3  -2 18193.1 1667.12   5
  -5   3   1 46109.7 2968.91   3
  -5   3   0 120235. 5387.91   3
  -5   3  -1 95395.3 4481.58   4
   5  -3   1 109432. 4855.67   6
  -5   3  -2 27971.8 2170.98   4
   5  -3   2 32002.2 2274.47   6
  -5   3  -3 16621.3 1688.87   4
   5  -3   3 18840.1 1681.25   6
   5  -3   4 1571.46 495.850   6
  -5   3  -4 2121.20 615.995   4
  -5   3  -5 15483.9 1779.91   4
   5  -3   5 17380.3 1592.52   6
  -5   3  -6 33672.1 2748.40   4
   5  -3   6 31171.9 2226.29   6
   5  -3   7 23883.4 1906.97   6
  -5   3  -7 23100.0 2361.87   4
   5  -3   8 2946.85 651.802   6
  -5   3  -8 2753.05 856.406   4
  -5   3  -9-89.1699 556.491   4
  -5   3 -10 825.563 630.487   4
  -5   3 -11 1164.67 675.365   4
  -5   2  11 7769.34 1436.52   3
   5  -2 -10 9017.82 1554.16   5
  -5   2  10 11893.4 1707.76   3
   5  -2  -9 5840.74 1259.22   5
  -5   2   9 9041.79 1431.56   3
  -5   2   8 4540.95 1030.56   3
  -5   2   7 7309.04 1238.42   3
  -5   2   6 74602.6 4218.33   3
  -5   2   5 46769.2 3076.54   3
   5  -2  -5 41681.0 2934.16   5
  -5   2   4 96605.6 4660.91   3
   5  -2  -4 88856.6 4466.99   5
  -5   2   3 48101.6 2977.84   3
   5  -2  -3 47328.2 2847.68   5
  -5   2   2 22427.3 1886.52   3
   5  -2  -2 20018.7 1643.70   5
  -5   2   1 22824.6 1905.40   3
   5  -2  -1 22037.2 1625.44   5
  -5   2   0 44286.0 2708.79   3
  -5   2   0 44747.7 2518.63   4
   5  -2   0 40874.6 2104.25   5
  -5   2  -1 18495.1 1681.46   3
  -5   2  -1 16576.0 1527.17   4
  -5   2  -2 156642. 6327.16   3
  -5   2  -2 155525. 6255.11   4
   5  -2   2 165664. 6157.53   6
   5  -2   3 33185.7 2091.35   6
  -5   2  -3 31049.8 2298.50   4
   5  -2   4-248.683 306.550   6
  -5   2  -4-1202.53 503.584   4
   5  -2   5 3157.63 652.505   6
  -5   2  -5 2901.22 743.888   4
   5  -2   6 4980.32 774.614   6
  -5   2  -6 4623.94 952.857   4
   5  -2   7 10608.6 1126.25   6
  -5   2  -7 12557.0 1645.53   4
  -5   2  -8 23283.6 2350.91   4
   5  -2   8 18141.7 1523.50   6
  -5   2  -9 4095.20 1061.18   4
  -5   2 -10-563.701 494.893   4
  -5   2 -11 1514.25 734.231   4
  -5   2 -12 123.891 385.558   4
   5  -1 -11 21141.8 2382.35   5
   5  -1 -10 18460.4 2205.14   5
   5  -1  -9 29415.8 2681.18   5
   5  -1  -8 22220.4 2226.24   5
   5  -1  -7 8733.14 1345.07   5
  -5   1   7 10106.2 1432.06   3
  -5   1   6 18607.5 1875.88   3
   5  -1  -6 15843.7 1736.41   5
  -5   1   5 36298.6 2612.46   3
   5  -1  -5 34706.4 2530.53   5
  -5   1   4 175763. 6788.62   3
   5  -1  -4 149801. 6379.46   5
  -5   1   3 51656.8 3006.02   3
  -5   1   3 49197.7 2694.34   2
   5  -1  -3 46726.4 2763.84   5
  -5   1   2 62928.1 3348.00   3
  -5   1   2 62064.4 3151.73   2
   5  -1  -2 62195.7 3105.76   5
  -5   1   1 47350.9 2741.34   3
  -5   1   1 49461.6 2704.12   2
   5  -1  -1 45685.8 2387.97   5
  -5   1   0 31651.4 2095.06   3
  -5   1   0 28628.2 1963.57   2
   5  -1   0 26229.8 1514.36   5
  -5   1  -1 4015.49 785.525   3
  -5   1  -1 1799.52 566.541   4
  -5   1  -1 3626.27 904.637   2
   5  -1   1 1891.54 387.112   5
  -5   1  -2 49805.8 2778.62   3
  -5   1  -2 52478.9 2885.48   4
  -5   1  -2 53991.1 2870.99   2
  -5   1  -3 20840.3 1702.62   3
  -5   1  -3 22592.3 1836.03   4
  -5   1  -3 22823.8 1770.81   2
   5  -1   3 23590.6 1555.76   6
  -5   1  -4 37567.7 2500.32   4
  -5   1  -4 36744.6 2315.37   2
   5  -1   4 38918.7 2085.09   6
  -5   1  -5 128.578 241.256   2
   5  -1   5 341.121 190.297   6
  -5   1  -5 817.366 419.240   4
   5  -1   6 1965.01 436.419   6
  -5   1  -6 1744.16 598.903   4
   5  -1   7 218.986 184.999   6
  -5   1  -7-1442.26 603.759   4
  -5   1  -8 5827.31 1126.66   4
  -5   1  -9 16261.3 1990.65   4
  -5   1 -10 21401.0 2397.92   4
  -5   1 -11 7862.56 1532.59   4
  -5   1 -12 3261.27 1148.79   4
  -5   1 -13 43.4614 435.078   4
   5   0 -12 717.218 581.254   5
   5   0 -11 11877.6 1755.27   5
   5   0 -10 9348.54 1502.74   5
   5   0  -9 72969.2 4385.73   5
   5   0  -8 56145.7 3606.78   5
   5   0  -7 59249.5 3573.83   5
  -5   0   6 21673.7 1597.52   2
   5   0  -6 21317.1 1946.28   5
  -5   0   5 21079.5 1575.22   2
   5   0  -5 20131.6 1804.51   5
  -5   0   4 31926.7 1978.15   2
   5   0  -4 29035.8 2098.33   5
  -5   0   3 85265.9 4083.83   3
  -5   0   3 83495.3 3725.75   2
   5   0  -3 91275.7 3962.61   5
  -5   0   2 61196.8 3173.44   3
  -5   0   2 54492.5 2839.50   2
   5   0  -2 61558.7 2917.77   5
  -5   0   1 22255.2 1705.74   3
  -5   0   1 21734.4 1630.71   2
   5   0  -1 24081.2 1547.97   5
  -5   0   0 6426.97 861.030   3
  -5   0   0 4625.24 749.663   2
   5   0   0 5542.60 614.211   5
   5   0   1 1823.96 293.895   5
  -5   0  -1 2781.20 560.352   3
  -5   0  -1 2957.11 599.740   4
  -5   0  -1 1935.60 513.452   2
  -5   0  -2 647.569 367.409   3
  -5   0  -2 408.925 334.342   4
  -5   0  -2 527.929 417.494   2
  -5   0  -3 40758.2 2333.88   3
   5   0   3 47095.5 2120.86   6
  -5   0  -3 43643.0 2455.40   2
  -5   0  -3 40964.3 2506.99   4
  -5   0  -4 3796.46 595.844   1
   5   0   4 3993.44 530.968   6
  -5   0  -4 4204.10 775.679   4
  -5   0  -4 4882.55 759.343   2
  -5   0  -5 34676.7 1963.26   1
  -5   0  -5 40142.3 2572.38   4
   5   0   5 39041.8 1870.69   6
  -5   0  -5 37050.9 2239.38   2
  -5   0  -6 12057.1 1027.51   1
  -5   0  -6 12268.9 1439.66   4
   5   0   6 12552.3 937.213   6
  -5   0  -6 11228.5 1148.85   2
   5   0   7 130.642 153.458   6
  -5   0  -7 412.830 309.370   2
  -5   0  -7-25.0800 315.016   4
  -5   0  -8-363.568 255.711   2
  -5   0  -8-366.481 555.864   4
  -5   0  -9 31878.9 2730.80   4
  -5   0 -10 3899.63 1025.69   4
  -5   0 -11 43931.6 3587.30   4
  -5   0 -12 26233.6 2835.68   4
  -5   0 -13 3395.25 1109.59   4
   5   1 -12 22695.2 2557.39   5
   5   1 -11 14592.4 1946.94   5
   5   1 -10 2403.86 782.812   5
   5   1  -9 19150.6 2069.53   5
   5   1  -8 52733.6 3426.55   5
  -5  -1   7 79185.5 3432.30   2
   5   1  -7 76752.7 4136.18   5
  -5  -1   6 46118.0 2420.87   2
   5   1  -6 46465.7 2872.35   5
  -5  -1   5 10081.7 1024.00   2
   5   1  -5 9677.59 1149.92   5
  -5  -1   4 10568.2 1034.55   2
   5   1  -4 10421.6 1131.49   5
  -5  -1   3 8550.67 961.257   2
   5   1  -3 8726.16 979.465   5
  -5  -1   2 45468.1 2471.26   2
   5   1  -2 48696.5 2402.04   5
  -5  -1   1 59593.6 2949.82   3
   5   1  -1 58020.8 2611.81   5
  -5  -1   0 28615.0 1822.33   3
   5   1   0 27757.1 1502.57   5
   5   1   1 2082.99 317.471   5
  -5  -1  -1 1814.49 483.049   4
  -5  -1  -1 2521.82 512.346   3
  -5  -1  -1 1871.93 472.533   1
   5   1   2 5226.44 445.318   5
  -5  -1  -2 5585.53 772.655   1
  -5  -1  -2 5162.10 708.033   3
  -5  -1  -2 5548.19 800.741   4
   5   1   3 2346.19 224.559   5
  -5  -1  -3 3038.12 536.389   3
  -5  -1  -3 2978.44 561.448   1
  -5  -1  -3 3402.83 641.550   4
  -5  -1  -4 833.554 347.236   3
  -5  -1  -4 622.194 348.155   1
   5   1   4 452.558 177.399   6
  -5  -1  -4 716.727 356.960   4
  -5  -1  -4 594.951 300.767   2
  -5  -1  -5 87208.1 3748.11   1
  -5  -1  -5 85637.7 4078.22   4
   5   1   5 88533.9 3043.63   6
  -5  -1  -5 87206.5 3798.32   2
  -5  -1  -6 7513.49 894.619   1
   5   1   6 8225.80 585.401   6
  -5  -1  -6 8433.86 966.126   2
  -5  -1  -6 6531.18 1024.16   4
  -5  -1  -7 21158.6 1571.78   1
  -5  -1  -7 20731.6 1911.05   4
  -5  -1  -7 20145.9 1533.12   2
  -5  -1  -8 14111.2 1285.84   1
  -5  -1  -8 13130.6 1573.69   4
  -5  -1  -8 14107.0 1236.24   2
  -5  -1  -9 26101.9 2327.57   4
  -5  -1  -9 23538.2 1631.58   2
  -5  -1 -10 6163.52 1185.05   4
  -5  -1 -11 65133.9 4345.60   4
  -5  -1 -12 36330.9 3248.97   4
  -5  -1 -13 28076.8 2974.14   4
  -5  -1 -14 8122.46 1695.52   4
   5   2 -12 27136.6 2826.65   5
   5   2 -11 37355.8 3231.66   5
   5   2 -10 22649.0 2362.36   5
   5   2  -9 4912.37 1027.60   5
   5   2  -8 17393.9 1804.51   5
  -5  -2   7 13419.3 1130.88   2
   5   2  -7 12122.5 1434.33   5
   5   2  -6 103157. 4718.14   5
   5   2  -5 48293.4 2799.17   5
   5   2  -4 1824.40 530.598   5
   5   2  -3 15480.9 1325.20   5
   5   2  -2 18454.7 1377.31   5
   5   2  -1 5416.19 682.170   5
  -5  -2   0 55073.0 2952.85   1
   5   2   0 54172.1 2380.89   5
   5   2   1 47821.9 2087.97   5
  -5  -2  -1 50102.5 2661.91   1
  -5  -2  -1 45953.3 2327.30   3
  -5  -2  -2 23070.7 1718.02   1
  -5  -2  -2 24739.1 1510.18   3
  -5  -2  -2 22011.9 1651.49   4
  -5  -2  -3-10.7399 184.450   3
  -5  -2  -3-497.857 298.239   1
  -5  -2  -3 26.7933 211.674   4
  -5  -2  -4 1821.89 407.707   3
   5   2   4 1784.13 203.211   6
  -5  -2  -4 1582.40 498.103   4
  -5  -2  -4 1354.37 421.938   1
  -5  -2  -5 33521.1 2126.33   1
  -5  -2  -5 34173.2 2211.41   4
  -5  -2  -6 91926.4 4246.40   4
  -5  -2  -6 92031.7 4098.95   1
  -5  -2  -7 51461.8 3024.87   4
  -5  -2  -7 47534.1 2738.71   1
  -5  -2  -8 29626.6 2310.99   4
  -5  -2  -8 29618.6 2119.76   1
  -5  -2  -8 28668.4 1830.52   2
  -5  -2  -9 27429.1 2307.48   4
  -5  -2  -9 29467.0 2162.80   1
  -5  -2  -9 24251.4 1660.12   2
  -5  -2 -10 18985.3 1993.97   4
  -5  -2 -10 20047.5 1839.71   1
  -5  -2 -11 10135.8 1542.29   4
  -5  -2 -12 51513.7 3754.33   4
  -5  -2 -13 33687.1 3114.57   4
  -5  -2 -14 29530.9 3021.48   4
   5   3 -12 20648.1 2489.89   5
   5   3 -11 39497.2 3313.60   5
   5   3 -10 13045.2 1724.47   5
   5   3  -9 22492.2 2202.04   5
   5   3  -8 4999.14 998.779   5
   5   3  -7 3291.01 802.129   5
   5   3  -6 2936.61 709.427   5
   5   3  -5 44222.9 2702.08   5
   5   3  -4 33554.1 2187.73   5
   5   3  -3 13548.5 1267.80   5
  -5  -3   2-96.7652 287.429   1
   5   3  -2 289.643 297.500   5
   5   3  -1 6346.32 784.675   5
  -5  -3   1 6069.44 908.460   1
  -5  -3   0 9660.95 1162.42   1
  -5  -3  -1 26413.3 1925.39   1
  -5  -3  -2 83208.2 3297.23   3
  -5  -3  -2 85826.2 3936.96   1
  -5  -3  -3 65778.8 2644.09   3
  -5  -3  -3 71068.8 3373.74   1
  -5  -3  -3 63570.5 3118.32   4
   5   3   3 63064.6 2078.75   6
  -5  -3  -4 8954.65 764.198   3
  -5  -3  -4 8471.71 1010.81   4
  -5  -3  -4 9331.10 1080.87   1
  -5  -3  -5 6543.89 917.044   1
  -5  -3  -5 6491.86 917.016   4
  -5  -3  -6 32921.8 2246.65   4
  -5  -3  -6 39390.6 2475.07   1
  -5  -3  -7 108977. 4914.05   4
  -5  -3  -7 120546. 5185.02   1
  -5  -3  -8 104375. 4831.95   4
  -5  -3  -8 107356. 4957.67   1
  -5  -3  -9 48570.7 3099.23   4
  -5  -3  -9 48975.0 3157.00   1
  -5  -3  -9 53209.1 2863.77   5
  -5  -3 -10 33328.8 2596.36   4
  -5  -3 -10 31587.2 2564.83   1
  -5  -3 -11 11402.3 1548.87   4
  -5  -3 -11 12542.6 1599.35   1
  -5  -3 -12 23587.4 2332.95   4
  -5  -3 -12 20829.6 2168.66   1
  -5  -3 -13 2961.33 865.233   4
  -5  -3 -14 28738.6 2829.47   4
  -5  -3 -15 8449.57 1600.98   4
   5   4 -12 5626.35 1316.37   5
   5   4 -11 11103.1 1726.03   5
   5   4 -10 9649.60 1550.23   5
   5   4  -9 32689.3 2810.90   5
   5   4  -8 12083.1 1572.07   5
   5   4  -7 1388.07 599.479   5
   5   4  -6 2272.77 636.226   5
   5   4  -5-65.4787 349.221   5
   5   4  -4 5328.79 899.739   5
   5   4  -3 30802.0 2118.28   5
  -5  -4   3 30646.7 2250.53   1
  -5  -4   2 37998.6 2491.03   1
  -5  -4   1 16316.3 1572.11   1
  -5  -4   0 3349.93 691.310   1
  -5  -4  -1 56892.1 3131.80   1
  -5  -4  -2 43109.7 2612.86   1
  -5  -4  -3 137150. 4449.37   3
  -5  -4  -3 141102. 5547.72   1
   5   4   3 126228. 3993.02   6
  -5  -4  -4 162634. 5083.29   3
  -5  -4  -4 160187. 6308.49   1
  -5  -4  -5 68271.3 3390.71   4
  -5  -4  -5 78180.6 3873.29   1
  -5  -4  -6 981.373 387.751   4
  -5  -4  -6 942.536 476.341   1
  -5  -4  -7 53667.1 2987.27   4
  -5  -4  -7 56704.3 3377.38   1
  -5  -4  -8 24708.1 1965.52   4
  -5  -4  -8 27846.0 2324.32   1
  -5  -4  -9 73133.6 3912.91   4
  -5  -4  -9 82747.4 4059.87   5
  -5  -4  -9 85398.3 4584.41   1
  -5  -4 -10 43907.3 2955.11   4
  -5  -4 -10 54405.2 3198.85   5
  -5  -4 -10 46768.0 3383.68   1
  -5  -4 -11 16224.0 1736.22   4
  -5  -4 -11 19648.2 1948.93   5
  -5  -4 -11 18267.2 2090.07   1
  -5  -4 -12 4567.77 1074.63   1
  -5  -4 -12 4880.04 1019.78   4
  -5  -4 -13 3583.38 1012.72   1
  -5  -4 -13 2207.73 724.876   4
   5   5 -12 796.281 444.978   5
   5   5 -11 601.505 522.696   5
   5   5 -10 823.251 614.553   5
   5   5  -9 2337.11 853.551   5
   5   5  -8 12373.1 1682.26   5
   5   5  -7 10949.0 1495.68   5
   5   5  -6 1336.08 607.676   5
   5   5  -5-479.566 390.009   5
   5   5  -4 8101.18 1160.79   5
  -5  -5   4 7619.18 1126.27   1
  -5  -5   3 10158.3 1268.52   1
  -5  -5   2 91204.0 4363.56   1
  -5  -5   1 38027.2 2498.37   1
  -5  -5   0 74645.8 3771.23   1
  -5  -5  -1 44908.6 2753.31   1
  -5  -5  -2 1776.99 560.532   1
  -5  -5  -3 68595.9 3636.03   1
  -5  -5  -4 176181. 5339.97   3
  -5  -5  -4 171659. 6967.05   1
  -5  -5  -5 89794.6 4543.25   1
  -5  -5  -6 61872.1 3177.38   4
  -5  -5  -6 63324.9 3658.61   1
  -5  -5  -7 41612.3 2519.04   4
  -5  -5  -7 43070.1 3052.27   1
  -5  -5  -8 7333.39 1269.23   1
  -5  -5  -8 6745.85 936.909   4
  -5  -5  -9 18189.4 1671.04   4
  -5  -5  -9 18698.6 1817.21   5
  -5  -5  -9 19163.9 2122.72   1
  -5  -5 -10 25973.1 2086.48   4
  -5  -5 -10 29488.6 2431.04   5
  -5  -5 -10 26346.2 2617.61   1
  -5  -5 -11 27291.8 2221.90   4
  -5  -5 -11 36328.7 2833.66   5
  -5  -5 -11 35127.2 3111.91   1
  -5  -5 -12 12783.9 1772.76   5
  -5  -5 -12 12297.4 1909.20   1
  -5  -5 -13-321.637 418.185   1
  -5  -5 -14 1301.27 678.183   1
   5   6 -11 95.8205 368.137   5
   5   6 -10 1325.02 715.855   5
   5   6  -9 693.972 511.582   5
   5   6  -8-693.871 549.135   5
   5   6  -7 24494.9 2400.60   5
   5   6  -6 19601.0 2088.36   5
   5   6  -5 5793.42 1096.23   5
  -5  -6   4 1108.60 519.949   1
  -5  -6   3 11202.4 1363.82   1
  -5  -6   2 62277.8 3522.15   1
  -5  -6   2 66263.8 3226.23   6
  -5  -6   1 44721.2 2851.80   1
  -5  -6   1 46566.1 2472.32   6
  -5  -6   0 112514. 5026.49   1
  -5  -6   0 109390. 4317.24   6
  -5  -6  -1 111467. 4946.69   1
  -5  -6  -1 104760. 4080.42   6
  -5  -6  -2 63567.3 2726.55   6
  -5  -6  -2 68282.7 3623.73   1
  -5  -6  -3 13443.9 954.349   6
  -5  -6  -3 15168.6 1601.39   1
  -5  -6  -4 39474.4 2787.65   1
  -5  -6  -5 85572.5 4574.52   1
  -5  -6  -6 60198.7 3726.31   1
  -5  -6  -7 25157.8 2386.08   1
  -5  -6  -8 18462.6 2096.01   1
  -5  -6  -9 1714.63 731.144   1
  -5  -6 -10 8828.51 1612.48   1
  -5  -6 -10 8654.65 1333.00   5
  -5  -6 -11 4113.40 1015.97   5
  -5  -6 -11 6115.00 1413.36   1
  -5  -6 -12 15576.4 1994.62   5
  -5  -6 -12 16254.5 2321.53   1
  -5  -6 -13 18242.7 2279.98   5
  -5  -6 -13 18880.4 2558.38   1
   5   7 -11 5522.93 1423.99   5
   5   7 -10 1390.79 715.941   5
   5   7  -9 1332.55 673.751   5
   5   7  -8-277.161 602.966   5
   5   7  -7 18748.6 2239.29   5
   5   7  -6 23723.5 2475.56   5
   5   7  -5 65466.3 4084.38   5
  -5  -7   5 54039.3 3410.32   1
  -5  -7   4 32885.5 2494.44   1
  -5  -7   4 36580.7 2547.97   6
  -5  -7   3 17372.2 1769.57   1
  -5  -7   3 15504.3 1538.12   6
  -5  -7   2 19559.5 1850.81   1
  -5  -7   2 20070.5 1676.19   6
  -5  -7   1 54005.9 3262.13   1
  -5  -7   1 57300.3 2957.12   6
  -5  -7   0 57029.8 3358.75   1
  -5  -7   0 59165.2 2922.68   6
  -5  -7  -1 62376.8 3473.88   1
  -5  -7  -1 57023.9 2776.91   6
  -5  -7  -2 61161.4 3480.00   1
  -5  -7  -2 55182.9 2599.25   6
  -5  -7  -3 38516.4 1985.16   6
  -5  -7  -3 42103.3 2851.96   1
  -5  -7  -4 16822.7 1821.14   1
  -5  -7  -5 19191.4 2025.08   1
  -5  -7  -6 11827.2 1629.26   1
  -5  -7  -7 57987.3 3953.17   1
  -5  -7  -8 6960.71 1338.09   1
  -5  -7  -9 1901.68 798.850   1
  -5  -7 -10 7238.27 1464.75   1
  -5  -7 -11 1379.51 704.621   1
  -5  -7 -12 1225.19 830.495   1
  -5  -7 -13 12544.9 1920.63   5
   5   8 -10 21555.2 2817.66   5
   5   8  -9 6441.90 1495.42   5
   5   8  -8 2829.82 964.215   5
   5   8  -7 833.440 580.847   5
   5   8  -6 24098.2 2637.53   5
  -5  -8   5 23650.7 2193.23   6
  -5  -8   5 21784.0 2040.31   1
  -5  -8   4 77398.0 4255.42   1
  -5  -8   4 86518.2 4401.56   6
  -5  -8   3 33446.0 2550.52   1
  -5  -8   3 32963.1 2435.91   6
  -5  -8   2 25997.9 2216.90   1
  -5  -8   2 29187.0 2178.35   6
  -5  -8   1 14641.1 1627.57   1
  -5  -8   1 16939.6 1551.00   6
  -5  -8   0 39614.7 2818.56   1
  -5  -8   0 42992.7 2516.59   6
  -5  -8  -1 25622.7 2191.58   1
  -5  -8  -1 22409.6 1711.30   6
  -5  -8  -2 65181.8 3165.99   6
  -5  -8  -2 67080.9 3876.58   1
  -5  -8  -3 24065.7 1657.49   6
  -5  -8  -3 26530.9 2295.06   1
  -5  -8  -4 9586.33 1457.58   1
  -5  -8  -5 3464.52 897.028   1
  -5  -8  -6 1288.53 648.245   1
  -5  -8  -7 9594.59 1593.07   1
  -5  -8  -8 4675.77 1196.46   1
  -5  -8  -9 14804.0 2158.04   1
  -5  -8 -10 6537.09 1502.52   1
  -5  -8 -11 4290.77 1288.21   1
   5   9  -8 37372.5 3696.77   5
   5   9  -7 16865.2 2382.18   5
   5   9  -6 9984.01 1757.24   5
  -5  -9   6 8303.23 1397.29   6
  -5  -9   5 2682.62 728.610   1
  -5  -9   5 2484.48 758.247   6
  -5  -9   4 64492.3 3894.23   1
  -5  -9   4 76151.2 4194.88   6
  -5  -9   3 27035.2 2346.73   1
  -5  -9   3 30176.1 2407.10   6
  -5  -9   2 32056.4 2432.97   6
  -5  -9   2 34335.5 2634.46   1
  -5  -9   1 10815.2 1342.38   6
  -5  -9   1 9759.59 1377.98   1
  -5  -9   0 12618.8 1573.38   1
  -5  -9   0 11570.4 1313.72   6
  -5  -9  -1-45.8028 402.345   1
  -5  -9  -1 132.287 268.746   6
  -5  -9  -2 21632.5 2162.96   1
  -5  -9  -2 22997.6 1828.01   6
  -5  -9  -3 18489.5 2040.41   1
  -5  -9  -4 20825.7 2246.96   1
  -5  -9  -5 4328.21 1104.96   1
  -5  -9  -6 673.282 569.367   1
  -5  -9  -7 2675.23 901.077   1
  -5  -9  -8 4163.47 1173.71   1
  -5  -9  -9 4409.89 1220.34   1
   5  10  -7 38890.8 3854.50   5
   5  10  -6 20870.1 2659.47   5
  -5 -10   6 16741.2 2054.45   6
  -5 -10   5 2193.60 722.933   6
  -5 -10   4 3705.79 977.197   6
  -5 -10   3 13824.5 1662.54   1
  -5 -10   3 12741.1 1628.45   6
  -5 -10   2 26558.7 2344.43   1
  -5 -10   2 22416.9 2118.63   6
  -5 -10   1 20018.9 2049.99   1
  -5 -10   1 19460.4 1885.81   6
  -5 -10   0 8310.93 1192.30   6
  -5 -10   0 7324.81 1240.05   1
  -5 -10  -1 1732.80 704.069   1
  -5 -10  -1 1679.99 555.668   6
  -5 -10  -2-348.522 465.576   1
  -5 -10  -3 708.082 409.605   1
  -5 -10  -4 4030.59 1058.54   1
  -5 -10  -5 19872.1 2345.37   1
  -5 -10  -6 1558.31 620.061   1
  -5 -10  -7 1052.86 631.143   1
  -5 -11   4 1692.36 723.303   6
  -5 -11   3 27.8958 375.387   6
  -5 -11   2 293.468 514.304   6
  -5 -11   1 6418.10 1165.76   6
  -5 -11   0 6571.51 1149.92   6
  -5 -11   0 5683.10 1141.61   1
  -5 -11  -1 5250.27 1073.46   1
  -5 -11  -2 668.531 416.933   1
  -5 -11  -3 2437.48 815.544   1
  -5 -11  -4 1491.85 751.458   1
  -5 -11  -5 16857.4 2197.16   1
   6  -5  -2 6102.70 1485.55   6
   6  -5  -1-285.654 498.660   6
   6  -5   0-1131.05 791.615   6
   6  -5   1-352.133 482.794   6
   6  -5   2 1706.54 765.792   6
   6  -5   3 18885.9 2139.20   6
   6  -5   4 5209.39 1102.32   6
   6  -5   5 7195.95 1293.63   6
   6  -5   6 9115.80 1465.73   6
  -6   4   7 4898.41 1251.45   3
  -6   4   6 853.849 560.343   3
  -6   4   5 209.664 377.049   3
  -6   4   4 4466.47 1060.50   3
  -6   4   3 403.320 428.834   3
  -6   4   2 12540.4 1699.01   3
   6  -4  -1 11530.8 1765.31   6
   6  -4   0 1673.75 729.644   6
   6  -4   1 494.636 516.556   6
   6  -4   2 152.824 466.866   6
   6  -4   3 9603.69 1406.12   6
   6  -4   4 8456.07 1258.65   6
  -6   4  -4 6868.37 1254.79   4
  -6   4  -5 23132.2 2384.68   4
   6  -4   5 24227.8 2198.97   6
  -6   4  -6 17430.7 2164.35   4
   6  -4   6 20177.4 1979.01   6
  -6   4  -7 12463.3 1893.72   4
  -6   4  -8 6648.26 1438.91   4
  -6   4  -9 10498.7 1912.26   4
  -6   3   8 29974.6 2800.35   3
   6  -3  -8 20415.5 2515.06   5
   6  -3  -7 1922.33 819.245   5
  -6   3   7 4385.38 1116.80   3
  -6   3   6 17569.5 2078.94   3
  -6   3   5 4293.36 1005.26   3
  -6   3   4-1051.10 603.991   3
  -6   3   3 3562.01 973.580   3
  -6   3   2 12690.2 1625.69   3
  -6   3   1 6527.32 1165.77   3
  -6   3   0 21169.8 2087.38   3
  -6   3  -1 9323.31 1250.35   4
   6  -3   1 12133.7 1504.68   6
   6  -3   2 12282.9 1491.11   6
  -6   3  -2 7523.53 1215.67   4
  -6   3  -3 13138.4 1621.98   4
   6  -3   3 14419.8 1589.06   6
  -6   3  -4 21397.7 2127.36   4
   6  -3   4 21855.5 1935.04   6
  -6   3  -5 32461.2 2761.50   4
   6  -3   5 31679.3 2370.09   6
  -6   3  -6 50566.5 3699.98   4
   6  -3   6 57520.5 3283.85   6
  -6   3  -7 36125.9 3199.55   4
  -6   3  -8 13347.6 1988.83   4
  -6   3  -9 9281.66 1702.15   4
  -6   3 -10 12136.3 2004.09   4
   6  -2  -9-325.268 449.507   5
  -6   2   9 375.312 492.478   3
   6  -2  -8 594.415 442.847   5
  -6   2   8-15.1743 356.510   3
   6  -2  -7-1269.26 649.935   5
  -6   2   7-243.945 513.670   3
   6  -2  -6 7421.51 1288.18   5
  -6   2   6 8453.93 1386.82   3
  -6   2   5 19400.4 2032.14   3
   6  -2  -5 16275.4 1884.46   5
  -6   2   4 17041.4 1890.45   3
   6  -2  -4 17647.9 1844.64   5
  -6   2   3 2332.67 734.518   3
  -6   2   2 277.572 320.953   3
  -6   2   1 26132.2 2231.47   3
  -6   2   0 38087.1 2706.93   3
  -6   2  -1 62894.9 3604.36   3
  -6   2  -1 62284.1 3464.06   4
  -6   2  -2 35367.4 2572.64   3
  -6   2  -2 32511.8 2438.02   4
   6  -2   2 35291.6 2431.42   6
  -6   2  -3 18746.4 1871.71   4
   6  -2   3 22276.6 1802.28   6
  -6   2  -4 13564.6 1627.47   4
   6  -2   4 12622.1 1332.97   6
  -6   2  -5 32384.8 2665.70   4
   6  -2   5 31278.2 2159.80   6
  -6   2  -6 27471.4 2516.39   4
   6  -2   6 25943.6 1945.17   6
  -6   2  -7 64278.9 4222.47   4
  -6   2  -8 54026.5 3973.88   4
  -6   2  -9 14451.4 2059.76   4
  -6   2 -10 4005.74 1248.96   4
  -6   2 -11 2260.57 956.571   4
   6  -1 -10 10072.4 1715.69   5
  -6   1  10 16441.5 2130.25   3
   6  -1  -9 5709.15 1282.00   5
  -6   1   9 4739.04 1081.22   3
   6  -1  -8 196.352 427.231   5
  -6   1   8 768.405 573.820   3
   6  -1  -7 384.197 507.466   5
  -6   1   7 295.403 453.779   3
   6  -1  -6-40.5088 364.011   5
  -6   1   6-29.6133 358.578   3
  -6   1   5 13267.8 1637.14   3
   6  -1  -5 13111.0 1606.39   5
  -6   1   4 32040.5 2529.15   3
   6  -1  -4 25459.6 2224.59   5
  -6   1   3 37011.7 2694.44   3
   6  -1  -3 37277.4 2564.37   5
  -6   1   2 18101.5 1748.16   3
  -6   1   2 13768.2 1468.24   2
   6  -1  -2 13692.9 1406.37   5
  -6   1   1 21218.9 1891.31   3
  -6   1   1 20295.7 1776.18   2
  -6   1   0 4806.48 989.202   3
  -6   1   0 6970.60 1273.94   2
  -6   1  -1 181800. 7067.84   3
  -6   1  -1 172599. 6911.24   4
  -6   1  -1 187304. 7124.35   2
  -6   1  -2 95961.9 4465.26   3
  -6   1  -2 87978.5 4386.31   4
  -6   1  -2 95396.2 4474.95   2
  -6   1  -3 81789.2 4087.73   3
  -6   1  -3 77507.2 4111.57   4
  -6   1  -3 81299.8 4071.96   2
   6  -1   3 86898.4 3777.01   6
  -6   1  -4 45057.5 3013.01   4
  -6   1  -4 45526.9 2840.12   2
   6  -1   4 45770.8 2490.23   6
  -6   1  -5 34986.1 2672.59   4
   6  -1   5 36830.9 2135.08   6
   6  -1   6 1975.14 456.886   6
  -6   1  -6 935.876 463.027   4
  -6   1  -7 37670.5 3009.15   4
  -6   1  -8 22964.5 2413.99   4
  -6   1  -9 38386.4 3316.79   4
  -6   1 -10 4798.01 1228.96   4
  -6   1 -11 962.323 631.325   4
  -6   1 -12 90.7803 387.235   4
   6   0 -10 2148.23 775.477   5
   6   0  -9 8210.30 1431.71   5
   6   0  -8 10105.7 1557.19   5
   6   0  -7 7605.54 1297.84   5
   6   0  -6 3003.72 775.210   5
  -6   0   6 2624.25 839.973   3
  -6   0   6 1969.84 580.307   2
   6   0  -5 9307.94 1280.51   5
  -6   0   5 9497.99 1332.99   3
  -6   0   5 9044.59 1103.32   2
  -6   0   4 25499.1 2177.57   3
  -6   0   4 23928.2 1869.22   2
   6   0  -4 22796.3 1985.28   5
  -6   0   3 79391.2 4075.84   3
  -6   0   3 71447.6 3636.39   2
   6   0  -3 75885.9 3825.20   5
  -6   0   2 136995. 5703.94   3
  -6   0   2 124491. 5330.40   2
   6   0  -2 130232. 5340.55   5
  -6   0   1 72851.4 3695.73   3
  -6   0   1 66158.3 3486.82   2
   6   0  -1 73328.1 3375.71   5
  -6   0   0 13976.3 1415.60   3
  -6   0   0 12919.3 1411.63   2
   6   0   0 15924.3 1227.54   5
  -6   0  -1 33929.3 2272.29   3
  -6   0  -1 34622.9 2334.49   2
  -6   0  -2 22065.0 1794.37   3
  -6   0  -2 22890.5 1909.40   4
  -6   0  -2 26916.2 2075.07   2
  -6   0  -3 96145.7 4418.83   3
  -6   0  -3 95136.8 4635.22   4
  -6   0  -3 105801. 4670.12   2
   6   0   3 109025. 4126.53   6
  -6   0  -4 93586.2 4548.65   4
   6   0   4 94685.9 3740.53   6
  -6   0  -4 89069.0 4279.88   2
  -6   0  -5 38136.0 2723.12   4
   6   0   5 39857.9 2023.41   6
  -6   0  -5 38589.5 2523.13   2
  -6   0  -6 11618.7 1486.65   4
  -6   0  -6 9579.35 1204.87   2
  -6   0  -7 143.986 251.007   2
  -6   0  -7-2077.53 717.250   4
  -6   0  -8 9218.97 1120.52   2
  -6   0  -8 9849.40 1496.41   4
  -6   0  -9 11641.6 1756.23   4
  -6   0 -10 18925.1 2334.85   4
  -6   0 -11 4560.58 1224.29   4
  -6   0 -12-957.661 688.429   4
   6   1 -11-1363.88 709.933   5
   6   1 -10 3050.48 959.950   5
   6   1  -9 13781.2 1828.22   5
   6   1  -8 11446.6 1601.52   5
  -6  -1   7 32915.3 2149.68   2
   6   1  -7 34002.6 2705.18   5
  -6  -1   6 36830.0 2263.79   2
   6   1  -6 31061.7 2495.20   5
  -6  -1   5 18103.2 1526.66   2
   6   1  -5 15517.3 1641.14   5
  -6  -1   4 13207.3 1294.98   2
   6   1  -4 12801.4 1389.70   5
  -6  -1   3 26160.4 1907.16   2
   6   1  -3 26816.1 1959.65   5
  -6  -1   2 105802. 4705.88   3
  -6  -1   2 100624. 4500.95   2
   6   1  -2 104832. 4386.22   5
  -6  -1   1 149307. 5862.41   3
  -6  -1   1 144267. 5740.67   2
   6   1  -1 141432. 5361.88   5
  -6  -1   0 94877.5 4248.30   3
  -6  -1   0 92654.4 4248.69   2
   6   1   0 96943.5 3777.51   5
  -6  -1  -1 35443.7 2215.12   3
  -6  -1  -1 37015.2 2368.09   2
   6   1   1 35113.5 1767.16   5
  -6  -1  -2 41733.4 2390.33   3
  -6  -1  -2 42856.3 2580.58   4
  -6  -1  -2 43268.2 2547.17   2
   6   1   2 36337.6 1658.29   5
  -6  -1  -3 4309.51 773.530   1
  -6  -1  -3 6060.19 824.965   3
  -6  -1  -3 5329.78 890.056   4
  -6  -1  -3 4757.40 838.483   2
  -6  -1  -4 35570.3 2277.09   1
  -6  -1  -4 37340.4 2244.29   3
  -6  -1  -4 35637.1 2490.00   4
   6   1   4 38847.1 1811.34   6
  -6  -1  -4 37575.6 2427.14   2
  -6  -1  -5 59189.0 3069.34   1
  -6  -1  -5 61503.9 3485.50   4
  -6  -1  -5 64243.3 3307.26   2
  -6  -1  -6 28565.8 1966.74   1
  -6  -1  -6 32349.1 2463.24   4
  -6  -1  -6 29852.3 2099.12   2
  -6  -1  -7-117.767 462.181   4
  -6  -1  -7-152.121 247.388   2
  -6  -1  -8 1508.61 468.171   2
  -6  -1  -8 1873.60 601.374   4
  -6  -1  -9 14564.4 1812.87   4
  -6  -1  -9 10458.6 1189.01   2
  -6  -1 -10 25800.4 2593.25   4
  -6  -1 -11 12643.4 1888.99   4
  -6  -1 -12 9421.71 1748.27   4
  -6  -1 -13 2131.12 864.214   4
   6   2 -11 3042.63 1031.76   5
   6   2 -10-1110.63 651.419   5
   6   2  -9 7135.13 1320.32   5
   6   2  -8 24102.1 2287.02   5
  -6  -2   7 44117.0 2500.28   2
   6   2  -7 43002.7 3013.73   5
  -6  -2   6 60699.2 3053.65   2
   6   2  -6 57348.0 3410.37   5
  -6  -2   5 74314.4 3521.51   2
   6   2  -5 68222.4 3700.80   5
   6   2  -4 60228.9 3249.88   5
   6   2  -3 33122.9 2174.77   5
   6   2  -2 25608.1 1788.01   5
   6   2  -1 65482.4 3025.32   5
   6   2   0 96084.6 3784.47   5
  -6  -2   0 93408.9 4095.05   3
   6   2   1 61514.6 2620.86   5
  -6  -2  -1 60728.0 2969.82   3
  -6  -2  -1 60002.8 3294.09   1
   6   2   2 13644.1 923.548   5
  -6  -2  -2 10675.8 1244.63   1
  -6  -2  -2 11050.5 1083.08   3
   6   2   3 2165.09 328.453   5
  -6  -2  -3 2945.88 547.619   3
  -6  -2  -3 2535.76 625.254   1
  -6  -2  -3 1063.40 425.026   4
  -6  -2  -4 7873.10 886.489   3
  -6  -2  -4 7568.55 1076.12   4
  -6  -2  -4 6876.37 993.896   1
   6   2   4 6001.62 523.362   6
  -6  -2  -5 2094.69 576.221   1
  -6  -2  -5 2495.81 640.297   4
  -6  -2  -6 13080.1 1331.06   1
  -6  -2  -6 11353.9 1401.01   4
  -6  -2  -7 53061.1 2988.74   1
  -6  -2  -7 52675.9 3255.30   4
  -6  -2  -7 47301.1 2764.51   2
  -6  -2  -8 11445.4 1314.16   1
  -6  -2  -8 14079.4 1656.71   4
  -6  -2  -8 14055.2 1342.72   2
  -6  -2  -9 6180.74 1183.12   4
  -6  -2  -9 6263.49 882.199   2
  -6  -2 -10 403.512 357.070   4
  -6  -2 -11 3368.11 1024.31   4
  -6  -2 -12 12174.5 1831.20   4
  -6  -2 -13 12929.3 2003.52   4
  -6  -2 -14 9957.16 1825.74   4
   6   3 -11 24862.8 2737.53   5
   6   3 -10 33766.7 3030.86   5
   6   3  -9 8357.57 1376.74   5
   6   3  -8 13158.1 1667.51   5
   6   3  -7 13161.2 1617.74   5
   6   3  -6 108798. 5198.23   5
   6   3  -5 22651.4 1971.98   5
   6   3  -4 87996.2 4195.47   5
   6   3  -3 42919.5 2555.50   5
   6   3  -2 15133.7 1357.37   5
   6   3  -1 7092.94 871.591   5
  -6  -3   1 7573.58 1070.47   1
  -6  -3   0 61785.9 3468.05   1
   6   3   0 63381.0 2928.70   5
   6   3   1 32325.8 1816.09   5
  -6  -3  -1 31417.0 2268.16   1
  -6  -3  -1 29274.8 1829.35   3
  -6  -3  -2 38754.7 2531.25   1
  -6  -3  -2 39007.9 2111.80   3
  -6  -3  -3 7112.56 795.154   3
  -6  -3  -3 9612.71 1171.40   4
  -6  -3  -3 8241.66 1094.80   1
  -6  -3  -4 27.5507 183.761   3
  -6  -3  -4-100.763 263.297   4
  -6  -3  -5-158.381 320.603   4
  -6  -3  -5 520.649 317.859   1
  -6  -3  -6 466.165 324.351   1
  -6  -3  -6 253.126 277.176   4
  -6  -3  -7 5758.69 971.888   1
  -6  -3  -7 5724.20 986.225   4
  -6  -3  -8 25472.9 2210.18   4
  -6  -3  -8 24016.4 2038.48   1
  -6  -3  -9 24918.8 2257.41   4
  -6  -3  -9 22359.1 2013.81   1
  -6  -3 -10 3029.25 769.515   1
  -6  -3 -10 2099.95 664.217   4
  -6  -3 -11 4100.81 981.390   4
  -6  -3 -12 5287.20 1144.45   4
  -6  -3 -13 21132.8 2444.19   4
  -6  -3 -14 20631.7 2499.09   4
   6   4 -11 13449.0 1987.18   5
   6   4 -10 56270.1 4098.40   5
   6   4  -9 34728.9 3019.76   5
   6   4  -8 29915.3 2682.71   5
   6   4  -7 6601.02 1189.03   5
   6   4  -6 49306.5 3245.87   5
   6   4  -5 13075.8 1508.83   5
   6   4  -4 108567. 4962.49   5
   6   4  -3 30521.4 2178.95   5
   6   4  -2 16658.6 1521.01   5
  -6  -4   2 17514.8 1789.39   1
  -6  -4   1 67.1346 318.450   1
   6   4  -1 106.920 251.346   5
  -6  -4   0 1215.84 452.408   1
  -6  -4  -1 2516.62 683.902   1
  -6  -4  -2 19229.6 1760.15   1
  -6  -4  -2 15995.0 1206.09   3
  -6  -4  -3 19751.8 1312.32   3
  -6  -4  -3 20843.1 1848.39   1
  -6  -4  -4 15143.9 1087.17   3
  -6  -4  -4 16757.2 1631.16   1
  -6  -4  -5 2242.83 579.551   1
  -6  -4  -5 1610.87 473.329   4
  -6  -4  -6 3160.43 713.055   1
  -6  -4  -6 2767.71 640.753   4
  -6  -4  -7 6153.64 1055.92   1
  -6  -4  -7 7022.68 1052.99   4
  -6  -4  -8 14089.6 1552.93   4
  -6  -4  -8 13612.9 1611.48   1
  -6  -4  -9 24718.8 2185.64   4
  -6  -4  -9 30160.4 2501.90   1
  -6  -4 -10 23895.3 2205.01   4
  -6  -4 -10 23109.0 2279.35   1
  -6  -4 -11 15383.0 1829.43   4
  -6  -4 -11 18522.4 2043.97   1
  -6  -4 -12 4150.05 992.718   4
  -6  -4 -12 4655.16 1073.05   1
  -6  -4 -13 4541.01 1071.57   4
  -6  -4 -14 12675.6 1831.16   4
   6   5 -11 6109.35 1478.36   5
   6   5 -10 23571.2 2680.40   5
   6   5  -9 51033.6 3897.34   5
   6   5  -8 37412.8 3147.43   5
   6   5  -7 18014.2 2018.26   5
   6   5  -6 8673.46 1359.81   5
   6   5  -5 692.376 454.457   5
   6   5  -4 969.572 430.040   5
   6   5  -3 50436.5 3112.63   5
  -6  -5   3 50472.2 3270.46   1
  -6  -5   2 34899.8 2574.12   1
  -6  -5   1 13861.1 1561.18   1
  -6  -5   0 1255.00 617.280   1
  -6  -5  -1 2271.06 689.693   1
  -6  -5  -2 3416.60 784.461   1
  -6  -5  -3 69563.9 2798.06   3
  -6  -5  -3 64471.3 3680.54   1
  -6  -5  -4 1611.65 585.136   1
  -6  -5  -4 2125.36 376.281   3
  -6  -5  -5 30396.0 2418.26   1
  -6  -5  -6 12412.5 1361.40   4
  -6  -5  -6 14291.1 1633.88   1
  -6  -5  -7 5107.03 1001.47   1
  -6  -5  -7 3664.74 733.143   4
  -6  -5  -8 4976.51 914.522   4
  -6  -5  -8 4420.01 960.007   1
  -6  -5  -9 49272.8 3132.93   4
  -6  -5  -9 53384.0 3659.57   1
  -6  -5 -10 33096.2 2537.84   4
  -6  -5 -10 34809.0 2957.63   1
  -6  -5 -11 26078.1 2313.83   4
  -6  -5 -11 29426.4 2782.86   1
  -6  -5 -12 16277.4 1863.02   4
  -6  -5 -12 18152.3 2231.18   1
  -6  -5 -13 13554.8 1948.95   1
   6   6 -10 2691.35 918.818   5
   6   6  -9 5558.06 1311.45   5
   6   6  -8 36366.2 3243.52   5
   6   6  -7 27933.6 2705.18   5
   6   6  -6 15834.5 1913.73   5
   6   6  -5 3484.17 898.590   5
   6   6  -4 1893.41 660.199   5
  -6  -6   4 1377.47 446.537   1
  -6  -6   3-226.433 330.400   1
  -6  -6   2 146.577 350.970   1
  -6  -6   1 57877.1 3499.95   1
  -6  -6   0 13404.8 1539.67   1
  -6  -6  -1 2495.63 705.744   1
  -6  -6  -2 5609.69 1003.93   1
  -6  -6  -3 58521.7 3513.79   1
  -6  -6  -4 2988.64 774.597   1
  -6  -6  -5 76970.2 4273.75   1
  -6  -6  -6 41402.8 3043.04   1
  -6  -6  -7 37508.7 2982.96   1
  -6  -6  -8 6373.18 1218.53   1
  -6  -6  -9 11088.5 1322.08   4
  -6  -6  -9 9650.15 1567.09   1
  -6  -6 -10 20900.2 1896.33   4
  -6  -6 -10 22564.9 2489.82   1
  -6  -6 -11 32230.6 3098.78   1
  -6  -6 -12 20192.2 2511.52   1
  -6  -6 -13 7548.64 1599.58   1
   6   7 -10 5851.34 1430.47   5
   6   7  -9-21.2020 381.069   5
   6   7  -8 1665.37 773.227   5
   6   7  -7 1006.59 575.552   5
   6   7  -6 13116.2 1851.02   5
   6   7  -5 9413.29 1548.00   5
  -6  -7   4 4052.32 899.460   1
   6   7  -4 4893.81 1132.82   5
  -6  -7   3-187.070 387.507   1
  -6  -7   2 95.6310 362.445   1
  -6  -7   1 4972.79 977.574   1
  -6  -7   0 37620.4 2760.35   1
  -6  -7  -1 46254.6 3111.35   1
  -6  -7  -2 15387.5 1697.71   1
  -6  -7  -3 6632.95 1148.97   1
  -6  -7  -4 7367.00 1270.25   1
  -6  -7  -5 20089.0 2119.85   1
  -6  -7  -6 60101.0 3944.34   1
  -6  -7  -7 55140.6 3887.39   1
  -6  -7  -8 39971.0 3308.92   1
  -6  -7  -9 13004.3 1872.77   1
  -6  -7 -10 13324.2 1957.81   1
  -6  -7 -11 3162.05 989.240   1
  -6  -7 -12 42922.3 3939.90   1
   6   8  -9 1594.69 817.184   5
   6   8  -8 439.462 577.011   5
   6   8  -7-668.189 598.366   5
   6   8  -6-1031.78 711.614   5
   6   8  -5 8613.64 1538.95   5
  -6  -8   5 5272.12 1077.72   1
  -6  -8   4 12376.0 1605.32   1
  -6  -8   3 6094.29 1139.65   1
  -6  -8   2 310.703 304.753   6
  -6  -8   2 1729.88 627.079   1
  -6  -8   1 1322.11 585.981   1
  -6  -8   1 1410.02 465.870   6
  -6  -8   0 10240.3 1140.90   6
  -6  -8   0 8471.52 1311.18   1
  -6  -8  -1 34144.7 2685.21   1
  -6  -8  -1 33507.3 2094.77   6
  -6  -8  -2 50406.4 3377.30   1
  -6  -8  -3 48326.7 3326.00   1
  -6  -8  -4 35606.7 2875.84   1
  -6  -8  -5 3562.66 912.678   1
  -6  -8  -6 32610.9 2938.09   1
  -6  -8  -7 20939.1 2373.87   1
  -6  -8  -8 46379.7 3787.98   1
  -6  -8  -9 20679.1 2531.48   1
  -6  -8 -10 9673.49 1767.05   1
   6   9  -8 1911.17 965.486   5
   6   9  -7 1906.22 868.216   5
   6   9  -6-536.227 541.469   5
   6   9  -5 3715.32 1138.32   5
  -6  -9   5 1350.02 565.925   1
  -6  -9   4 5709.50 1115.02   1
  -6  -9   4 5723.24 1137.39   6
  -6  -9   3 20296.2 2122.84   1
  -6  -9   3 23176.9 2096.75   6
  -6  -9   2 29910.9 2616.72   1
  -6  -9   2 34025.4 2500.97   6
  -6  -9   1 13338.8 1695.06   1
  -6  -9   1 13613.5 1492.79   6
  -6  -9   0 1967.75 556.767   6
  -6  -9   0 1557.12 711.914   1
  -6  -9  -1 25833.0 2398.53   1
  -6  -9  -2 25905.3 2432.55   1
  -6  -9  -3 34148.7 2846.68   1
  -6  -9  -4 40963.9 3225.00   1
  -6  -9  -5 31708.8 2864.14   1
  -6  -9  -6 10843.1 1717.55   1
  -6  -9  -7 2700.81 966.024   1
  -6  -9  -8 11119.6 1878.81   1
  -6  -9  -9 25602.0 2944.09   1
   6  10  -6 2121.53 935.649   5
  -6 -10   5 2751.11 884.336   6
  -6 -10   4 9084.60 1414.14   1
  -6 -10   4 7939.13 1349.64   6
  -6 -10   3 2541.22 847.703   1
  -6 -10   3 2458.94 814.216   6
  -6 -10   2 36078.7 2956.96   1
  -6 -10   2 40800.5 2946.96   6
  -6 -10   1 24305.3 2394.73   1
  -6 -10   1 26766.8 2284.11   6
  -6 -10   0 17018.3 1994.24   1
  -6 -10   0 15510.3 1658.96   6
  -6 -10  -1 10637.5 1578.48   1
  -6 -10  -2 10749.1 1610.67   1
  -6 -10  -3 18800.1 2134.43   1
  -6 -10  -4 22370.0 2432.16   1
  -6 -10  -5 14996.5 2049.89   1
  -6 -10  -6 11812.4 1842.59   1
  -6 -10  -7 6731.86 1450.47   1
  -6 -11   4 7310.82 1343.79   6
  -6 -11   3 4583.55 1031.36   6
  -6 -11   2 20174.9 2187.16   1
  -6 -11   2 16679.6 1890.88   6
  -6 -11   1 16884.0 2006.66   1
  -6 -11   0 16054.5 1967.21   1
  -6 -11  -1 9914.75 1594.91   1
  -6 -11  -2 4820.59 1077.43   1
  -6 -11  -3 2373.04 901.103   1
  -6 -11  -4 7531.29 1460.70   1
   7  -4  -2 35990.0 3465.92   6
   7  -4  -1 27222.2 2912.18   6
   7  -4   0 7665.47 1463.61   6
   7  -4   1-179.932 515.332   6
   7  -4   2 6981.99 1325.26   6
   7  -4   3 285.182 414.656   6
   7  -4   4 10895.8 1541.19   6
  -7   4  -7 3379.21 1068.79   4
  -7   3   5 14475.7 2002.88   3
  -7   3   4 2479.13 849.109   3
  -7   3   3 9466.53 1579.74   3
  -7   3   2 4131.05 1025.18   3
  -7   3   1 9447.30 1516.47   3
  -7   3   0 18045.5 2102.38   3
   7  -3   0 20701.5 2271.72   6
   7  -3   1 2101.23 774.779   6
   7  -3   2 579.762 544.618   6
   7  -3   3 3554.81 881.941   6
  -7   3  -3 1478.91 607.838   4
   7  -3   4 3609.87 840.648   6
  -7   3  -4 2170.15 788.010   4
  -7   3  -5 7653.93 1443.56   4
  -7   3  -6 8462.20 1554.29   4
  -7   3  -7 5451.23 1295.42   4
  -7   3  -8 927.589 582.342   4
  -7   2   7 6245.94 1320.82   3
  -7   2   6 43072.7 3451.86   3
  -7   2   5 10287.2 1640.43   3
  -7   2   4 2274.04 804.111   3
  -7   2   3 6671.73 1267.00   3
  -7   2   2 784.533 495.742   3
  -7   2   1 1289.53 650.430   3
  -7   2   0 6305.09 1176.68   3
  -7   2  -1 11913.1 1598.87   3
   7  -2   1 18737.7 1917.08   6
  -7   2  -2 10559.0 1435.05   4
   7  -2   2 13729.9 1579.64   6
   7  -2   3-243.966 314.977   6
  -7   2  -3 53.0110 364.559   4
   7  -2   4 1389.99 465.777   6
  -7   2  -4 762.296 509.201   4
  -7   2  -5 3286.64 897.460   4
  -7   2  -6 10421.3 1661.32   4
  -7   2  -7 17341.6 2201.17   4
  -7   2  -8 16549.2 2279.56   4
  -7   2  -9 12364.4 1966.78   4
   7  -1  -9 10368.2 1764.18   5
   7  -1  -8 4618.61 1099.95   5
  -7   1   8 5768.55 1216.01   3
   7  -1  -7 13.0588 397.939   5
  -7   1   7 662.174 580.355   3
   7  -1  -6 8809.42 1454.79   5
  -7   1   6 12183.4 1738.66   3
  -7   1   5 18290.9 2090.96   3
  -7   1   4 12754.8 1697.64   3
  -7   1   3 888.267 546.022   3
  -7   1   2 179.941 332.540   3
  -7   1   1-184.185 377.647   3
  -7   1   0-186.304 349.320   3
  -7   1  -1 6142.16 1085.23   3
  -7   1  -1 5972.78 1054.76   2
  -7   1  -2 9193.45 1310.33   3
  -7   1  -2 6626.87 1164.06   4
  -7   1  -3 17809.1 1902.74   4
   7  -1   3 21597.8 1758.84   6
  -7   1  -4 20021.1 2054.72   4
   7  -1   4 19731.1 1647.17   6
  -7   1  -5-32.0490 336.771   4
  -7   1  -6 9710.02 1548.20   4
  -7   1  -7 30070.2 2823.31   4
  -7   1  -8 33503.1 3114.45   4
  -7   1  -9 35389.2 3314.51   4
  -7   1 -10 24413.9 2841.62   4
   7   0  -9 17871.7 2282.26   5
  -7   0   9 23052.4 2586.40   3
   7   0  -8 6105.70 1310.94   5
  -7   0   8 6837.07 1385.99   3
   7   0  -7-154.469 409.117   5
  -7   0   7-684.893 571.983   3
   7   0  -6 1269.17 597.980   5
  -7   0   6 1087.08 574.181   3
   7   0  -5 2351.85 723.261   5
  -7   0   5 4201.80 993.519   3
  -7   0   5 4621.41 897.555   2
   7   0  -4 924.179 505.683   5
  -7   0   4 713.873 417.058   3
  -7   0   4 390.849 295.435   2
  -7   0   3 28134.9 2413.56   3
  -7   0   3 26273.2 2153.12   2
   7   0  -3 31818.7 2424.94   5
  -7   0   2 5810.93 1050.56   3
  -7   0   2 5295.48 986.501   2
  -7   0   1 763.994 411.384   3
  -7   0   1 700.968 454.277   2
  -7   0   0 2780.04 734.155   3
  -7   0   0 2861.62 762.466   2
  -7   0  -1 11603.9 1398.18   3
  -7   0  -1 11790.2 1421.33   2
  -7   0  -2 3757.66 859.353   3
  -7   0  -2 2888.09 852.328   4
  -7   0  -2 5888.16 1146.97   2
  -7   0  -3 73404.7 3874.53   3
  -7   0  -3 72234.6 4039.94   4
  -7   0  -3 70959.9 3957.05   2
   7   0   3 81712.2 3576.59   6
  -7   0  -4 29616.7 2459.90   4
  -7   0  -4 31591.5 2420.26   2
   7   0   4 30588.1 1921.77   6
  -7   0  -5 14960.1 1747.87   4
  -7   0  -5 14528.2 1624.15   2
  -7   0  -6 25352.2 2387.16   4
  -7   0  -6 22520.8 2033.65   2
  -7   0  -7 14804.4 1876.63   4
  -7   0  -7 10938.6 1379.18   2
  -7   0  -8 20566.1 2342.28   4
  -7   0  -9 43490.7 3612.31   4
  -7   0 -10 33724.0 3286.97   4
  -7   0 -11 29661.3 3195.13   4
   7   1 -10 1494.41 672.988   5
   7   1  -9 2034.41 713.309   5
   7   1  -8 22041.2 2422.02   5
   7   1  -7 11049.8 1598.72   5
  -7  -1   7 8435.62 1142.94   2
   7   1  -6 625.390 476.811   5
  -7  -1   6-143.304 281.959   2
   7   1  -5 146.513 332.279   5
  -7  -1   5 287.479 335.082   3
  -7  -1   5-87.5200 288.419   2
   7   1  -4 445.295 378.889   5
  -7  -1   4-193.583 470.812   3
  -7  -1   4-338.162 447.475   2
  -7  -1   3 21794.5 2005.24   3
  -7  -1   3 18867.9 1747.12   2
   7   1  -3 18519.9 1796.20   5
   7   1  -2 7706.07 1066.93   5
  -7  -1   2 6071.37 1051.44   3
  -7  -1   2 7737.06 1087.94   2
  -7  -1   1 25966.5 2116.31   3
  -7  -1   1 27863.9 2173.54   2
   7   1  -1 26599.9 1931.28   5
  -7  -1   0 16598.5 1620.69   3
  -7  -1   0 16750.0 1645.39   2
  -7  -1  -1 6712.70 986.767   3
  -7  -1  -1 7305.22 1091.61   2
  -7  -1  -2 5367.62 924.278   3
  -7  -1  -2 6788.17 1186.13   2
  -7  -1  -3 67137.3 3475.29   3
  -7  -1  -3 60430.6 3600.26   4
  -7  -1  -3 73554.3 3852.99   2
  -7  -1  -4 77713.0 3814.65   3
  -7  -1  -4 75863.6 4146.54   4
  -7  -1  -4 75391.8 4039.63   2
  -7  -1  -5 76019.0 4188.67   4
  -7  -1  -5 78139.5 3988.87   2
  -7  -1  -5 65310.4 3540.88   1
  -7  -1  -6 30443.4 2584.29   4
  -7  -1  -6 32033.9 2412.36   2
  -7  -1  -7 33091.8 2758.52   4
  -7  -1  -7 29670.3 2322.15   2
  -7  -1  -8 14343.7 1856.34   4
  -7  -1  -8 15618.4 1611.76   2
  -7  -1  -9 9493.60 1254.21   2
  -7  -1  -9 11534.6 1734.13   4
  -7  -1 -10 26314.1 2777.96   4
  -7  -1 -11 17889.6 2380.54   4
  -7  -1 -12 10890.8 1897.66   4
   7   2 -10 525.894 592.864   5
   7   2  -9 5334.20 1278.12   5
   7   2  -8 2500.60 823.637   5
   7   2  -7 7382.67 1321.75   5
  -7  -2   7 8110.78 1062.32   2
  -7  -2   6 19353.2 1733.72   2
   7   2  -6 21227.0 2091.22   5
   7   2  -5 2904.35 739.151   5
  -7  -2   5 2573.15 624.202   2
   7   2  -4 317.096 360.120   5
  -7  -2   4-127.027 312.713   2
   7   2  -3 2071.00 583.839   5
  -7  -2   3 2602.11 662.633   2
  -7  -2   2 29189.5 2203.99   3
  -7  -2   2 31169.9 2231.26   2
   7   2  -2 24629.4 1922.15   5
  -7  -2   1 51603.5 2995.90   3
  -7  -2   1 50411.0 3022.54   2
   7   2  -1 49494.5 2732.97   5
  -7  -2   0 84580.2 3979.96   3
   7   2   0 77830.3 3550.01   5
  -7  -2  -1 61685.6 3257.54   3
   7   2   1 65136.6 2911.44   5
  -7  -2  -2 25926.0 1875.96   3
  -7  -2  -2 23399.9 2019.67   1
  -7  -2  -3 3194.92 817.770   1
  -7  -2  -3 4910.71 791.203   3
  -7  -2  -3 4544.84 884.705   4
  -7  -2  -4 59591.8 3439.93   1
  -7  -2  -4 65975.9 3250.50   3
  -7  -2  -4 62563.0 3587.54   4
  -7  -2  -4 64051.5 3545.00   2
  -7  -2  -5 41683.1 2780.61   1
  -7  -2  -5 46506.0 3065.93   4
  -7  -2  -5 50547.8 3026.36   2
  -7  -2  -6 85080.7 4311.92   1
  -7  -2  -6 96502.1 4838.94   4
  -7  -2  -6 92020.3 4437.55   2
  -7  -2  -7 27533.2 2165.70   1
  -7  -2  -7 27899.0 2462.60   4
  -7  -2  -7 30981.3 2290.25   2
  -7  -2  -8 8491.82 1362.72   4
  -7  -2  -8 10025.7 1253.39   2
  -7  -2  -9 11346.3 1633.69   4
  -7  -2  -9 7432.85 1059.94   2
  -7  -2 -10 16184.0 2088.31   4
  -7  -2 -11-418.114 513.740   4
  -7  -2 -12 17926.0 2312.81   4
   7   3 -10 3622.20 1045.27   5
   7   3  -9 464.140 436.446   5
   7   3  -8 187.126 430.511   5
   7   3  -7 1527.03 590.457   5
  -7  -3   7 1763.07 520.247   2
   7   3  -6 10738.5 1478.80   5
  -7  -3   6 12550.7 1336.92   2
   7   3  -5 41089.3 2889.73   5
   7   3  -4 27947.9 2232.04   5
   7   3  -3 10366.1 1269.31   5
   7   3  -2 2886.28 611.920   5
   7   3  -1 36900.2 2300.40   5
   7   3   0 57200.0 2941.57   5
  -7  -3   0 62307.5 3192.46   3
  -7  -3   0 67892.0 3747.84   1
   7   3   1 107772. 4298.05   5
  -7  -3  -1 112123. 4624.82   3
  -7  -3  -1 103240. 5106.40   1
  -7  -3  -2 99524.4 4823.21   1
   7   3   2 98567.0 3926.58   5
  -7  -3  -2 101252. 4264.42   3
   7   3   3 38655.2 1956.17   5
  -7  -3  -3 34485.5 2582.98   1
  -7  -3  -3 38126.4 2226.01   3
  -7  -3  -4 24823.0 1690.46   3
  -7  -3  -4 20078.3 1906.63   1
  -7  -3  -4 20570.4 1902.92   4
  -7  -3  -5 3819.63 636.924   3
  -7  -3  -5 3318.48 800.916   1
  -7  -3  -5 2935.70 764.622   4
  -7  -3  -6 70082.1 3894.26   1
  -7  -3  -6 73293.9 4051.17   4
  -7  -3  -7 33428.7 2512.36   1
  -7  -3  -7 34170.1 2678.27   4
  -7  -3  -8 18944.9 1851.43   1
  -7  -3  -8 18741.1 1994.16   4
  -7  -3  -9 1456.72 630.897   4
  -7  -3  -9 1616.89 520.585   2
  -7  -3  -9 1740.84 593.304   1
  -7  -3 -10 2267.37 848.645   4
  -7  -3 -11-7.16839 508.524   4
  -7  -3 -12 5838.56 1276.67   4
  -7  -3 -13 6710.70 1434.42   4
   7   4 -10 10937.7 1799.40   5
   7   4  -9 7550.52 1429.61   5
   7   4  -8 727.225 471.338   5
   7   4  -7 4751.74 1099.98   5
   7   4  -6 1371.56 512.170   5
   7   4  -5 41318.3 2950.14   5
   7   4  -4 64044.5 3700.64   5
   7   4  -3 74192.2 3907.39   5
   7   4  -2 36636.2 2450.90   5
   7   4  -1 55332.4 3041.08   5
  -7  -4   1 55652.7 3570.71   1
  -7  -4   0 2379.32 721.819   1
   7   4   0 2036.16 544.992   5
  -7  -4  -1 65496.9 3867.38   1
   7   4   1 71552.7 3378.36   5
  -7  -4  -1 70997.6 3305.46   3
  -7  -4  -2 77340.5 4206.87   1
  -7  -4  -2 75020.2 3391.24   3
  -7  -4  -3 72330.8 3224.03   3
  -7  -4  -3 70476.6 3950.35   1
  -7  -4  -4 23042.7 1559.55   3
  -7  -4  -4 21618.1 1993.38   1
  -7  -4  -5 3305.54 539.095   3
  -7  -4  -5 2329.90 633.213   4
  -7  -4  -5 3719.51 819.805   1
  -7  -4  -6 2432.34 659.206   4
  -7  -4  -6 1927.24 641.295   1
  -7  -4  -7 7371.81 1193.11   4
  -7  -4  -7 8121.66 1281.08   1
  -7  -4  -8 20707.3 2055.15   4
  -7  -4  -8 18075.9 1883.62   1
  -7  -4  -9 21247.8 2138.82   4
  -7  -4  -9 20152.1 2032.68   1
  -7  -4 -10 4730.78 1016.33   1
  -7  -4 -10 4873.63 1047.63   4
  -7  -4 -11 480.946 420.802   4
  -7  -4 -12 158.166 364.055   4
  -7  -4 -13 5563.36 1267.58   4
   7   5 -10 7122.19 1457.41   5
   7   5  -9 13954.4 2061.23   5
   7   5  -8 36213.7 3217.36   5
   7   5  -7 24034.1 2477.38   5
   7   5  -6 3482.18 882.528   5
   7   5  -5 21066.7 2135.54   5
   7   5  -4 52905.9 3415.32   5
   7   5  -3 45358.4 2999.57   5
   7   5  -2 66104.4 3667.32   5
  -7  -5   2 61931.8 3886.93   1
  -7  -5   1 64541.9 3893.52   1
   7   5  -1 60591.6 3413.17   5
  -7  -5   0 25645.3 2290.18   1
  -7  -5  -1 8175.83 1287.34   1
  -7  -5  -2 14739.3 1688.39   1
  -7  -5  -2 14182.6 1198.25   3
  -7  -5  -3 45380.6 2279.97   3
  -7  -5  -3 44861.6 3102.65   1
  -7  -5  -4 50233.0 3319.04   1
  -7  -5  -5 11120.7 1490.28   1
  -7  -5  -6 1032.02 425.572   1
  -7  -5  -7 329.376 370.153   1
  -7  -5  -7-223.971 331.958   4
  -7  -5  -8 595.177 355.790   1
  -7  -5  -8 2017.79 612.193   4
  -7  -5  -9 3791.62 920.425   1
  -7  -5  -9 1928.48 638.328   4
  -7  -5 -10 14202.5 1729.46   4
  -7  -5 -10 10740.8 1591.35   1
  -7  -5 -11 16592.7 1927.01   4
  -7  -5 -11 12433.4 1766.60   1
  -7  -5 -12 665.193 517.212   1
  -7  -5 -12 518.303 363.223   4
   7   6  -9 10638.2 1839.16   5
   7   6  -8 34395.3 3226.47   5
   7   6  -7 47515.2 3735.18   5
   7   6  -6 34979.4 3038.52   5
   7   6  -5 13499.7 1759.77   5
   7   6  -4 26859.3 2481.52   5
   7   6  -3 40124.7 2978.33   5
  -7  -6   3 38241.6 3007.97   1
  -7  -6   2 44513.2 3193.44   1
   7   6  -2 42714.5 3025.64   5
  -7  -6   1 43551.6 3164.41   1
  -7  -6   0 27263.2 2402.98   1
  -7  -6  -1 2969.01 845.462   1
  -7  -6  -2 12396.4 1593.36   1
  -7  -6  -3 604.056 456.675   1
  -7  -6  -4 11898.2 1573.49   1
  -7  -6  -5 28172.2 2487.62   1
  -7  -6  -6 11296.6 1533.36   1
  -7  -6  -7-139.202 422.999   1
  -7  -6  -8 8055.87 1419.30   1
  -7  -6  -9 727.797 543.577   1
  -7  -6 -10 4141.99 900.915   4
  -7  -6 -10 6758.21 1370.40   1
  -7  -6 -11 11123.5 1763.33   1
  -7  -6 -11 10487.3 1441.43   4
  -7  -6 -12 17615.1 2292.86   1
  -7  -6 -13 6318.67 1444.56   1
   7   7  -9 10315.4 1896.29   5
   7   7  -8 18041.8 2427.66   5
   7   7  -7 37760.9 3461.13   5
   7   7  -6 42975.8 3558.62   5
   7   7  -5 23842.4 2538.62   5
   7   7  -4 7505.19 1387.39   5
  -7  -7   4 6520.62 1251.22   1
  -7  -7   3 4883.32 1097.13   1
   7   7  -3 6745.94 1296.37   5
  -7  -7   2 5904.01 1182.96   1
  -7  -7   1 34060.6 2792.81   1
  -7  -7   0 10012.3 1460.64   1
  -7  -7  -1 13819.2 1700.64   1
  -7  -7  -2 11457.7 1574.27   1
  -7  -7  -3-38.1069 497.642   1
  -7  -7  -4 456.931 468.309   1
  -7  -7  -5 4474.99 982.074   1
  -7  -7  -6 7273.33 1310.63   1
  -7  -7  -7 11823.9 1681.70   1
  -7  -7  -8 11097.2 1684.05   1
  -7  -7  -9 840.607 577.503   1
  -7  -7 -10 2155.04 851.500   1
  -7  -7 -11 9705.90 1748.61   1
   7   8  -8 3908.11 1206.47   5
   7   8  -7 4316.01 1177.10   5
   7   8  -6 44431.3 3853.63   5
   7   8  -5 30658.5 3054.77   5
   7   8  -4 17001.9 2202.42   5
  -7  -8   4 15016.1 1963.78   1
  -7  -8   3 2696.39 848.657   1
  -7  -8   2 238.845 335.478   1
  -7  -8   1 714.925 481.105   1
  -7  -8   0 725.551 520.340   1
  -7  -8  -1 13636.2 1734.42   1
  -7  -8  -2 8736.84 1379.49   1
  -7  -8  -3 1035.00 485.370   1
  -7  -8  -4 140.219 413.474   1
  -7  -8  -5 4539.00 1058.75   1
  -7  -8  -6 11556.2 1720.95   1
  -7  -8  -7 12794.7 1832.16   1
  -7  -8  -8 19869.2 2370.49   1
  -7  -8  -9 16127.4 2206.78   1
  -7  -8 -10 2002.83 809.057   1
   7   9  -6 2434.75 1037.53   5
   7   9  -5 7283.97 1593.23   5
  -7  -9   4 15194.8 1922.89   1
  -7  -9   3 7117.58 1303.77   1
  -7  -9   2 1307.33 618.648   1
  -7  -9   1 850.262 538.285   1
  -7  -9   0 30.3817 378.573   1
  -7  -9  -1 1683.24 689.098   1
  -7  -9  -2 9198.52 1481.42   1
  -7  -9  -3 21346.6 2284.39   1
  -7  -9  -4 7652.86 1396.77   1
  -7  -9  -5 1023.19 695.186   1
  -7  -9  -6 5779.62 1287.33   1
  -7  -9  -7 9603.40 1711.76   1
  -7  -9  -8 25634.9 2845.80   1
  -7 -10   4-1056.28 591.810   1
  -7 -10   3 15403.2 1959.99   1
  -7 -10   2 3406.67 1015.87   1
  -7 -10   1 1949.46 700.442   1
  -7 -10   0 571.963 512.282   1
  -7 -10  -1 2672.95 844.686   1
  -7 -10  -2-482.927 525.660   1
  -7 -10  -3 19311.9 2276.21   1
  -7 -10  -4 25416.0 2634.82   1
  -7 -10  -5 22037.4 2498.23   1
  -7 -10  -6 9383.76 1697.06   1
  -7 -11   3 3911.32 1023.86   1
  -7 -11   2 83.9885 391.025   1
  -7 -11   1 11008.8 1731.41   1
  -7 -11   0 8926.53 1581.76   1
  -7 -11  -1 9053.14 1565.07   1
  -7 -11  -2 282.669 461.636   1
  -7 -11  -3 8407.51 1555.32   1
   8  -3  -1 40669.2 3651.76   6
   8  -3   0 18475.7 2293.34   6
   8  -3   1 9365.22 1623.16   6
   8  -3   2 5658.86 1252.14   6
  -8   3  -6 5937.79 1338.55   4
  -8   2   3 4540.45 1124.86   3
  -8   2   2 1798.66 756.580   3
  -8   2   1 40548.2 3317.86   3
  -8   2   0 37499.9 3107.65   3
  -8   2  -1 20034.1 2256.11   3
   8  -2   1 30219.0 2606.89   6
   8  -2   2 4855.04 1005.94   6
  -8   2  -4 3980.81 1069.50   4
  -8   2  -5 812.969 587.705   4
  -8   2  -6 7029.13 1435.59   4
  -8   2  -7 5042.64 1322.99   4
  -8   1   5 42962.3 3498.33   3
  -8   1   4 52429.5 3845.36   3
  -8   1   3 31646.3 2863.96   3
  -8   1   2 3776.92 1011.33   3
  -8   1   1 12096.0 1693.88   3
  -8   1   0 8283.20 1367.74   3
  -8   1  -1 35789.4 2862.63   3
  -8   1  -2 17355.1 1958.76   3
   8  -1   2 19109.0 1851.61   6
  -8   1  -3 3181.45 912.938   4
  -8   1  -4 234.592 351.738   4
  -8   1  -5-489.380 440.989   4
  -8   1  -6 133.191 352.230   4
  -8   1  -7 6074.80 1356.61   4
  -8   1  -8 9487.46 1784.66   4
  -8   0   6 4256.76 1074.32   3
  -8   0   5 12190.1 1779.25   3
  -8   0   4 31548.7 2830.92   3
  -8   0   3 42318.9 3167.60   3
  -8   0   3 33434.6 2664.72   2
  -8   0   2 14575.2 1790.10   3
  -8   0   2 15149.9 1764.55   2
  -8   0   1 510.279 408.589   3
  -8   0   1 56.2391 409.761   2
  -8   0   0 4940.56 1002.76   3
  -8   0   0 3112.72 853.317   2
  -8   0  -1 943.556 565.070   3
  -8   0  -1 905.836 576.781   2
  -8   0  -2 16806.9 1804.00   3
  -8   0  -2 17124.0 1891.81   2
  -8   0  -3 15966.0 1747.20   3
  -8   0  -3 15025.3 1837.34   2
  -8   0  -4 5880.47 1183.83   4
  -8   0  -4 9601.88 1420.74   2
  -8   0  -5-1635.99 665.259   4
  -8   0  -5-501.289 489.885   2
  -8   0  -6-245.977 371.723   2
  -8   0  -6-247.429 379.027   4
  -8   0  -7 108.376 362.063   4
  -8   0  -8 8846.60 1678.88   4
  -8   0  -9 15069.2 2214.50   4
   8   1  -8 16011.3 2170.66   5
  -8  -1   7 19516.3 2342.22   3
   8   1  -7 20819.6 2410.78   5
  -8  -1   6 20766.3 2318.76   3
  -8  -1   6 14468.9 1660.88   2
   8   1  -6 19756.6 2237.39   5
   8   1  -5 3672.18 920.582   5
  -8  -1   5 2482.76 793.031   3
  -8  -1   5 1451.91 503.124   2
  -8  -1   4 8065.55 1350.39   3
  -8  -1   4 7002.94 1154.24   2
  -8  -1   3 12773.7 1654.78   3
  -8  -1   3 8261.47 1308.06   2
  -8  -1   2 24930.7 2253.58   3
  -8  -1   2 23124.9 2129.95   2
  -8  -1   1 11603.1 1462.30   3
  -8  -1   1 10680.2 1449.75   2
  -8  -1   0 4764.09 930.961   3
  -8  -1   0 4630.62 981.012   2
  -8  -1  -1 16450.7 1713.71   3
  -8  -1  -1 15319.6 1729.95   2
  -8  -1  -2 9944.67 1309.57   3
  -8  -1  -2 7778.79 1229.95   2
  -8  -1  -3 1133.18 473.633   3
  -8  -1  -3 440.482 419.155   2
  -8  -1  -4 8606.98 1216.24   3
  -8  -1  -4 6742.14 1238.45   4
  -8  -1  -4 8809.09 1374.50   2
  -8  -1  -5 21847.7 2235.85   4
  -8  -1  -5 20195.8 2077.98   2
  -8  -1  -6 11580.4 1697.57   4
  -8  -1  -6 11933.7 1544.67   2
  -8  -1  -7 223.742 372.545   4
  -8  -1  -7-407.020 403.882   2
  -8  -1  -8 3489.66 863.620   2
  -8  -1  -8 3373.82 1104.77   4
  -8  -1  -9 8994.96 1321.34   2
  -8  -1  -9 12958.2 1988.06   4
  -8  -1 -10 34908.4 3385.72   4
   8   2  -9 13041.8 2020.94   5
   8   2  -8 23163.4 2610.24   5
   8   2  -7 15315.6 2030.32   5
   8   2  -6 12189.2 1709.44   5
  -8  -2   6 10275.5 1330.59   2
   8   2  -5 3587.44 903.172   5
  -8  -2   5 3397.33 990.380   3
  -8  -2   5 2804.95 804.678   2
   8   2  -4 1444.28 663.342   5
  -8  -2   4 1241.06 566.819   3
  -8  -2   4 304.142 319.939   2
   8   2  -3-27.0683 284.878   5
  -8  -2   3-707.523 464.411   3
  -8  -2   3 137.246 305.333   2
  -8  -2   2 1501.89 596.135   3
  -8  -2   2 1423.77 583.428   2
  -8  -2   1 17697.8 1745.61   3
  -8  -2   1 18708.4 1862.68   2
  -8  -2   0 12730.3 1451.55   3
  -8  -2   0 12389.0 1557.95   2
  -8  -2  -1-157.934 289.644   3
  -8  -2  -1 800.635 520.533   2
  -8  -2  -2 2465.92 633.047   3
  -8  -2  -2 2206.75 708.017   2
  -8  -2  -3 537.107 403.477   3
  -8  -2  -3-57.1876 394.001   2
  -8  -2  -4 4294.06 828.073   3
  -8  -2  -4 3995.54 908.599   4
  -8  -2  -4 3598.66 883.443   2
  -8  -2  -4 3949.82 864.409   1
  -8  -2  -5 9605.64 1320.84   1
  -8  -2  -5 12036.7 1599.53   4
  -8  -2  -5 13505.5 1600.69   2
  -8  -2  -6 33526.3 2817.60   4
  -8  -2  -6 30738.1 2533.64   2
  -8  -2  -7 29980.7 2711.54   4
  -8  -2  -7 26175.3 2295.69   2
  -8  -2  -8 4062.17 1048.58   4
  -8  -2  -8 2245.71 679.604   2
  -8  -2  -9 8134.48 1510.81   4
  -8  -2  -9 8637.28 1247.27   2
  -8  -2 -10 6805.34 1421.57   4
  -8  -2 -11 37230.9 3542.18   4
   8   3  -9 2845.22 1001.38   5
   8   3  -8 4380.53 1181.82   5
   8   3  -7 5997.19 1224.70   5
  -8  -3   7 6565.23 1079.25   2
  -8  -3   6 17161.0 1747.89   2
   8   3  -6 17267.8 1976.40   5
   8   3  -5 6460.58 1180.05   5
  -8  -3   5 8738.35 1245.78   2
   8   3  -4 948.302 548.162   5
  -8  -3   4 919.160 463.482   2
   8   3  -3 291.434 293.436   5
   8   3  -2 421.915 293.783   5
  -8  -3   2-560.655 385.634   3
   8   3  -1 1394.08 485.495   5
  -8  -3   1 1800.43 537.436   3
  -8  -3   0 9018.66 1186.61   3
  -8  -3  -1 13895.6 1430.86   3
  -8  -3  -2 6507.27 1181.85   1
  -8  -3  -2 7313.48 1006.90   3
  -8  -3  -3 11303.8 1505.19   1
  -8  -3  -3 10356.3 1194.74   3
  -8  -3  -4 1797.33 672.808   1
  -8  -3  -4 1665.48 476.389   3
  -8  -3  -5 24789.9 1866.45   3
  -8  -3  -5 20511.8 2038.31   1
  -8  -3  -5 20570.1 2086.37   4
  -8  -3  -6 32994.9 2610.74   1
  -8  -3  -6 30467.7 2623.17   4
  -8  -3  -6 35142.2 2677.84   2
  -8  -3  -7 40662.6 2960.03   1
  -8  -3  -7 40205.1 3120.59   4
  -8  -3  -7 40599.6 2877.90   2
  -8  -3  -8 34598.6 2953.74   4
  -8  -3  -8 34123.7 2590.37   2
  -8  -3  -9 40370.0 3293.71   4
  -8  -3  -9 37680.6 2771.06   2
  -8  -3 -10-90.1091 379.777   4
  -8  -3 -11 17115.6 2278.74   4
   8   4  -9 3103.78 934.403   5
   8   4  -8 1426.82 712.457   5
   8   4  -7 153.801 528.306   5
  -8  -4   7-463.171 401.779   2
   8   4  -6-222.010 484.998   5
   8   4  -5 8509.60 1384.70   5
   8   4  -4 6976.98 1200.11   5
   8   4  -3 2422.29 679.210   5
   8   4  -2-82.7453 262.955   5
   8   4  -1-164.055 339.544   5
   8   4   0 9028.97 1129.01   5
  -8  -4   0 8859.80 1428.84   1
  -8  -4   0 10993.0 1234.98   3
   8   4   1 32109.1 2142.21   5
  -8  -4  -1 34003.0 2242.88   3
  -8  -4  -1 33761.7 2766.04   1
  -8  -4  -2 30053.7 2590.58   1
  -8  -4  -2 32816.2 2147.21   3
  -8  -4  -3 34366.0 2751.88   1
  -8  -4  -3 35138.2 2199.85   3
  -8  -4  -4 20061.6 1582.48   3
  -8  -4  -4 17992.0 2023.49   1
  -8  -4  -5 13770.4 1727.11   1
  -8  -4  -6 13217.0 1682.99   1
  -8  -4  -6 13075.7 1629.42   4
  -8  -4  -7 27281.3 2457.15   1
  -8  -4  -7 26061.2 2420.88   4
  -8  -4  -8 43114.9 3151.93   1
  -8  -4  -8 42209.1 3185.65   4
  -8  -4  -9 31805.9 2685.58   1
  -8  -4  -9 32886.0 2867.69   4
  -8  -4 -10 9906.83 1613.92   4
  -8  -4 -11 13698.1 1950.53   4
  -8  -4 -12 5973.80 1372.54   4
   8   5  -9 8934.08 1658.63   5
   8   5  -8 1534.46 768.870   5
   8   5  -7 1973.64 825.748   5
   8   5  -6 1270.51 689.547   5
   8   5  -5 6197.06 1205.62   5
   8   5  -4 305.867 429.894   5
   8   5  -3 42697.7 3029.45   5
   8   5  -2 19622.4 1901.95   5
  -8  -5   1 1423.26 645.191   1
   8   5  -1 2610.77 637.349   5
  -8  -5   0 459.005 522.569   1
   8   5   0 1206.66 494.221   5
  -8  -5  -1 29648.5 2629.70   1
   8   5   1 26977.8 2100.59   5
  -8  -5  -1 27082.3 1909.14   3
  -8  -5  -2 35546.2 2944.17   1
  -8  -5  -2 37567.0 2259.48   3
  -8  -5  -3 58365.9 3857.86   1
  -8  -5  -3 60022.6 2952.28   3
  -8  -5  -4 49001.1 3443.83   1
  -8  -5  -5 36160.9 2921.04   1
  -8  -5  -6 19152.2 2100.40   1
  -8  -5  -7 8690.79 1425.52   1
  -8  -5  -8 20231.1 2172.08   1
  -8  -5  -8 21936.0 2183.65   4
  -8  -5  -9 24356.9 2438.08   1
  -8  -5  -9 24856.7 2412.51   4
  -8  -5 -10 13210.1 1777.53   1
  -8  -5 -10 15166.5 1875.70   4
  -8  -5 -11 2034.65 832.554   4
  -8  -5 -12 4674.24 1122.00   4
   8   6  -8 5880.03 1360.71   5
   8   6  -7 4866.16 1267.64   5
   8   6  -6-269.093 453.183   5
   8   6  -5 6990.40 1351.76   5
   8   6  -4-169.501 542.680   5
   8   6  -3 21494.7 2171.62   5
   8   6  -2 45051.4 3198.95   5
  -8  -6   2 45748.6 3490.68   1
  -8  -6   1 59921.0 4048.68   1
   8   6  -1 61457.9 3725.87   5
  -8  -6   0 23971.3 2412.69   1
  -8  -6  -1 11248.2 1620.63   1
  -8  -6  -2 16670.1 2002.10   1
  -8  -6  -3 30760.7 2744.31   1
  -8  -6  -4 57973.4 3881.97   1
  -8  -6  -5 29927.4 2688.81   1
  -8  -6  -6 19215.4 2158.93   1
  -8  -6  -7 10571.8 1670.84   1
  -8  -6  -8 2983.37 884.864   1
  -8  -6  -9 3424.77 944.018   1
  -8  -6 -10 17920.0 2210.20   1
  -8  -6 -11 6991.14 1390.85   1
  -8  -6 -11 7725.18 1322.84   4
   8   7  -8 3025.82 992.173   5
   8   7  -7 13877.8 2133.32   5
   8   7  -6 19775.1 2453.06   5
   8   7  -5 18389.4 2280.19   5
   8   7  -4 6946.85 1298.56   5
  -8  -7   3 1758.85 635.875   1
   8   7  -3 4164.39 1059.89   5
  -8  -7   2 21659.5 2441.08   1
   8   7  -2 29827.6 2652.97   5
  -8  -7   1 29913.3 2774.05   1
  -8  -7   0 64074.9 4204.79   1
  -8  -7  -1 37369.3 3118.11   1
  -8  -7  -2 22515.8 2368.29   1
  -8  -7  -3 866.577 628.835   1
  -8  -7  -4 44935.1 3459.55   1
  -8  -7  -5 11591.6 1731.52   1
  -8  -7  -6 38808.5 3256.31   1
  -8  -7  -7 13368.9 1887.18   1
  -8  -7  -8 1660.47 716.784   1
  -8  -7  -9-1217.92 656.162   1
  -8  -7 -10 5038.56 1235.39   1
  -8  -7 -11 3523.02 1072.69   1
   8   8  -7 10815.4 1932.08   5
   8   8  -6 14570.4 2197.91   5
   8   8  -5 32982.8 3239.47   5
   8   8  -4 40550.0 3563.79   5
  -8  -8   3 9957.20 1665.93   1
   8   8  -3 12943.4 1880.17   5
  -8  -8   2 13805.8 1912.11   1
  -8  -8   1 11030.8 1681.69   1
  -8  -8   0 42249.5 3419.74   1
  -8  -8  -1 28100.9 2701.31   1
  -8  -8  -2 30067.3 2818.98   1
  -8  -8  -3 4432.38 1096.99   1
  -8  -8  -4 10755.7 1681.28   1
  -8  -8  -5 952.683 609.387   1
  -8  -8  -6 8943.47 1566.89   1
  -8  -8  -7 9343.32 1587.91   1
  -8  -8  -8 10171.5 1709.16   1
  -8  -8  -9 1146.26 678.774   1
   8   9  -5 17280.8 2440.82   5
   8   9  -4 27838.6 3062.32   5
  -8  -9   4 23735.1 2592.43   1
   8   9  -3 35941.6 3360.89   5
  -8  -9   3 27904.0 2820.23   1
  -8  -9   2 12718.3 1872.45   1
  -8  -9   1 3955.24 1012.57   1
  -8  -9   0 3471.72 1006.80   1
  -8  -9  -1 17294.3 2149.64   1
  -8  -9  -2 14938.9 1982.30   1
  -8  -9  -3 7086.62 1417.06   1
  -8  -9  -4 7778.40 1452.24   1
  -8  -9  -5 1983.24 720.734   1
  -8  -9  -6-199.297 359.899   1
  -8  -9  -7 1537.54 705.033   1
  -8 -10   4 14100.0 1984.65   1
  -8 -10   3 12448.6 1863.79   1
  -8 -10   2 11807.9 1840.55   1
  -8 -10   1 6967.21 1432.52   1
  -8 -10   0 235.148 445.484   1
  -8 -10  -1 248.918 550.633   1
  -8 -10  -2 4233.06 1081.16   1
  -8 -10  -3 4041.00 1089.66   1
  -8 -10  -4 3918.92 1074.18   1
  -8 -10  -5 3835.19 1144.41   1
   9  -2   0 11386.2 1926.64   6
  -9   1   0 19911.1 2269.93   3
  -9   1  -1 31796.9 2876.78   3
  -9   1  -5 5083.06 1237.67   4
  -9   0   3 14384.7 1961.40   3
  -9   0   2 18501.5 2169.83   3
  -9   0   1 5223.80 1180.70   3
  -9   0   1 3809.60 1038.04   2
  -9   0   0 8569.47 1438.69   3
  -9   0   0 8877.93 1478.77   2
  -9   0  -1 26244.4 2464.26   3
  -9   0  -1 20994.1 2316.91   2
  -9   0  -2 40861.5 3086.36   3
  -9   0  -2 33065.8 2983.25   2
  -9   0  -3 30423.2 2628.98   3
  -9   0  -3 24935.4 2558.70   2
  -9   0  -4 10211.5 1534.86   2
  -9   0  -5 7727.06 1460.53   4
  -9   0  -6 4075.47 1087.05   4
  -9   0  -7 2215.82 935.588   4
  -9  -1   5 4660.57 999.197   2
  -9  -1   4 24247.8 2484.53   3
  -9  -1   4 19809.8 2103.48   2
  -9  -1   3 32925.6 2876.13   3
  -9  -1   3 29171.8 2634.49   2
  -9  -1   2 39535.5 3088.47   3
  -9  -1   2 34027.6 2875.65   2
  -9  -1   1 32760.2 2731.12   3
  -9  -1   1 29614.1 2678.72   2
  -9  -1   0 11945.3 1604.90   3
  -9  -1   0 12865.5 1758.68   2
  -9  -1  -1 8834.36 1374.05   3
  -9  -1  -1 5923.34 1251.17   2
  -9  -1  -2 20062.4 2021.18   3
  -9  -1  -2 16023.7 1992.11   2
  -9  -1  -3 21666.6 2071.57   3
  -9  -1  -3 17363.7 2090.86   2
  -9  -1  -4 22164.0 2325.94   2
  -9  -1  -5 6322.18 1276.74   4
  -9  -1  -5 7411.92 1311.73   2
  -9  -1  -6-341.882 395.719   4
  -9  -1  -6 1859.37 704.361   2
  -9  -1  -7 978.822 575.587   4
  -9  -1  -7 1527.08 652.558   2
  -9  -1  -8 276.153 387.823   2
  -9  -1  -8 1942.59 792.441   4
  -9  -2   6 20360.1 2075.16   2
  -9  -2   5 8121.43 1418.78   3
  -9  -2   5 4687.71 964.189   2
  -9  -2   4 10818.8 1609.00   3
  -9  -2   4 9608.72 1415.97   2
  -9  -2   3 7668.20 1336.27   3
  -9  -2   3 10951.1 1569.16   2
  -9  -2   2 59967.1 3809.36   3
  -9  -2   2 53757.7 3643.98   2
  -9  -2   1 31863.9 2574.22   3
  -9  -2   1 28352.3 2572.40   2
  -9  -2   0 19520.6 1973.99   3
  -9  -2   0 19183.5 2124.02   2
  -9  -2  -1 11999.5 1517.64   3
  -9  -2  -1 12602.9 1695.71   2
  -9  -2  -2 1723.99 586.227   3
  -9  -2  -2 2554.09 820.647   2
  -9  -2  -3 921.620 496.891   3
  -9  -2  -3 198.792 435.892   2
  -9  -2  -4 26717.8 2233.77   3
  -9  -2  -4 28931.9 2642.20   2
  -9  -2  -5 15085.8 1847.89   2
  -9  -2  -6 2584.69 861.139   4
  -9  -2  -6 2085.57 809.578   2
  -9  -2  -7 1046.37 481.154   4
  -9  -2  -7 938.435 537.079   2
  -9  -2  -8-811.382 527.374   4
  -9  -2  -8-756.012 485.952   2
  -9  -2  -9 439.562 502.558   4
  -9  -2  -9 739.649 444.560   2
   9   3  -7 27526.0 2884.84   5
  -9  -3   6 37339.9 3109.70   3
  -9  -3   6 29343.6 2528.92   2
   9   3  -6 32054.1 3038.54   5
  -9  -3   5 31957.5 2778.24   3
  -9  -3   5 28618.6 2504.91   2
   9   3  -5 31630.2 2859.29   5
  -9  -3   4 17233.6 1957.95   3
  -9  -3   4 17470.8 1933.44   2
  -9  -3   3 1148.58 488.501   3
  -9  -3   3 2718.70 756.464   2
  -9  -3   2 13298.1 1649.39   3
  -9  -3   2 13368.4 1689.17   2
  -9  -3   1 14671.9 1651.05   3
  -9  -3   1 11047.0 1578.58   2
  -9  -3   0 33168.9 2492.71   3
  -9  -3   0 29403.5 2631.64   2
  -9  -3  -1 20148.2 1879.20   3
  -9  -3  -1 21980.0 2220.47   2
  -9  -3  -2 1910.31 587.160   3
  -9  -3  -2 2078.77 684.647   2
  -9  -3  -3 2451.52 633.043   3
  -9  -3  -3 769.619 459.154   2
  -9  -3  -4 212.851 360.370   1
  -9  -3  -4 308.467 311.988   3
  -9  -3  -4-430.647 428.340   2
  -9  -3  -5 1288.81 584.412   1
  -9  -3  -5 2185.22 759.293   2
  -9  -3  -6 9542.74 1546.65   4
  -9  -3  -6 9519.57 1459.02   2
  -9  -3  -7 8361.05 1450.02   4
  -9  -3  -7 7564.23 1314.13   2
  -9  -3  -8 4081.87 1061.54   4
  -9  -3  -8 3659.61 886.352   2
  -9  -3  -9-185.454 432.758   4
  -9  -3  -9 405.788 370.520   2
   9   4  -7 11405.6 1809.02   5
  -9  -4   6 17769.7 1887.66   2
   9   4  -6 18322.1 2194.26   5
  -9  -4   5 26748.4 2398.13   2
   9   4  -5 27649.2 2639.01   5
   9   4  -4 15204.8 1851.06   5
   9   4  -3 11040.8 1514.18   5
  -9  -4   3 9736.31 1373.73   3
  -9  -4   2 1663.60 583.639   3
  -9  -4   1-356.540 367.660   3
  -9  -4   0 826.939 499.360   3
  -9  -4  -1 10436.4 1300.31   3
  -9  -4  -2 18924.9 1691.08   3
  -9  -4  -2 16976.6 2044.67   1
  -9  -4  -3 3725.07 1039.53   1
  -9  -4  -3 3701.30 742.851   3
  -9  -4  -4 469.197 418.693   1
  -9  -4  -4 412.884 330.136   3
  -9  -4  -5 1804.63 673.364   1
  -9  -4  -6-6.30925 266.641   1
  -9  -4  -7 13646.2 1802.18   1
  -9  -4  -7 15474.7 1821.28   2
  -9  -4  -8 14588.7 1924.62   4
  -9  -4  -8 15419.9 1791.97   2
  -9  -4  -9 8381.48 1484.16   4
  -9  -4  -9 8654.91 1342.49   2
  -9  -4 -10 3693.93 1105.25   4
   9   5  -7 2413.56 822.243   5
   9   5  -6 3992.31 1064.56   5
   9   5  -5 5297.63 1249.85   5
   9   5  -4 18841.7 2147.46   5
   9   5  -3 6989.46 1225.66   5
   9   5  -2 4934.05 1069.17   5
   9   5  -1 465.057 460.208   5
  -9  -5   1 123.651 359.541   3
  -9  -5   0-200.878 316.450   3
  -9  -5   0 73.7318 482.427   1
  -9  -5  -1 889.840 528.818   1
  -9  -5  -1 1032.57 404.168   3
  -9  -5  -2 4522.15 1108.27   1
  -9  -5  -2 3980.23 756.934   3
  -9  -5  -3 13275.3 1832.29   1
  -9  -5  -4 7608.35 1353.43   1
  -9  -5  -5 2776.77 866.595   1
  -9  -5  -6 54.7556 351.103   1
  -9  -5  -7 13166.8 1803.91   1
  -9  -5  -8 8010.11 1412.83   1
  -9  -5  -9 17227.6 2130.14   4
  -9  -5 -10 25880.3 2673.55   4
   9   6  -7 6293.65 1441.22   5
   9   6  -6 1220.95 761.707   5
   9   6  -5 2187.76 840.463   5
   9   6  -4 3240.20 930.228   5
   9   6  -3 4030.70 997.268   5
   9   6  -2 3796.21 912.718   5
  -9  -6   1 661.648 561.481   1
   9   6  -1 1136.23 535.807   5
  -9  -6   0 5898.27 1316.06   1
   9   6   0 6235.19 1151.36   5
  -9  -6   0 5810.69 896.697   3
  -9  -6  -1-54.2990 371.344   1
  -9  -6  -1 165.371 248.739   3
  -9  -6  -2 4409.93 1136.72   1
  -9  -6  -3 5116.14 1191.17   1
  -9  -6  -4 22212.2 2476.19   1
  -9  -6  -5 24657.2 2605.30   1
  -9  -6  -6 9788.21 1608.90   1
  -9  -6  -7 5348.44 1209.54   1
  -9  -6  -8 6091.58 1294.72   1
  -9  -6  -9 11455.5 1749.14   1
  -9  -6 -10 14516.5 2019.23   1
   9   7  -6 3899.88 1111.79   5
   9   7  -5-372.027 481.178   5
   9   7  -4-1795.65 760.511   5
   9   7  -3-215.085 404.430   5
   9   7  -2 2222.77 781.099   5
  -9  -7   2 1823.60 737.042   1
  -9  -7   1 7842.54 1462.10   1
   9   7  -1 7521.39 1358.79   5
  -9  -7   0 9781.86 1662.74   1
   9   7   0 11719.0 1626.21   5
  -9  -7  -1 2995.46 980.624   1
  -9  -7  -2 2039.04 906.554   1
  -9  -7  -3 7316.81 1533.27   1
  -9  -7  -4 12144.9 1908.93   1
  -9  -7  -5 22152.9 2526.64   1
  -9  -7  -6 25640.9 2716.23   1
  -9  -7  -7 27492.7 2830.50   1
  -9  -7  -8 7436.89 1439.66   1
  -9  -7  -9 11458.0 1819.70   1
   9   8  -5 3135.49 1027.39   5
   9   8  -4-473.237 518.571   5
   9   8  -3 743.484 562.070   5
  -9  -8   2 1167.08 655.178   1
   9   8  -2 1154.47 650.832   5
  -9  -8   1 4008.49 1082.13   1
   9   8  -1 5010.74 1229.72   5
  -9  -8   0 19670.2 2365.57   1
  -9  -8  -1 26862.8 2774.28   1
  -9  -8  -2 11330.3 1756.93   1
  -9  -8  -3 15894.0 2130.21   1
  -9  -8  -4 3722.05 1050.26   1
  -9  -8  -5 22773.6 2615.70   1
  -9  -8  -6 20919.2 2557.88   1
  -9  -8  -7 9407.73 1692.15   1
  -9  -8  -8 7636.95 1600.03   1
   9   9  -4 7554.62 1634.51   5
  -9  -9   3 4083.18 1152.10   1
   9   9  -3 6159.03 1406.73   5
  -9  -9   2 691.183 562.235   1
   9   9  -2 4157.83 1150.88   5
  -9  -9   1 3139.85 992.410   1
  -9  -9   0 9767.20 1726.03   1
  -9  -9  -1 12271.3 1917.34   1
  -9  -9  -2 27478.1 2903.31   1
  -9  -9  -3 32538.3 3176.47   1
  -9  -9  -4 4105.93 1149.88   1
  -9  -9  -5 6286.28 1372.28   1
 -10  -1  -1 2932.80 909.101   3
 -10  -1  -2 14384.1 1825.84   3
 -10  -1  -3 19511.4 2153.24   3
 -10  -2   3 4180.85 1068.21   2
 -10  -2   2 12603.3 1738.85   3
 -10  -2   2 12805.0 1811.85   2
 -10  -2   1 17961.6 2029.58   3
 -10  -2   1 17716.5 2151.07   2
 -10  -2   0 6278.15 1184.50   3
 -10  -2   0 8713.00 1553.47   2
 -10  -2  -1 12052.7 1639.08   3
 -10  -2  -1 14228.6 1930.23   2
 -10  -2  -2 2338.20 785.052   3
 -10  -2  -2 3793.81 1023.48   2
 -10  -2  -3 25169.5 2301.41   3
 -10  -2  -3 24994.7 2619.53   2
 -10  -2  -4 18017.1 1942.37   3
 -10  -2  -4 18040.2 2236.39   2
 -10  -2  -5 25338.6 2669.21   2
 -10  -2  -6 23484.8 2516.19   2
 -10  -3   5 4825.51 1118.42   2
 -10  -3   4 56.9451 462.855   2
 -10  -3   3 4853.17 1057.09   3
 -10  -3   3 4764.19 1102.88   2
 -10  -3   2 7922.19 1336.86   3
 -10  -3   2 8672.32 1463.35   2
 -10  -3   1 25501.4 2370.60   3
 -10  -3   1 26641.8 2620.88   2
 -10  -3   0 32522.5 2646.55   3
 -10  -3   0 32448.6 2986.78   2
 -10  -3  -1 38781.3 2877.58   3
 -10  -3  -1 39462.4 3260.12   2
 -10  -3  -2 4683.41 992.850   3
 -10  -3  -2 3020.68 965.167   2
 -10  -3  -3 25196.3 2226.12   3
 -10  -3  -3 26201.5 2632.94   2
 -10  -3  -4 4056.09 860.770   3
 -10  -3  -4 3876.18 1007.92   2
 -10  -3  -5 20394.7 2294.78   2
 -10  -3  -6 16972.6 2064.66   2
 -10  -3  -7 12717.1 1783.75   2
 -10  -3  -8 1962.42 683.812   2
 -10  -4   6 7765.14 1324.89   2
 -10  -4   5 25609.2 2530.50   2
 -10  -4   4 23251.6 2327.02   3
 -10  -4   4 17649.2 2096.83   2
 -10  -4   3 10711.6 1494.91   3
 -10  -4   3 9205.86 1473.27   2
 -10  -4   2 3678.20 919.130   3
 -10  -4   2 1808.50 755.094   2
 -10  -4   1 13671.5 1680.80   3
 -10  -4   1 14268.7 1930.65   2
 -10  -4   0 33372.3 2631.04   3
 -10  -4   0 39396.8 3193.73   2
 -10  -4  -1 31754.6 2444.37   3
 -10  -4  -1 26344.7 2658.56   2
 -10  -4  -2 12795.8 1523.76   3
 -10  -4  -2 11296.5 1694.26   2
 -10  -4  -3 19504.6 1834.56   3
 -10  -4  -3 18256.0 2138.57   2
 -10  -4  -4 3797.19 974.946   2
 -10  -4  -4 2492.04 831.856   1
 -10  -4  -5 1345.93 637.368   1
 -10  -4  -5 1867.43 661.638   2
 -10  -4  -6 5801.85 1183.70   2
 -10  -4  -7 11075.0 1641.02   2
 -10  -4  -8 6789.13 1290.08   2
  10   5  -6 3525.97 1030.89   5
 -10  -5   6 2479.06 802.419   2
 -10  -5   5 16253.7 1970.86   2
 -10  -5   4 33954.0 2825.62   3
 -10  -5   3 34602.1 2775.89   3
 -10  -5   2 13736.3 1649.30   3
 -10  -5   1 4246.97 908.331   3
 -10  -5   0 10764.1 1375.07   3
 -10  -5  -1 25276.7 2128.79   3
 -10  -5  -2 24882.0 2030.54   3
 -10  -5  -2 22085.4 2561.83   1
 -10  -5  -3 8799.86 1548.96   1
 -10  -5  -4 7983.71 1483.82   1
 -10  -5  -5-1419.52 653.845   1
 -10  -5  -6 1812.91 769.050   1
 -10  -5  -7 324.960 398.130   1
 -10  -5  -8 4374.27 1038.78   2
  10   6  -5 4864.15 1231.45   5
  10   6  -4 22138.2 2497.62   5
 -10  -6   2 34753.4 2650.33   3
 -10  -6   1 12266.5 1461.48   3
 -10  -6   0-0.91729 353.805   3
 -10  -6  -1-987.553 647.560   1
 -10  -6  -2 6369.02 1397.21   1
 -10  -6  -3 8463.00 1547.76   1
 -10  -6  -4 9307.43 1677.11   1
 -10  -6  -5 612.362 531.523   1
 -10  -6  -6 1003.42 599.334   1
 -10  -6  -7 475.582 617.036   1
 -10  -6  -8 1291.79 657.191   1
  10   7  -4 10393.7 1764.67   5
  10   7  -3 1016.20 631.112   5
  10   7  -2 22435.8 2397.97   5
  10   7  -1 11946.3 1684.25   5
 -10  -7   1 12476.6 1992.04   1
 -10  -7   0 5373.92 1285.35   1
 -10  -7  -1 563.338 714.386   1
 -10  -7  -2 6.62249 284.442   1
 -10  -7  -3 230.699 450.221   1
 -10  -7  -4 2156.22 899.784   1
 -10  -7  -5 6621.82 1458.28   1
 -10  -7  -6 5798.31 1397.47   1
 -10  -7  -7 66.9680 357.766   1
  10   8  -3-207.519 460.101   5
  10   8  -2 1938.25 774.330   5
 -10  -8   1 2914.59 1001.06   1
  10   8  -1 3722.90 1102.89   5
 -10  -8   0 5787.66 1380.84   1
  10   8   0 5425.18 1226.98   5
 -10  -8  -1 2602.60 933.419   1
 -10  -8  -2 1313.90 758.341   1
 -10  -8  -3 213.298 401.516   1
 -10  -8  -4 615.168 542.607   1
 -10  -8  -5 3445.15 1095.32   1
  10   9  -1 757.283 708.254   5
  10   9   0 3217.58 1004.73   5
 -11  -3  -2 629.235 414.022   3
 -11  -3  -3 612.165 440.304   3
 -11  -4   0 3580.67 897.572   3
 -11  -4  -1 14113.6 1708.39   3
 -11  -4  -2 14108.7 1684.72   3
 -11  -5   1 3571.69 882.566   3
 -11  -5   0 1663.26 599.880   3
 -11  -5  -1 8748.14 1300.22   3
 -11  -5  -4 6943.72 1441.71   1
 -11  -6   2 9568.73 1402.22   3
 -11  -6   1 7034.84 1207.09   3
 -11  -6  -3 14374.7 2189.40   1
 -11  -6  -4 16936.1 2334.94   1
 -11  -6  -5 6855.76 1418.27   1
   0   0   0    0.00    0.00   0
TITL ijsf1452a in P-1
REM P-1 (#2 in standard setting)
CELL 0.71073   7.628348   8.014095  10.835399  88.3586  83.5437  62.0394
ZERR    1.00   0.000819   0.000623   0.001045   0.0072   0.0085   0.0098
LATT  1
SFAC C H N F Cl Pd
UNIT 18.00 24.00 2.00 4.00 4.00 1.00
TREF
HKLF 4
END
;
_shelx_hkl_checksum              5936
_olex2_exptl_crystal_mounting_method 'Oil on loop'
_olex2_submission_special_instructions 'No special instructions were received'
loop_
_space_group_symop_operation_xyz
'x, y, z'
'-x, -y, -z'
loop_
_atom_site_label
_atom_site_type_symbol
_atom_site_fract_x
_atom_site_fract_y
_atom_site_fract_z
_atom_site_U_iso_or_equiv
_atom_site_adp_type
_atom_site_occupancy
_atom_site_site_symmetry_order
_atom_site_calc_flag
_atom_site_refinement_flags_posn
_atom_site_refinement_flags_adp
_atom_site_refinement_flags_occupancy
C1 C 0.7247(4) 0.0497(4) 0.0884(3) 0.0290(6) Uani 1 1 d . . .
H1A H 0.7398 0.1406 0.0347 0.044 Uiso 1 1 calc GR . .
H1B H 0.7013 -0.0353 0.0405 0.044 Uiso 1 1 calc GR . .
H1C H 0.8442 -0.0204 0.1278 0.044 Uiso 1 1 calc GR . .
C2 C 0.5141(4) 0.0118(4) 0.2635(3) 0.0246(6) Uani 1 1 d . . .
H2A H 0.6257 -0.0591 0.3096 0.037 Uiso 1 1 calc GR . .
H2B H 0.4967 -0.0729 0.2113 0.037 Uiso 1 1 calc GR . .
H2C H 0.3956 0.0784 0.3202 0.037 Uiso 1 1 calc GR . .
C3 C 0.5892(4) 0.2828(4) 0.2605(2) 0.0207(5) Uani 1 1 d . . .
H3A H 0.6989 0.2093 0.3089 0.025 Uiso 1 1 calc R . .
H3B H 0.6296 0.3580 0.2042 0.025 Uiso 1 1 calc R . .
C4 C 0.4109(4) 0.4130(4) 0.3467(2) 0.0197(5) Uani 1 1 d . . .
C5 C 0.2715(4) 0.5871(4) 0.3055(3) 0.0244(6) Uani 1 1 d . . .
H5 H 0.2815 0.6197 0.2229 0.029 Uiso 1 1 calc R . .
C6 C 0.1200(4) 0.7086(4) 0.3899(3) 0.0307(7) Uani 1 1 d . . .
C7 C 0.0953(4) 0.6686(4) 0.5138(3) 0.0305(7) Uani 1 1 d . . .
H7 H -0.0103 0.7552 0.5677 0.037 Uiso 1 1 calc R . .
C8 C 0.2315(4) 0.4966(4) 0.5554(3) 0.0281(6) Uani 1 1 d . . .
H8 H 0.2202 0.4644 0.6380 0.034 Uiso 1 1 calc R . .
C9 C 0.3851(4) 0.3739(4) 0.4707(3) 0.0224(5) Uani 1 1 d . . .
Cl1 Cl 0.06599(9) 0.28833(9) 0.15957(6) 0.02112(13) Uani 1 1 d . . .
Cl2 Cl -0.33637(9) 0.59819(9) 0.04214(6) 0.02301(14) Uani 1 1 d . . .
F1 F 0.5222(3) 0.2063(2) 0.51309(16) 0.0303(4) Uani 1 1 d . . .
F2 F -0.0145(3) 0.8801(3) 0.3490(2) 0.0501(6) Uani 1 1 d . . .
N1 N 0.5521(3) 0.1496(3) 0.1853(2) 0.0198(4) Uani 1 1 d . . .
H1 H 0.445(4) 0.211(4) 0.147(3) 0.018(7) Uiso 1 1 d . . .
Pd1 Pd 0.0000 0.5000 0.0000 0.01546(8) Uani 1 2 d S T P
loop_
_atom_site_aniso_label
_atom_site_aniso_U_11
_atom_site_aniso_U_22
_atom_site_aniso_U_33
_atom_site_aniso_U_23
_atom_site_aniso_U_13
_atom_site_aniso_U_12
C1 0.0298(14) 0.0250(13) 0.0209(13) -0.0034(10) 0.0026(11) -0.0044(12)
C2 0.0280(13) 0.0226(12) 0.0262(14) 0.0011(10) -0.0040(11) -0.0142(11)
C3 0.0226(12) 0.0217(12) 0.0181(12) -0.0005(9) 0.0007(9) -0.0113(10)
C4 0.0189(11) 0.0201(11) 0.0206(12) -0.0026(9) -0.0025(9) -0.0094(10)
C5 0.0244(13) 0.0238(13) 0.0220(13) -0.0003(10) -0.0076(10) -0.0075(11)
C6 0.0209(13) 0.0255(14) 0.0367(17) -0.0084(12) -0.0093(12) -0.0016(11)
C7 0.0216(13) 0.0348(15) 0.0356(17) -0.0172(13) 0.0022(11) -0.0137(12)
C8 0.0318(14) 0.0387(16) 0.0211(13) -0.0087(12) 0.0038(11) -0.0235(13)
C9 0.0258(12) 0.0268(13) 0.0197(13) -0.0016(10) -0.0036(10) -0.0163(11)
Cl1 0.0190(3) 0.0231(3) 0.0182(3) 0.0040(2) -0.0020(2) -0.0075(2)
Cl2 0.0166(3) 0.0259(3) 0.0251(3) 0.0069(2) -0.0026(2) -0.0090(2)
F1 0.0415(10) 0.0263(8) 0.0219(8) 0.0055(7) -0.0055(7) -0.0147(8)
F2 0.0375(11) 0.0346(10) 0.0509(13) -0.0097(9) -0.0154(10) 0.0085(9)
N1 0.0214(10) 0.0191(10) 0.0156(10) -0.0003(8) -0.0043(8) -0.0062(9)
Pd1 0.01547(13) 0.01629(13) 0.01381(13) -0.00116(9) -0.00167(9) -0.00669(10)
loop_
_atom_type_symbol
_atom_type_description
_atom_type_scat_dispersion_real
_atom_type_scat_dispersion_imag
_atom_type_scat_source
C C 0.0033 0.0016 'International Tables Vol C Tables 4.2.6.8 and 6.1.1.4'
H H 0.0000 0.0000 'International Tables Vol C Tables 4.2.6.8 and 6.1.1.4'
Cl Cl 0.1484 0.1585 'International Tables Vol C Tables 4.2.6.8 and 6.1.1.4'
F F 0.0171 0.0103 'International Tables Vol C Tables 4.2.6.8 and 6.1.1.4'
N N 0.0061 0.0033 'International Tables Vol C Tables 4.2.6.8 and 6.1.1.4'
Pd Pd -0.9988 1.0072 'International Tables Vol C Tables 4.2.6.8 and 6.1.1.4'
loop_
_exptl_crystal_face_index_h
_exptl_crystal_face_index_k
_exptl_crystal_face_index_l
_exptl_crystal_face_perp_dist
_exptl_oxdiff_crystal_face_indexfrac_h
_exptl_oxdiff_crystal_face_indexfrac_k
_exptl_oxdiff_crystal_face_indexfrac_l
_exptl_oxdiff_crystal_face_x
_exptl_oxdiff_crystal_face_y
_exptl_oxdiff_crystal_face_z
-1 0 -1 0.0677 -1.0000 0.0000 -1.0000 0.0175 -0.0306 0.1129
0 1 -1 0.0203 -0.0000 1.0000 -1.0000 -0.0489 -0.0918 0.0567
0 0 -1 0.0508 -0.0000 -0.0000 -1.0000 0.0329 -0.0560 0.0112
0 -1 1 0.0203 0.0000 -1.0000 1.0000 0.0489 0.0918 -0.0567
0 0 1 0.0508 0.0000 0.0000 1.0000 -0.0329 0.0560 -0.0112
1 0 1 0.0717 1.0000 -0.0000 1.0000 -0.0175 0.0306 -0.1129
1 0 0 0.0817 1.0000 -0.0000 -0.0000 0.0154 -0.0254 -0.1017
loop_
_geom_angle_atom_site_label_1
_geom_angle_atom_site_label_2
_geom_angle_atom_site_label_3
_geom_angle
_geom_angle_site_symmetry_1
_geom_angle_site_symmetry_3
H1A C1 H1B 109.5 . .
H1A C1 H1C 109.5 . .
H1B C1 H1C 109.5 . .
N1 C1 H1A 109.5 . .
N1 C1 H1B 109.5 . .
N1 C1 H1C 109.5 . .
H2A C2 H2B 109.5 . .
H2A C2 H2C 109.5 . .
H2B C2 H2C 109.5 . .
N1 C2 H2A 109.5 . .
N1 C2 H2B 109.5 . .
N1 C2 H2C 109.5 . .
H3A C3 H3B 107.7 . .
C4 C3 H3A 108.8 . .
C4 C3 H3B 108.8 . .
C4 C3 N1 113.6(2) . .
N1 C3 H3A 108.8 . .
N1 C3 H3B 108.8 . .
C5 C4 C3 120.2(2) . .
C9 C4 C3 122.2(2) . .
C9 C4 C5 117.5(2) . .
C4 C5 H5 120.8 . .
C6 C5 C4 118.4(3) . .
C6 C5 H5 120.8 . .
C5 C6 C7 123.8(3) . .
C5 C6 F2 118.0(3) . .
F2 C6 C7 118.2(3) . .
C6 C7 H7 120.8 . .
C8 C7 C6 118.3(3) . .
C8 C7 H7 120.8 . .
C7 C8 H8 121.0 . .
C7 C8 C9 118.0(3) . .
C9 C8 H8 121.0 . .
C8 C9 C4 124.0(3) . .
F1 C9 C4 118.2(2) . .
F1 C9 C8 117.7(3) . .
C1 N1 C3 109.4(2) . .
C1 N1 H1 107(2) . .
C2 N1 C1 110.8(2) . .
C2 N1 C3 112.6(2) . .
C2 N1 H1 105(2) . .
C3 N1 H1 111.2(19) . .
Cl1 Pd1 Cl1 180.0 2_565 .
Cl2 Pd1 Cl1 89.28(2) 2_565 .
Cl2 Pd1 Cl1 89.28(2) . 2_565
Cl2 Pd1 Cl1 90.72(2) . .
Cl2 Pd1 Cl1 90.72(2) 2_565 2_565
Cl2 Pd1 Cl2 180.0 . 2_565
loop_
_geom_bond_atom_site_label_1
_geom_bond_atom_site_label_2
_geom_bond_distance
_geom_bond_site_symmetry_2
C1 H1A 0.9600 .
C1 H1B 0.9600 .
C1 H1C 0.9600 .
C1 N1 1.492(3) .
C2 H2A 0.9600 .
C2 H2B 0.9600 .
C2 H2C 0.9600 .
C2 N1 1.488(4) .
C3 H3A 0.9700 .
C3 H3B 0.9700 .
C3 C4 1.501(3) .
C3 N1 1.507(3) .
C4 C5 1.399(3) .
C4 C9 1.384(4) .
C5 H5 0.9300 .
C5 C6 1.370(4) .
C6 C7 1.385(5) .
C6 F2 1.372(3) .
C7 H7 0.9300 .
C7 C8 1.382(4) .
C8 H8 0.9300 .
C8 C9 1.383(4) .
C9 F1 1.366(3) .
Cl1 Pd1 2.3125(6) .
Cl2 Pd1 2.2968(7) .
N1 H1 0.88(3) .
Pd1 Cl1 2.3125(6) 2_565
Pd1 Cl2 2.2968(7) 2_565
loop_
_geom_torsion_atom_site_label_1
_geom_torsion_atom_site_label_2
_geom_torsion_atom_site_label_3
_geom_torsion_atom_site_label_4
_geom_torsion
C3 C4 C5 C6 -174.6(3)
C3 C4 C9 C8 174.7(3)
C3 C4 C9 F1 -3.4(4)
C4 C3 N1 C1 170.6(2)
C4 C3 N1 C2 -65.8(3)
C4 C5 C6 C7 -0.6(5)
C4 C5 C6 F2 179.2(3)
C5 C4 C9 C8 -0.4(4)
C5 C4 C9 F1 -178.6(2)
C5 C6 C7 C8 0.3(5)
C6 C7 C8 C9 -0.1(4)
C7 C8 C9 C4 0.1(4)
C7 C8 C9 F1 178.3(2)
C9 C4 C5 C6 0.6(4)
F2 C6 C7 C8 -179.5(2)
N1 C3 C4 C5 -88.7(3)
N1 C3 C4 C9 96.3(3)
