#------------------------------------------------------------------------------
#$Date: 2019-11-24 05:13:33 +0200 (Sun, 24 Nov 2019) $
#$Revision: 236806 $
#$URL: file:///home/coder/svn-repositories/cod/cif/4/08/74/4087458.cif $
#------------------------------------------------------------------------------
#
# This file is available in the Crystallography Open Database (COD),
# http://www.crystallography.net/
#
# All data on this site have been placed in the public domain by the
# contributors.
#
data_4087458
loop_
_publ_author_name
'Engl, Pascal S.'
'Senn, Remo'
'Otth, Elisabeth'
'Togni, Antonio'
_publ_section_title
;
 Synthesis and Characterization of N-Trifluoromethyl N-Heterocyclic
 Carbene Ligands and Their Complexes
;
_journal_issue                   7
_journal_name_full               Organometallics
_journal_page_first              1384
_journal_paper_doi               10.1021/acs.organomet.5b00137
_journal_volume                  34
_journal_year                    2015
_chemical_formula_moiety         'C9 H7 Au Cl F3 N2'
_chemical_formula_sum            'C9 H7 Au Cl F3 N2'
_chemical_formula_weight         432.58
_chemical_melting_point          324
_space_group_crystal_system      monoclinic
_space_group_IT_number           11
_space_group_name_Hall           '-P 2yb'
_space_group_name_H-M_alt        'P 1 21/m 1'
_atom_sites_solution_hydrogens   geom
_atom_sites_solution_primary     direct
_audit_creation_date             2014-12-04
_audit_creation_method
;
Olex2 1.2
(compiled 2014.06.27 svn.r2953 for OlexSys, GUI svn.r4855)
;
_cell_angle_alpha                90
_cell_angle_beta                 108.303(2)
_cell_angle_gamma                90
_cell_formula_units_Z            2
_cell_length_a                   9.0300(15)
_cell_length_b                   6.5561(11)
_cell_length_c                   9.5756(16)
_cell_measurement_reflns_used    3336
_cell_measurement_temperature    100(2)
_cell_measurement_theta_max      30.98
_cell_measurement_theta_min      2.24
_cell_volume                     538.21(16)
_computing_cell_refinement       'Bruker SAINT'
_computing_data_collection       'Bruker APEX2'
_computing_data_reduction        'Bruker SAINT'
_computing_molecular_graphics    'Olex2 (Dolomanov et al., 2009)'
_computing_publication_material  'Olex2 (Dolomanov et al., 2009)'
_computing_structure_refinement  'XL (Sheldrick, 2008)'
_computing_structure_solution    'ShelXS (Sheldrick, 2008)'
_diffrn_ambient_temperature      100(2)
_diffrn_measured_fraction_theta_full 1.000
_diffrn_measured_fraction_theta_max 0.999
_diffrn_measurement_device_type  'Bruker APEX-II CCD'
_diffrn_measurement_method       '\f and \w scans'
_diffrn_radiation_type           MoK\a
_diffrn_radiation_wavelength     0.71073
_diffrn_reflns_av_R_equivalents  0.0612
_diffrn_reflns_av_unetI/netI     0.0456
_diffrn_reflns_Laue_measured_fraction_full 1.000
_diffrn_reflns_Laue_measured_fraction_max 0.999
_diffrn_reflns_limit_h_max       13
_diffrn_reflns_limit_h_min       -12
_diffrn_reflns_limit_k_max       9
_diffrn_reflns_limit_k_min       -9
_diffrn_reflns_limit_l_max       13
_diffrn_reflns_limit_l_min       -13
_diffrn_reflns_number            10085
_diffrn_reflns_point_group_measured_fraction_full 1.000
_diffrn_reflns_point_group_measured_fraction_max 0.999
_diffrn_reflns_theta_full        25.242
_diffrn_reflns_theta_max         30.988
_diffrn_reflns_theta_min         2.240
_diffrn_standards_number         0
_exptl_absorpt_coefficient_mu    13.927
_exptl_absorpt_correction_T_max  0.9978
_exptl_absorpt_correction_T_min  0.5362
_exptl_absorpt_correction_type   none
_exptl_absorpt_process_details   'SADABS 2004/1'
_exptl_crystal_colour            colourless
_exptl_crystal_density_diffrn    2.669
_exptl_crystal_description       plate
_exptl_crystal_F_000             396
_exptl_crystal_size_max          0.116
_exptl_crystal_size_mid          0.112
_exptl_crystal_size_min          0.048
_refine_diff_density_max         1.888
_refine_diff_density_min         -1.749
_refine_diff_density_rms         0.221
_refine_ls_extinction_method     none
_refine_ls_goodness_of_fit_ref   1.000
_refine_ls_hydrogen_treatment    constr
_refine_ls_matrix_type           full
_refine_ls_number_parameters     95
_refine_ls_number_reflns         1852
_refine_ls_number_restraints     0
_refine_ls_restrained_S_all      1.000
_refine_ls_R_factor_all          0.0337
_refine_ls_R_factor_gt           0.0264
_refine_ls_shift/su_max          0.001
_refine_ls_shift/su_mean         0.000
_refine_ls_structure_factor_coef Fsqd
_refine_ls_weighting_details
'w=1/[\s^2^(Fo^2^)+(0.0272P)^2^] where P=(Fo^2^+2Fc^2^)/3'
_refine_ls_weighting_scheme      calc
_refine_ls_wR_factor_gt          0.0545
_refine_ls_wR_factor_ref         0.0566
_reflns_Friedel_coverage         0.000
_reflns_number_gt                1648
_reflns_number_total             1852
_reflns_threshold_expression     'I > 2\s(I)'
_cod_data_source_file            om5b00137_si_002.cif
_cod_data_source_block           Compound_9a
_cod_database_code               4087458
_shelxl_version_number           2013-4
_shelx_space_group_comment
;
The symmetry employed for this shelxl refinement is uniquely defined
by the following loop, which should always be used as a source of
symmetry information in preference to the above space-group names.
They are only intended as comments.
;
_shelx_estimated_absorpt_t_max   0.555
_shelx_estimated_absorpt_t_min   0.295
_olex2_refinement_description
;
1. Others
 Fixed Sof: H9A(0.5) H9B(0.5) H9C(0.5)
 Fixed U12: Au1(0) Cl1(0) C1(0) C2(0) N1(0) F2(0) C5(0) C4(0) C3(0) N2(0)
 C8(0) C7(0) C9(0) C6(0)
 Fixed U23: Au1(0) Cl1(0) C1(0) C2(0) N1(0) F2(0) C5(0) C4(0) C3(0) N2(0)
 C8(0) C7(0) C9(0) C6(0)
 Fixed Uiso: H5(0.029) H4(0.022) H7(0.023) H9A(0.035) H9B(0.035) H9C(0.035)
 H6(0.032)
 Fixed X: H5(0.4505) H4(0.4324) H7(0.9223) H9A(1.1305) H9B(1.1151) H9C(1.1526)
 H6(0.6883)
 Fixed Y: Au1(0.25) Cl1(0.25) C1(0.25) C2(0.25) N1(0.25) F2(0.25) C5(0.25)
 H5(0.25) C4(0.25) H4(0.25) C3(0.25) N2(0.25) C8(0.25) C7(0.25) H7(0.25)
 C9(0.25) H9A(0.3902) H9B(0.1675) H9C(0.1923) C6(0.25) H6(0.25)
 Fixed Z: H5(-0.2246) H4(0.0155) H7(-0.0717) H9A(0.235) H9B(0.1634)
 H9C(0.3374) H6(-0.2653)
;
_shelx_res_file
;
TITL pe_nhc_054_Au8 in P2(1)/m
CELL 0.71073   9.03000   6.55610   9.57560  90.0000 108.3032  90.0000
ZERR    2.00   0.00150   0.00110   0.00160   0.0000   0.0021   0.0000
LATT 1
SYMM -X, 0.5+Y, -Z
SFAC C  H  N  F  Cl Au
UNIT 18  14  4  6  2  2
L.S. 4
ACTA
BOND
LIST 3
CONF
FMAP 2
PLAN 5
SIZE 0.048 0.112 0.116
TEMP -173.000

REM detector distance 5 cm
REM exposure time/frame: t = 10 sec
REM colourless, plate
REM Crystallographer Elli Otth

WGHT    0.027200
FVAR       0.11536
MOLE 1
AU1   6    0.988475    0.250000    0.544878    10.50000    0.01447    0.01159 =
         0.01526    0.00000    0.00415    0.00000
CL1   5    1.132659    0.250000    0.787364    10.50000    0.01786    0.01678 =
         0.01724    0.00000    0.00330    0.00000
C1    1    0.866483    0.250000    0.332898    10.50000    0.01959    0.01041 =
         0.01822    0.00000    0.00745    0.00000
C2    1    0.605949    0.250000    0.353798    10.50000    0.01547    0.02718 =
         0.02153    0.00000    0.00871    0.00000
N1    3    0.709088    0.250000    0.268662    10.50000    0.01657    0.01427 =
         0.01459    0.00000    0.00832    0.00000
F2    4    0.459925    0.250000    0.267460    10.50000    0.01864    0.04546 =
         0.02365    0.00000    0.00551    0.00000
F1    4    0.625764    0.087321    0.439612    11.00000    0.02813    0.03775 =
         0.02902    0.01285    0.01335   -0.00143
C5    1    0.543010    0.250000   -0.142597    10.50000    0.02824    0.02494 =
         0.01589    0.00000    0.00194    0.00000
AFIX  43
H5    2    0.450523    0.250000   -0.224633    10.50000   -1.20000
AFIX   0
C4    1    0.530724    0.250000   -0.001134    10.50000    0.01671    0.01843 =
         0.01877    0.00000    0.00253    0.00000
AFIX  43
H4    2    0.432404    0.250000    0.015509    10.50000   -1.20000
AFIX   0
C3    1    0.670184    0.250000    0.114390    10.50000    0.02050    0.01153 =
         0.01404    0.00000    0.00538    0.00000
N2    3    0.929071    0.250000    0.222555    10.50000    0.01542    0.01027 =
         0.02079    0.00000    0.00641    0.00000
C8    1    0.812174    0.250000    0.088206    10.50000    0.01829    0.01246 =
         0.01687    0.00000    0.00234    0.00000
C7    1    0.824366    0.250000   -0.054320    10.50000    0.02417    0.01862 =
         0.02013    0.00000    0.01366    0.00000
AFIX  43
H7    2    0.922323    0.250000   -0.071690    10.50000   -1.20000
AFIX   0
C9    1    1.095415    0.250000    0.241107    10.50000    0.01710    0.02789 =
         0.02533    0.00000    0.00710    0.00000
AFIX 137
H9A   2    1.130513    0.390196    0.234975    10.50000   -1.50000
H9B   2    1.115091    0.167456    0.163448    10.50000   -1.50000
H9C   2    1.152595    0.192348    0.337384    10.50000   -1.50000
AFIX   0
C6    1    0.685909    0.250000   -0.166853    10.50000    0.04262    0.02019 =
         0.01840    0.00000    0.01267    0.00000
AFIX  43
H6    2    0.688321    0.250000   -0.265325    10.50000   -1.20000
AFIX   0
HKLF 4

REM  pe_nhc_054_Au8 in P2(1)/m
REM R1 =  0.0264 for    1648 Fo > 4sig(Fo)  and  0.0337 for all    1852 data
REM     95 parameters refined using      0 restraints

END

WGHT      0.0222      0.0000

REM Highest difference peak  1.888,  deepest hole -1.749,  1-sigma level  0.221
Q1    1   1.0801  0.2500  0.5670  10.50000  0.05    1.89
Q2    1   0.9005  0.2500  0.5206  10.50000  0.05    1.73
Q3    1   1.0893  0.1347  0.5194  11.00000  0.05    1.60
Q4    1   0.9935  0.2500  0.4793  10.50000  0.05    1.45
Q5    1   0.9998  0.2500  0.6117  10.50000  0.05    1.44
;
_shelx_res_checksum              7893
_shelx_hkl_file
;
   1   0   0  181.73    8.04
  -1   0   0  196.22    9.15
  -1   0   0  194.84    8.06
   1   0   0  168.89    8.53
  -1   0   0  191.34    9.41
  -2   0   0  277.82   13.16
  -2   0   0  270.56   13.54
   2   0   0  230.73   12.27
   2   0   0  277.81   11.63
  -2   0   0  276.28   11.62
   3   0   0  139.74    7.33
  -3   0   0  150.58    6.94
   3   0   0  146.04    6.92
  -3   0   0  150.98    7.73
  -3   0   0  155.04    7.99
   4   0   0   53.12    3.49
  -4   0   0   54.56    3.26
  -4   0   0   53.78    3.55
   4   0   0   58.11    3.30
  -4   0   0   52.37    3.40
   5   0   0   92.34    5.47
  -5   0   0   96.81    5.68
   5   0   0   95.84    5.05
  -5   0   0   91.03    5.06
  -5   0   0   93.87    5.46
  -6   0   0  119.57    6.46
   6   0   0  121.18    6.92
  -6   0   0  124.87    6.98
  -6   0   0  121.06    7.20
   6   0   0  124.82    6.51
  -7   0   0   94.43    5.85
   7   0   0   95.11    6.15
  -7   0   0   96.27    6.15
   7   0   0   98.64    5.68
  -8   0   0   73.61    5.06
   8   0   0   71.21    5.34
   8   0   0   68.43    4.79
  -8   0   0   69.86    4.79
  -9   0   0   41.62    3.76
   9   0   0   46.97    4.83
  10   0   0   21.85    3.66
  11   0   0   22.12    3.90
  12   0   0    7.51    3.21
   0  -1   0   -0.02    0.26
   0  -1   0    0.82    0.52
   0  -1   0   -0.31    0.24
   0   1   0   -0.39    0.34
   1  -1   0   53.06    2.46
  -1  -1   0   53.74    2.64
  -1  -1   0   49.39    3.12
  -1  -1   0   52.41    2.47
   1  -1   0   52.92    2.65
   1  -1   0   56.83    2.69
   1   1   0   57.07    2.60
  -1   1   0   48.38    3.06
   1   1   0   52.13    2.67
   1   1   0   52.74    2.46
  -2  -1   0   13.39    1.06
  -2  -1   0   14.17    1.62
   2  -1   0   13.88    1.10
   2  -1   0   12.71    1.05
   2   1   0   13.62    1.08
  -2   1   0   12.66    0.93
  -2   1   0   11.94    0.71
   2   1   0   13.02    0.95
  -2   1   0   11.33    1.46
   2   1   0   16.17    1.11
  -3  -1   0    4.81    0.91
   3  -1   0    5.39    0.88
  -3  -1   0    4.41    0.76
   3  -1   0    6.97    1.02
  -3  -1   0    4.73    1.24
   3   1   0    4.44    0.92
  -3   1   0    4.97    0.66
   3   1   0    5.65    0.95
  -3   1   0    6.38    1.30
  -4  -1   0   28.24    2.15
  -4  -1   0   27.77    2.54
  -4  -1   0   30.20    2.15
   4  -1   0   32.04    2.30
   4  -1   0   32.28    2.39
   4   1   0   27.97    2.23
   4   1   0   28.55    2.13
  -4   1   0   27.27    1.90
  -4   1   0   29.72    2.59
  -5  -1   0   16.27    1.90
   5  -1   0   17.97    2.13
  -5  -1   0   18.44    2.30
   5  -1   0   22.35    2.26
  -5  -1   0   19.82    1.80
  -5   1   0   15.97    1.47
   5   1   0   12.99    1.87
   5   1   0   12.59    1.71
  -5   1   0   18.57    2.35
   6  -1   0   40.22    3.42
   6  -1   0   58.61    3.67
  -6  -1   0   44.89    3.29
  -6  -1   0   53.31    3.48
  -6  -1   0   49.00    3.67
   6   1   0   46.97    3.35
  -6   1   0   54.45    3.25
   6   1   0   46.90    3.61
  -6   1   0   44.83    3.78
  -7  -1   0   38.44    3.15
  -7  -1   0   38.05    3.30
   7  -1   0   38.73    3.65
  -7  -1   0   39.01    3.11
   7  -1   0   35.84    3.30
  -7   1   0   39.70    3.52
   7   1   0   38.58    3.48
   7   1   0   36.67    3.13
   8  -1   0   27.97    3.28
  -8  -1   0   28.20    2.81
  -8  -1   0   25.70    3.17
   8  -1   0   31.97    3.82
   8   1   0   26.15    3.32
  -8   1   0   32.15    3.72
   9  -1   0   10.14    2.15
  -9  -1   0   15.11    2.56
   9  -1   0   11.83    2.58
  -9   1   0   10.92    2.48
   9   1   0   15.08    2.67
  10  -1   0   10.67    3.04
  10   1   0    5.16    2.41
 -10   1   0    2.77    2.18
  11  -1   0   21.85    4.03
  11   1   0   15.64    3.34
 -11   1   0   18.07    3.21
  12  -1   0   18.66    4.01
  12   1   0   11.60    3.36
   0  -2   0  805.30   45.04
   0  -2   0 1000.00   39.23
   0  -2   0  986.05   41.82
   0   2   0  943.94   46.74
   1  -2   0  248.30   13.73
   1  -2   0  289.22   12.84
   1  -2   0  288.51   11.99
  -1  -2   0  269.23   14.13
  -1  -2   0  284.97   12.01
  -1  -2   0  294.13   12.84
   1   2   0  298.91   13.08
   1   2   0  278.62   14.24
  -1   2   0  281.39   14.67
  -2  -2   0  241.37   10.93
   2  -2   0  249.19   10.95
  -2  -2   0  242.85   10.26
   2  -2   0  209.89   11.36
  -2  -2   0  220.50   12.14
   2  -2   0  244.81   10.24
   2   2   0  255.90   11.14
   2   2   0  235.60   11.91
   2   2   0  243.79   10.50
  -2   2   0  224.61   12.64
   3  -2   0   86.40    4.22
  -3  -2   0   89.71    4.21
   3  -2   0   85.71    4.46
  -3  -2   0   77.59    5.23
   3   2   0   80.92    4.34
  -3   2   0   80.68    4.08
   3   2   0   85.06    4.16
  -3   2   0   80.11    5.24
   3   2   0   89.55    4.35
   4  -2   0  121.38    5.63
  -4  -2   0  105.11    6.62
  -4  -2   0  120.23    5.96
   4  -2   0  102.73    5.76
  -4  -2   0  108.53    5.51
  -4   2   0  103.83    5.16
   4   2   0  104.80    5.36
  -4   2   0  113.31    6.74
   4   2   0  112.55    5.66
   5  -2   0   58.33    3.60
  -5  -2   0   56.72    4.19
  -5  -2   0   51.90    3.41
  -5  -2   0   62.12    3.48
   5  -2   0   55.98    3.70
   5   2   0   49.51    3.23
  -5   2   0   54.92    4.05
   5   2   0   52.36    3.41
  -5   2   0   55.31    3.10
   6  -2   0  103.17    5.81
  -6  -2   0  102.30    6.52
  -6  -2   0  107.45    5.88
  -6  -2   0   96.24    5.54
   6  -2   0  105.31    6.09
   6   2   0   88.57    5.27
  -6   2   0  117.47    6.76
   6   2   0   91.52    5.52
  -7  -2   0   91.92    6.13
  -7  -2   0   80.58    5.24
   7  -2   0   94.70    5.99
   7  -2   0  105.54    5.82
   7   2   0   89.25    5.78
  -7   2   0  104.22    6.73
   8  -2   0   52.93    4.16
   8  -2   0   43.28    4.25
  -8  -2   0   46.73    4.10
  -8   2   0   42.03    4.06
   8   2   0   39.63    3.69
   9  -2   0   56.05    4.47
   9  -2   0   38.96    4.56
  -9  -2   0   47.38    4.19
  -9   2   0   40.70    4.18
   9   2   0   40.28    4.27
  10  -2   0   21.52    3.93
 -10  -2   0   24.38    3.35
  10   2   0   20.55    3.36
 -10   2   0   18.32    3.37
  11  -2   0   13.40    3.62
  11   2   0    9.32    2.92
 -11   2   0   16.79    3.25
  12  -2   0   15.81    3.87
  12   2   0    3.67    2.80
 -12   2   0    0.56    2.27
   0  -3   0    0.69    1.07
   0  -3   0   -0.15    0.38
   0  -3   0   -0.71    0.43
   0   3   0   -0.02    0.57
  -1  -3   0    4.67    0.71
  -1  -3   0    3.77    0.75
   1  -3   0    4.93    1.21
   1  -3   0    2.99    0.61
   1  -3   0    4.28    0.83
  -1  -3   0    4.28    1.50
  -1   3   0    4.59    1.07
   1   3   0    3.33    0.60
  -2  -3   0    2.05    0.61
   2  -3   0    2.46    0.60
   2  -3   0    2.64    0.76
  -2  -3   0    2.19    1.48
  -2  -3   0    3.27    0.70
   2  -3   0    2.62    0.75
   2   3   0    2.86    0.41
   2   3   0    3.76    0.66
  -2   3   0    4.14    1.28
  -3  -3   0   -0.84    0.52
   3  -3   0    0.31    0.54
   3  -3   0    0.33    0.17
  -3  -3   0   -1.08    1.17
   3  -3   0   -0.17    0.61
  -3   3   0   -0.30    1.07
   3   3   0   -0.21    0.59
   3   3   0    0.18    0.20
   3   3   0   -0.30    0.48
   4  -3   0   18.28    1.65
  -4  -3   0   18.05    1.85
  -4  -3   0   19.35    2.67
   4  -3   0   19.15    1.79
  -4  -3   0   20.00    1.17
   4   3   0   19.77    1.75
   4   3   0   20.75    1.73
  -4   3   0   18.15    2.59
   5  -3   0   30.22    2.40
  -5  -3   0   30.73    2.38
   5  -3   0   27.68    2.43
  -5  -3   0   27.73    3.42
  -5   3   0   29.94    3.01
   5   3   0   27.39    2.17
  -6  -3   0   21.96    3.14
  -6  -3   0   18.45    2.25
   6  -3   0   17.92    2.28
   6  -3   0   16.68    2.22
  -6   3   0   17.91    2.98
   6   3   0   18.67    2.22
  -7  -3   0   41.40    3.26
   7  -3   0   38.18    3.53
   7  -3   0   41.93    3.53
  -7  -3   0   38.10    3.87
  -7   3   0   48.15    4.36
   7   3   0   36.00    3.21
  -8  -3   0   19.10    3.27
  -8  -3   0   18.37    2.63
   8  -3   0   20.72    3.01
   8  -3   0   16.96    2.79
  -8   3   0   21.98    3.54
   8   3   0   17.67    2.66
   9  -3   0    7.71    2.30
  -9  -3   0    4.74    2.08
   9  -3   0    6.47    2.24
  -9   3   0    5.50    2.50
   9   3   0    3.51    1.94
 -10  -3   0   13.61    2.87
  10  -3   0    8.94    3.04
  10  -3   0   15.24    3.12
  10   3   0   10.94    2.67
 -10   3   0   16.21    3.44
  11  -3   0   12.07    3.46
 -11  -3   0   15.64    2.96
 -11   3   0   10.10    3.08
  11   3   0    6.14    2.95
   0  -4   0  350.12   20.33
   0  -4   0  425.10   17.34
   0  -4   0  421.80   18.58
   0   4   0  397.20   20.16
   1  -4   0  152.26    8.97
  -1  -4   0  147.04    9.34
  -1  -4   0  177.00    7.61
   1  -4   0  173.10    7.57
   1  -4   0  177.15    8.23
  -1  -4   0  168.44    8.17
  -1   4   0  169.19    9.14
   1   4   0  166.12    8.67
  -2  -4   0  147.20    6.57
   2  -4   0  137.76    7.02
   2  -4   0  139.35    6.49
  -2  -4   0  142.57    8.41
   2  -4   0  133.32    7.41
  -2  -4   0  140.97    7.04
  -2   4   0  139.16    8.08
   2   4   0  143.05    6.90
   2   4   0  137.39    7.14
   3  -4   0   64.53    3.38
  -3  -4   0   59.38    4.74
  -3  -4   0   64.81    3.48
   3  -4   0   59.07    3.36
   3  -4   0   64.08    3.72
  -3  -4   0   63.80    3.69
  -3   4   0   67.13    4.67
   3   4   0   59.32    3.51
  -4  -4   0   74.79    5.67
  -4  -4   0   75.19    4.25
   4  -4   0   85.64    4.63
   4  -4   0   77.84    4.23
  -4   4   0   76.60    5.64
   4   4   0   78.64    4.40
  -5  -4   0   41.19    4.13
  -5  -4   0   48.39    3.16
   5  -4   0   42.33    3.21
   5  -4   0   47.94    3.09
   5   4   0   43.47    3.01
  -5   4   0   40.99    4.16
   6  -4   0   78.40    4.65
  -6  -4   0   70.55    5.67
   6  -4   0   66.28    4.73
  -6  -4   0   85.32    4.70
  -6   4   0   84.06    6.36
   6   4   0   78.40    4.87
  -7  -4   0   69.99    5.76
  -7  -4   0   68.85    4.69
   7  -4   0   86.86    5.12
   7  -4   0   72.02    5.11
  -7   4   0   79.93    6.12
   7   4   0   62.89    4.50
   8  -4   0   34.48    3.85
  -8  -4   0   30.98    3.48
   8  -4   0   29.61    3.60
  -8  -4   0   41.07    4.68
   8   4   0   32.31    3.04
  -8   4   0   36.00    4.70
  -9  -4   0   27.06    3.90
   9  -4   0   26.38    3.88
   9  -4   0   28.09    3.77
   9   4   0   26.42    3.44
  -9   4   0   39.14    5.03
  10  -4   0   19.03    3.80
  10  -4   0   20.27    3.59
 -10  -4   0   17.05    3.30
  10   4   0   10.80    2.77
 -10   4   0   12.73    3.47
  11  -4   0   10.29    3.01
 -11  -4   0   13.99    3.19
  11   4   0   10.89    2.87
 -11   4   0    8.14    3.26
   0  -5   0   -0.39    0.52
   0  -5   0   -0.41    0.56
   0  -5   0   -0.15    1.44
   0   5   0    0.48    0.74
   1  -5   0    6.51    1.68
  -1  -5   0    4.63    0.92
   1  -5   0    5.81    1.16
   1  -5   0    6.97    1.01
  -1  -5   0    4.78    1.07
  -1  -5   0    4.43    1.85
   1   5   0    8.21    1.08
  -1   5   0    8.38    1.55
   2  -5   0    0.68    0.97
  -2  -5   0    0.22    0.68
  -2  -5   0   -0.03    0.70
  -2  -5   0   -1.14    1.51
   2  -5   0    0.31    0.57
   2  -5   0    0.39    0.82
   2   5   0    0.58    0.63
  -2   5   0   -1.10    1.00
   3  -5   0    4.75    1.15
  -3  -5   0    1.80    1.01
   3  -5   0    3.93    0.94
  -3  -5   0   -0.10    1.68
  -3  -5   0    3.33    0.98
  -3   5   0    3.48    1.65
   3   5   0    1.90    0.83
  -4  -5   0   12.03    1.70
   4  -5   0   11.30    1.58
  -4  -5   0    9.64    2.43
   4  -5   0    8.24    1.56
  -4   5   0    8.62    2.44
   4   5   0   12.00    1.62
  -5  -5   0   14.76    2.08
  -5  -5   0   15.99    3.11
   5  -5   0   10.28    1.67
   5  -5   0   10.68    1.89
   5   5   0   13.84    1.89
  -5   5   0   14.21    3.08
   6  -5   0   19.99    2.46
  -6  -5   0   15.69    3.20
  -6  -5   0   18.83    2.50
   6  -5   0   20.27    2.66
   6   5   0   19.30    2.39
  -6   5   0   22.80    3.93
   7  -5   0   21.95    2.86
  -7  -5   0   23.14    3.85
  -7  -5   0   21.48    2.79
   7  -5   0   23.21    3.08
  -7   5   0   18.36    3.70
   7   5   0   23.97    2.82
   8  -5   0   15.52    2.73
   8  -5   0   16.15    2.93
  -8  -5   0   10.15    2.33
  -8  -5   0   12.12    3.04
   8   5   0   10.65    2.21
  -8   5   0   12.09    3.41
  -9  -5   0   11.24    2.99
   9  -5   0    4.25    2.42
   9  -5   0    4.04    2.22
  -9   5   0    3.36    2.67
   9   5   0    7.79    2.16
  10  -5   0   12.07    3.41
  10  -5   0   10.14    2.94
 -10  -5   0    6.49    2.66
  10   5   0    4.16    2.11
 -10   5   0    3.51    3.00
   0  -6   0  223.54   10.00
   0  -6   0  233.78   10.90
   0  -6   0  188.91   12.10
   0   6   0  230.41   12.24
   1  -6   0   78.56    5.60
   1  -6   0   83.93    4.88
  -1  -6   0   84.96    6.29
  -1  -6   0   82.27    4.83
  -1  -6   0   82.15    4.38
   1  -6   0   81.26    4.34
   1   6   0   86.82    4.76
  -1   6   0   81.97    5.38
  -2  -6   0   73.42    4.14
  -2  -6   0   71.79    4.51
  -2  -6   0   72.18    6.03
   2  -6   0   79.11    4.65
   2  -6   0   76.40    4.10
   2   6   0   76.55    4.45
  -2   6   0   78.38    5.35
  -3  -6   0   47.74    4.94
   3  -6   0   52.60    3.21
  -3  -6   0   50.39    3.58
  -3  -6   0   51.71    3.31
   3  -6   0   53.09    3.66
  -3   6   0   54.76    4.52
   3   6   0   47.31    3.26
  -4  -6   0   38.96    4.79
   4  -6   0   28.40    2.45
   4  -6   0   33.92    2.76
  -4  -6   0   33.52    2.72
   4   6   0   27.86    2.46
  -4   6   0   36.66    4.48
   5  -6   0   35.54    2.97
   5  -6   0   37.38    3.09
  -5  -6   0   38.14    4.91
  -5  -6   0   37.66    3.18
   5   6   0   36.84    3.03
  -5   6   0   39.09    5.04
  -6  -6   0   49.00    3.80
   6  -6   0   54.93    3.90
   6  -6   0   52.64    4.16
  -6  -6   0   48.55    4.84
   6   6   0   48.29    3.70
  -6   6   0   49.86    6.02
   7  -6   0   39.15    3.56
  -7  -6   0   38.56    3.95
   7  -6   0   39.21    4.21
  -7  -6   0   43.99    5.21
  -7   6   0   37.86    5.45
   7   6   0   34.78    3.33
   8  -6   0   23.77    3.33
  -8  -6   0   28.97    4.49
   8  -6   0   25.29    3.67
   8   6   0   21.14    3.13
  -8   6   0   35.57    5.13
   9  -6   0   17.70    3.49
   9  -6   0   19.97    3.62
  -9  -6   0   19.44    3.81
  -9   6   0   16.09    4.23
   9   6   0    9.07    2.39
   0  -7   0    0.22    0.80
   0  -7   0    0.30    0.80
  -1  -7   0    3.32    1.30
  -1  -7   0    3.82    2.45
   1  -7   0    2.44    1.24
   1  -7   0    1.90    0.99
  -1  -7   0    1.31    1.00
   1   7   0    3.05    1.11
  -2  -7   0    0.63    1.03
  -2  -7   0   -0.77    0.92
   2  -7   0   -0.17    0.84
   2  -7   0   -0.06    0.79
  -2  -7   0   -0.66    1.96
  -2   7   0    1.73    1.49
   2   7   0   -0.44    0.85
  -3  -7   0    0.87    1.07
   3  -7   0    0.69    1.24
  -3  -7   0    3.88    2.54
  -3  -7   0    3.58    1.39
   3  -7   0    1.60    1.06
   3   7   0    2.52    1.13
  -3   7   0    3.40    1.85
  -4  -7   0    5.77    1.60
  -4  -7   0    6.83    2.86
   4  -7   0    5.66    1.70
   4  -7   0    2.95    1.22
   4   7   0    3.73    1.31
  -4   7   0    5.33    2.50
   5  -7   0    7.48    1.76
  -5  -7   0    4.56    2.74
  -5  -7   0    6.42    1.74
   5  -7   0    8.06    2.07
   5   7   0    8.07    1.76
  -5   7   0   10.99    3.30
   6  -7   0   15.15    2.63
  -6  -7   0   12.57    3.52
  -6  -7   0   12.78    2.42
   6  -7   0   12.46    2.23
  -6   7   0   10.84    3.65
   6   7   0   11.00    2.09
  -7  -7   0   15.12    2.75
  -7  -7   0   13.81    3.47
   7  -7   0   14.70    2.53
   7  -7   0   17.01    3.07
  -7   7   0   21.20    4.52
   7   7   0    8.56    2.09
   8  -7   0    6.01    2.48
   8  -7   0    4.52    2.11
  -8  -7   0   11.19    3.15
   8   7   0    4.63    1.90
  -8   7   0   14.04    4.33
   0  -8   0  111.72    6.50
   0  -8   0  100.59    5.72
  -1  -8   0   54.77    4.11
   1  -8   0   54.12    3.98
  -1  -8   0   51.38    3.72
   1  -8   0   54.18    3.67
   1   8   0   50.36    3.69
  -2  -8   0   42.45    3.55
  -2  -8   0   41.73    3.22
   2  -8   0   41.08    3.17
  -2  -8   0   31.14    4.85
   2  -8   0   44.49    3.72
   2   8   0   39.33    3.22
  -3  -8   0   22.40    4.21
  -3  -8   0   24.80    3.02
   3  -8   0   26.83    3.29
   3  -8   0   29.79    2.91
  -3  -8   0   27.00    2.92
   3   8   0   26.61    2.92
  -4  -8   0   23.15    2.89
  -4  -8   0   27.87    4.63
   4  -8   0   20.31    2.52
   4  -8   0   25.83    3.25
   4   8   0   20.61    2.75
  -4   8   0   24.50    4.01
   5  -8   0   20.47    3.17
  -5  -8   0   15.39    4.01
   5  -8   0   20.06    2.69
  -5  -8   0   22.56    2.97
   5   8   0   19.68    2.66
  -5   8   0   17.50    3.95
  -6  -8   0   29.55    3.47
   6  -8   0   25.11    3.14
   6  -8   0   28.23    3.63
  -6  -8   0   33.39    5.03
   6   8   0   20.56    2.83
  -6   8   0   17.74    4.51
   0  -9   0   -0.04    1.20
   0  -9   0    1.14    1.48
   0   9   0   -0.03    1.26
  -1  -9   0    3.06    1.55
   1  -9   0    0.20    1.24
  -1  -9   0    0.21    1.36
   1  -9   0    0.67    1.43
   1   9   0    2.96    1.45
   2  -9   0   -0.28    1.44
  -2  -9   0    1.23    1.44
  -2  -9   0    0.34    1.39
   2  -9   0   -1.94    1.21
   2   9   0    3.06    1.43
  -3  -9   0    3.90    2.80
   3  -9   0    0.06    1.36
  -3  -9   0   -0.31    1.32
  -3  -9   0    1.55    1.51
   3  -9   0   -0.79    1.39
   3   9   0    0.02    1.27
  12   0  -1    0.49    2.52
  11   0  -1   15.08    3.57
  10   0  -1   24.70    3.85
   9   0  -1   20.02    3.39
  -9   0   1   23.24    3.02
  -8   0   1   93.48    5.97
   8   0  -1   91.05    6.09
  -8   0   1   95.01    6.19
   8   0  -1   95.64    5.77
  -7   0   1   25.61    2.59
  -7   0   1   24.95    2.62
   7   0  -1   23.44    2.74
   7   0  -1   21.41    2.94
  -7   0   1   20.78    2.65
   6   0  -1   56.52    4.20
  -6   0   1   66.95    4.16
   6   0  -1   56.59    3.84
  -6   0   1   58.55    3.89
  -6   0   1   62.35    4.23
  -5   0   1   72.51    4.17
   5   0  -1   74.36    4.51
  -5   0   1   71.58    4.55
  -5   0   1   71.63    4.43
   5   0  -1   65.54    3.96
   4   0  -1  106.34    5.82
  -4   0   1  111.90    6.01
  -4   0   1  108.30    6.13
  -4   0   1  107.34    5.40
   4   0  -1  103.56    5.31
   3   0  -1  309.98   15.81
   3   0  -1  368.60   14.88
  -3   0   1  332.52   17.28
  -3   0   1  335.66   14.88
  -3   0   1  353.77   16.85
  -2   0   1  323.89   15.70
  -2   0   1  314.48   13.48
   2   0  -1  262.35   14.29
  -2   0   1  340.80   15.33
   2   0  -1  319.01   13.41
  -1   0   1  372.08   18.73
   1   0  -1  372.71   17.03
  -1   0   1  388.85   18.26
   0   0   1  213.93    9.23
   0   0   1  217.17    9.24
   0   0   1  230.78   10.93
   0   0   1  212.54    9.78
   0   0  -1  221.19   10.59
  -1   0  -1   91.18    4.79
   1   0   1  102.72    5.05
   1   0   1   94.30    4.24
   2   0   1  185.04    7.99
  -2   0  -1  190.90    8.99
   2   0   1  191.98    9.37
  -2   0  -1  174.17    8.02
   2   0   1  158.26    8.42
  -3   0  -1  254.05   11.68
   3   0   1  239.61   12.34
   3   0   1  268.74   13.61
   3   0   1  264.30   11.67
  -3   0  -1  284.97   13.13
   4   0   1   81.33    4.88
  -4   0  -1   79.33    4.58
  -4   0  -1   80.96    4.33
   4   0   1   84.61    4.66
   4   0   1   74.33    4.27
  -4   0  -1   82.35    4.85
  -5   0  -1  255.93   13.64
   5   0   1  247.40   11.83
   5   0   1  262.20   12.70
  -5   0  -1  263.93   11.89
  -5   0  -1  252.93   13.13
  -6   0  -1   79.51    4.97
   6   0   1   82.47    4.83
  -6   0  -1   75.96    4.69
  -6   0  -1   82.98    5.23
   6   0   1   88.77    5.33
   7   0   1  106.90    6.08
  -7   0  -1  105.56    6.33
   7   0   1  109.60    6.68
  -7   0  -1  106.17    6.68
  -8   0  -1   61.41    4.59
   8   0   1   60.50    4.46
   8   0   1   68.02    5.08
  -9   0  -1   31.76    3.24
   9   0   1   30.81    3.96
  10   0   1   34.03    4.39
  11   0   1   20.43    3.84
  12   0   1   16.83    3.75
  12  -1  -1   20.33    4.11
  12   1  -1   14.79    3.59
  11  -1  -1   18.14    3.85
  11   1  -1   21.23    3.77
 -11   1   1   18.50    3.45
  10  -1  -1   38.10    4.81
 -10   1   1   34.03    4.06
  10   1  -1   30.28    4.11
  -9  -1   1   68.67    5.09
   9  -1  -1   63.17    5.44
  -9   1   1   56.92    4.77
   9   1  -1   57.48    4.86
  -8  -1   1   84.59    5.67
  -8  -1   1   81.06    5.41
   8  -1  -1   79.54    5.86
   8  -1  -1   86.43    5.45
  -8  -1   1   83.51    5.29
  -8   1   1   72.20    5.45
   8   1  -1   76.46    5.30
   7  -1  -1   35.84    3.32
  -7  -1   1   36.19    3.16
  -7  -1   1   43.52    3.50
  -7  -1   1   39.87    3.10
   7  -1  -1   39.28    3.11
   7   1  -1   31.14    2.77
   7   1  -1   36.94    3.36
  -7   1   1   39.41    2.90
  -7   1   1   40.15    3.56
   6  -1  -1   91.39    5.13
  -6  -1   1   90.43    5.75
  -6  -1   1   84.22    5.01
   6  -1  -1   84.19    5.49
  -6  -1   1   94.53    5.45
  -6   1   1   90.95    5.65
   6   1  -1   73.46    5.07
  -6   1   1   85.65    4.92
   6   1  -1   91.51    4.93
  -5  -1   1   36.88    3.05
   5  -1  -1   39.24    3.00
  -5  -1   1   38.71    2.72
  -5  -1   1   37.53    2.74
   5  -1  -1   36.18    2.67
  -5   1   1   36.40    3.19
   5   1  -1   38.97    2.76
  -5   1   1   42.40    2.58
   5   1  -1   38.50    2.90
   4  -1  -1   61.17    3.61
  -4  -1   1   52.99    3.30
   4  -1  -1   59.89    3.30
  -4  -1   1   59.90    3.96
  -4  -1   1   57.29    3.49
   4   1  -1   60.66    3.50
  -4   1   1   55.32    3.16
  -4   1   1   51.26    3.77
  -4   1   1   63.90    3.28
   4   1  -1   54.97    3.31
  -3  -1   1   42.15    3.05
   3  -1  -1   49.40    2.78
   3  -1  -1   49.44    2.57
  -3  -1   1   44.19    2.62
  -3  -1   1   48.17    2.67
  -3   1   1   45.73    3.17
   3   1  -1   51.90    2.75
  -3   1   1   51.26    2.56
   3   1  -1   40.20    2.59
  -3   1   1   47.63    2.57
   2  -1  -1   19.85    1.29
  -2  -1   1   17.70    1.74
   2  -1  -1   20.45    1.25
  -2  -1   1   19.91    1.30
   2  -1  -1   21.18    1.17
  -2  -1   1   19.74    1.13
   2   1  -1   22.59    1.34
  -2   1   1   20.31    1.22
  -2   1   1   19.86    1.66
  -1  -1   1   42.60    2.20
  -1  -1   1   44.27    1.97
  -1  -1   1   38.38    2.55
   1  -1  -1   43.36    2.06
  -1  -1   1   43.29    2.04
  -1  -1   1   44.28    2.25
   1  -1  -1   43.03    2.14
   1   1  -1   44.78    2.23
  -1   1   1   44.40    2.57
  -1   1   1   44.57    2.11
   0  -1   1    0.78    0.32
   0  -1   1    0.98    0.15
   0  -1   1    1.10    0.47
   0  -1  -1    1.35    0.34
   0  -1  -1    0.82    0.25
   0  -1  -1    1.12    0.46
   0   1   1    0.79    0.32
   0   1   1    1.03    0.35
  -1  -1  -1   33.56    2.02
  -1  -1  -1   32.57    1.61
   1  -1   1   30.14    1.68
   1  -1   1   29.53    2.05
   1  -1   1   28.96    1.60
  -1   1  -1   31.22    1.62
   1   1   1   31.72    1.79
   1   1   1   30.89    1.64
   2  -1   1    3.36    0.60
  -2  -1  -1    4.32    0.98
   2  -1   1    2.82    0.99
   2  -1   1    4.36    0.78
  -2  -1  -1    3.51    0.69
   2   1   1    3.94    0.69
   2   1   1    3.71    0.69
  -2   1  -1    3.67    0.45
   2   1   1    3.75    0.63
  -3  -1  -1    6.10    1.30
   3  -1   1    5.34    1.08
  -3  -1  -1    6.26    1.02
   3  -1   1    5.30    0.97
   3   1   1    6.82    1.03
   3   1   1    6.24    0.97
  -3   1  -1    6.08    0.78
   3   1   1    4.90    0.98
  -3   1  -1    5.88    1.20
   4  -1   1    2.90    0.98
   4  -1   1    2.85    1.04
  -4  -1  -1    2.34    0.85
  -4  -1  -1    3.50    1.19
   4   1   1    3.04    1.04
   4   1   1    1.62    0.77
  -4   1  -1    2.12    0.73
  -4   1  -1    3.46    0.93
  -4   1  -1    1.63    0.89
   4   1   1    1.99    0.91
  -5  -1  -1    1.27    1.06
   5  -1   1    1.37    0.86
   5  -1   1   -0.35    0.91
  -5  -1  -1    1.61    0.89
  -5  -1  -1    1.05    0.63
   5   1   1   -0.04    0.95
  -5   1  -1    1.41    0.90
   5   1   1    1.87    1.00
  -5   1  -1    0.45    0.65
  -5   1  -1    0.64    0.99
  -6  -1  -1    1.74    0.86
   6  -1   1    0.09    1.10
  -6  -1  -1    1.30    1.05
   6  -1   1    0.91    1.03
  -6  -1  -1   -0.05    1.17
   6   1   1   -0.67    1.09
  -6   1  -1    1.23    1.19
   6   1   1    0.94    1.02
  -6   1  -1    3.14    0.93
  -7  -1  -1    2.59    1.07
   7  -1   1    4.00    1.59
  -7  -1  -1    1.96    1.28
   7  -1   1    2.12    1.62
  -7   1  -1    3.19    1.58
   7   1   1    4.54    1.32
   7   1   1    2.90    1.58
   8  -1   1    3.97    1.98
   8  -1   1    6.35    1.91
  -8  -1  -1    5.01    1.54
  -8  -1  -1    3.30    1.59
  -8   1  -1    5.11    1.97
   8   1   1    1.86    1.71
   9  -1   1    7.55    2.14
  -9  -1  -1    6.06    1.75
   9  -1   1    4.44    2.33
  -9   1  -1    5.60    1.98
   9   1   1    7.21    2.33
  10  -1   1   17.56    3.50
  10   1   1   17.13    3.34
 -10   1  -1   10.16    2.52
  11  -1   1   17.85    3.76
  11   1   1   17.44    3.46
 -11   1  -1   14.56    2.94
  12  -1   1    5.25    2.94
  12   1   1    7.89    3.02
  12  -2  -1    3.45    2.98
 -12   2   1    0.11    2.19
  12   2  -1   -2.28    2.11
  11  -2  -1    2.26    2.64
  11   2  -1    5.61    2.67
 -11   2   1    3.88    2.42
  10  -2  -1   18.19    3.67
 -10  -2   1   27.35    3.65
  10   2  -1   18.97    3.24
 -10   2   1   24.33    3.64
  -9  -2   1   27.58    3.54
   9  -2  -1   19.21    3.06
   9  -2  -1   19.08    3.45
  -9   2   1   28.43    3.84
   9   2  -1   21.58    3.04
   8  -2  -1   60.57    4.39
  -8  -2   1   49.60    3.98
   8  -2  -1   54.33    4.69
  -8  -2   1   56.80    4.60
   8   2  -1   49.69    4.16
  -8   2   1   58.86    4.64
   7  -2  -1   31.45    3.55
  -7  -2   1   36.80    3.55
   7  -2  -1   39.70    3.09
  -7  -2   1   34.12    2.98
  -7   2   1   38.92    3.75
   7   2  -1   31.33    2.81
  -6  -2   1   32.07    2.71
   6  -2  -1   37.55    2.91
   6  -2  -1   36.02    3.08
  -6  -2   1   36.19    2.54
  -6  -2   1   36.54    3.38
  -6   2   1   35.61    2.57
  -6   2   1   43.78    3.66
   6   2  -1   32.21    2.68
   6   2  -1   32.58    2.65
  -5  -2   1   46.80    3.81
  -5  -2   1   48.91    2.91
  -5  -2   1   45.43    2.95
   5  -2  -1   44.91    3.25
   5  -2  -1   49.01    3.12
   5  -2  -1   51.75    2.62
  -5   2   1   45.86    2.77
   5   2  -1   47.09    3.04
  -5   2   1   45.91    3.75
   5   2  -1   40.52    2.87
  -4  -2   1  148.14    9.01
   4  -2  -1  164.64    8.05
  -4  -2   1  160.60    7.57
   4  -2  -1  164.02    7.93
  -4  -2   1  160.25    8.17
   4  -2  -1  170.30    7.59
   4   2  -1  161.19    7.68
   4   2  -1  135.62    7.22
  -4   2   1  159.68    8.86
  -4   2   1  161.55    7.16
  -3  -2   1  171.47    9.74
   3  -2  -1  183.21    8.74
  -3  -2   1  179.26    8.05
   3  -2  -1  181.78    8.04
   3  -2  -1  174.41    8.55
  -3   2   1  176.73    9.96
  -3   2   1  184.16    8.14
   3   2  -1  185.18    8.70
   2  -2  -1  306.80   14.38
  -2  -2   1  299.95   14.41
   2  -2  -1  314.14   13.53
  -2  -2   1  279.24   15.87
  -2  -2   1  315.61   13.47
  -2  -2   1  331.34   13.56
   2  -2  -1  339.37   15.26
  -2   2   1  325.87   13.82
  -2   2   1  318.51   16.50
   2   2  -1  317.99   14.71
  -1  -2   1  363.71   16.61
   1  -2  -1  374.15   15.58
  -1  -2   1  379.79   15.48
   1  -2  -1  370.22   16.55
  -1  -2   1  330.52   18.09
  -1  -2   1  362.34   15.45
  -1   2   1  361.71   17.65
  -1   2   1  363.93   14.92
   1   2  -1  321.81   17.39
   0  -2  -1   98.17    4.91
   0  -2  -1   89.15    4.11
   0  -2   1   84.33    3.95
   0  -2  -1   90.14    4.32
   0  -2   1   89.36    3.95
   0  -2   1   90.94    4.41
   0   2  -1   74.20    4.66
   0   2   1   90.73    3.89
   0   2   1   87.87    4.52
   1  -2   1  171.65    7.63
   1  -2   1  173.88    7.61
  -1  -2  -1  185.73    9.19
   1  -2   1  170.88    8.67
  -1  -2  -1  183.48    7.80
   1  -2   1  169.34    8.27
  -1  -2  -1  181.57    8.22
   1   2   1  179.63    7.58
   1   2   1  169.95    8.69
   1   2   1  183.86    7.95
  -1   2  -1  148.89    9.11
  -2  -2  -1  114.79    6.54
   2  -2   1  122.07    5.42
   2  -2   1  115.20    5.78
  -2  -2  -1  122.90    5.48
   2  -2   1  114.57    5.31
  -2   2  -1  104.54    6.66
   2   2   1  114.95    6.05
   2   2   1  117.06    5.43
   2   2   1  123.60    5.69
  -2   2  -1  122.85    5.69
  -3  -2  -1  186.86    8.49
   3  -2   1  194.72    8.55
   3  -2   1  180.46    8.96
  -3  -2  -1  183.98    9.98
   3   2   1  183.05    9.41
  -3   2  -1  189.48   10.29
   3   2   1  171.88    8.32
   3   2   1  193.22    8.84
  -4  -2  -1  125.74    7.64
  -4  -2  -1  134.76    6.52
   4  -2   1  139.97    6.94
   4  -2   1  141.99    6.71
   4   2   1  131.32    6.29
  -4   2  -1  128.34    7.69
   4   2   1  130.93    6.90
   4   2   1  127.17    6.61
   5  -2   1  168.24    8.54
  -5  -2  -1  157.25    9.25
  -5  -2  -1  162.65    8.01
   5  -2   1  176.49    8.29
   5   2   1  160.91    7.71
   5   2   1  146.35    8.44
   5   2   1  160.96    8.16
  -5   2  -1  169.96    9.38
  -6  -2  -1   85.66    5.07
   6  -2   1   88.93    5.36
  -6  -2  -1   88.86    5.72
   6  -2   1   92.76    5.26
  -6  -2  -1   77.27    4.83
  -6   2  -1   96.74    6.05
   6   2   1   80.82    5.08
   6   2   1   77.58    4.76
  -7  -2  -1   98.52    6.50
   7  -2   1   93.70    6.12
   7  -2   1  113.39    6.23
   7   2   1   94.65    6.05
  -7   2  -1  106.71    6.90
   8  -2   1   37.28    4.33
  -8  -2  -1   40.29    4.00
   8  -2   1   53.50    4.15
  -8   2  -1   37.56    3.87
   8   2   1   38.56    3.97
   9  -2   1   34.54    3.88
   9  -2   1   37.12    4.55
  -9  -2  -1   36.40    3.77
  -9   2  -1   36.47    4.44
   9   2   1   36.54    4.08
  10  -2   1   22.93    3.45
  10  -2   1   23.49    3.90
 -10  -2  -1   23.94    3.37
  10   2   1   23.96    3.60
 -10   2  -1   22.57    3.69
  11  -2   1   18.54    3.91
 -11   2  -1   16.24    3.30
  11   2   1   17.91    3.45
  12  -3  -1   15.26    4.13
  12   3  -1   15.65    3.51
 -12   3   1   13.35    3.49
 -11  -3   1   14.74    3.01
  11  -3  -1   17.41    3.96
  11   3  -1   11.62    2.95
 -11   3   1   16.00    3.57
  10  -3  -1   38.27    4.94
 -10  -3   1   34.89    4.33
 -10   3   1   36.32    4.75
  10   3  -1   22.66    3.53
  -9  -3   1   37.72    4.43
   9  -3  -1   35.87    4.29
   9  -3  -1   34.84    4.02
   9   3  -1   28.23    3.56
  -9   3   1   44.02    4.97
   8  -3  -1   67.72    4.85
  -8  -3   1   75.70    5.52
  -8  -3   1   61.55    4.47
   8  -3  -1   58.82    4.75
   8   3  -1   57.34    4.57
  -8   3   1   80.74    5.93
   7  -3  -1   35.53    3.38
   7  -3  -1   34.94    3.19
  -7  -3   1   34.98    3.02
  -7  -3   1   41.24    3.94
  -7   3   1   44.17    4.23
   7   3  -1   35.90    3.16
  -6  -3   1   43.86    4.02
   6  -3  -1   43.62    3.13
   6  -3  -1   45.04    3.22
  -6  -3   1   38.00    2.98
  -6   3   1   43.24    3.81
   6   3  -1   37.64    2.85
   5  -3  -1   51.57    3.51
  -5  -3   1   51.14    3.30
   5  -3  -1   58.68    3.39
  -5  -3   1   57.55    4.50
   5   3  -1   52.09    3.32
  -5   3   1   50.37    4.10
   4  -3  -1   26.71    1.65
  -4  -3   1   24.60    3.18
   4  -3  -1   30.79    2.01
   4  -3  -1   25.14    2.07
  -4  -3   1   26.81    1.98
  -4   3   1   26.50    1.78
   4   3  -1   25.66    1.91
  -4   3   1   27.40    2.80
   3  -3  -1   17.68    1.56
  -3  -3   1   19.33    1.63
   3  -3  -1   18.30    1.48
  -3  -3   1   20.10    2.75
  -3  -3   1   17.91    1.43
   3  -3  -1   18.67    1.44
  -3   3   1   23.88    2.59
  -3   3   1   19.58    1.40
   3   3  -1   18.63    1.54
  -2  -3   1   54.78    2.72
   2  -3  -1   56.73    3.22
   2  -3  -1   53.96    2.99
  -2  -3   1   50.16    3.00
  -2  -3   1   46.90    3.85
   2  -3  -1   53.25    2.77
  -2  -3   1   51.38    2.69
  -2   3   1   51.68    2.66
  -2   3   1   52.86    3.49
   2   3  -1   52.62    2.86
   2   3  -1   49.62    2.67
  -1  -3   1    6.18    0.71
  -1  -3   1    6.88    0.90
   1  -3  -1    4.78    0.73
  -1  -3   1    6.56    0.73
  -1  -3   1    4.31    1.44
   1  -3  -1    4.28    0.79
   1   3  -1    5.50    0.81
  -1   3   1    8.10    0.87
  -1   3   1    5.91    1.06
   0  -3   1   10.65    1.01
   0  -3   1   10.21    0.82
   0  -3  -1   14.97    1.93
   0  -3   1   10.76    0.83
   0  -3  -1    9.66    1.06
   0  -3  -1   10.63    0.96
   0   3  -1    9.81    1.32
   0   3   1   10.86    0.96
   0   3   1   10.51    1.05
  -1  -3  -1   33.26    2.00
   1  -3   1   31.71    2.22
  -1  -3  -1   38.43    2.95
   1  -3   1   33.16    2.18
  -1  -3  -1   35.57    2.10
   1  -3   1   35.75    1.86
   1  -3   1   36.94    1.85
   1   3   1   36.55    1.99
   1   3   1   34.81    1.97
   1   3   1   32.51    2.04
  -1   3  -1   29.86    2.59
   2  -3   1    2.44    0.45
   2  -3   1    2.50    0.57
  -2  -3  -1    1.92    1.32
  -2  -3  -1    3.14    0.73
   2  -3   1    2.18    0.74
  -2  -3  -1    2.43    0.72
   2  -3   1    1.90    0.58
   2   3   1    2.35    0.48
   2   3   1    2.13    0.59
   2   3   1    2.33    0.69
  -2   3  -1    2.14    1.26
   3  -3   1    0.94    0.69
   3  -3   1    0.46    0.56
  -3  -3  -1    1.37    1.27
  -3  -3  -1    0.63    0.64
   3  -3   1    0.70    0.50
   3   3   1    0.45    0.39
   3   3   1    0.39    0.59
   3   3   1    0.55    0.56
  -3   3  -1    1.29    1.25
   4  -3   1    3.41    0.98
   4  -3   1    4.48    1.08
  -4  -3  -1    6.12    1.76
  -4  -3  -1    5.38    1.03
   4   3   1    6.65    1.15
  -4   3  -1    6.72    1.80
   4   3   1    5.58    1.08
   4   3   1    5.64    0.81
  -5  -3  -1    1.17    0.80
   5  -3   1   -0.31    0.89
  -5  -3  -1    0.78    1.13
   5  -3   1    1.44    0.99
   5   3   1    0.71    0.85
  -5   3  -1   -0.87    1.30
   5   3   1    0.62    0.96
  -6  -3  -1   -0.49    1.41
  -6  -3  -1    0.50    1.04
   6  -3   1   -0.51    1.09
   6  -3   1   -0.15    1.09
  -6   3  -1    0.29    1.49
   6   3   1   -0.46    0.93
   7  -3   1   -0.78    1.21
  -7  -3  -1    0.74    1.56
   7  -3   1   -0.41    1.44
  -7  -3  -1    0.89    1.25
  -7   3  -1   -0.17    1.64
   7   3   1    0.53    1.20
   8  -3   1   -0.61    1.51
   8  -3   1    3.49    1.90
  -8  -3  -1    2.93    1.90
   8   3   1   -0.43    1.46
  -8   3  -1    2.13    2.04
  -9  -3  -1    2.89    1.89
   9  -3   1    3.59    2.08
   9  -3   1    2.07    2.05
  -9   3  -1    4.04    2.32
   9   3   1    2.95    1.89
  10  -3   1   19.71    3.31
  10  -3   1   10.54    3.09
 -10  -3  -1   12.79    2.70
  10   3   1   13.49    2.98
 -10   3  -1   15.79    3.42
  11  -3   1   11.06    3.44
 -11   3  -1    7.04    2.97
  11   3   1    9.97    2.91
 -11  -4   1    9.04    2.71
  11  -4  -1    1.24    2.64
  11   4  -1    4.26    2.46
 -11   4   1    1.59    2.75
  10  -4  -1   13.53    3.41
 -10  -4   1   17.41    3.38
  10   4  -1   14.92    2.90
 -10   4   1   16.84    3.84
  -9  -4   1   20.35    3.07
   9  -4  -1   18.89    3.14
   9  -4  -1   19.59    3.21
  -9  -4   1   19.42    3.45
   9   4  -1   14.15    2.61
  -9   4   1   17.75    3.67
   8  -4  -1   41.47    3.98
  -8  -4   1   44.21    4.44
   8  -4  -1   40.98    4.07
  -8  -4   1   34.78    3.65
  -8   4   1   46.26    5.33
   8   4  -1   33.00    3.58
   7  -4  -1   24.54    2.94
  -7  -4   1   32.53    4.15
  -7  -4   1   25.45    2.90
   7  -4  -1   28.87    3.29
   7   4  -1   29.73    2.87
  -7   4   1   31.88    4.28
  -6  -4   1   27.31    2.73
   6  -4  -1   30.07    2.60
  -6  -4   1   27.29    3.83
   6  -4  -1   21.91    2.59
   6   4  -1   23.04    2.17
  -6   4   1   29.19    3.90
   5  -4  -1   32.79    2.53
  -5  -4   1   32.69    2.54
  -5  -4   1   34.99    4.16
   5  -4  -1   35.07    2.75
   5   4  -1   33.95    2.64
  -5   4   1   38.80    3.83
   4  -4  -1  103.07    5.31
  -4  -4   1  107.93    7.12
   4  -4  -1  105.68    5.68
  -4  -4   1  103.44    5.30
  -4   4   1  108.23    6.86
   4   4  -1  101.14    5.49
   3  -4  -1  123.72    6.06
  -3  -4   1  113.52    5.59
  -3  -4   1  116.02    6.10
  -3  -4   1  115.65    7.46
   3  -4  -1  111.97    6.31
   3  -4  -1  115.65    5.63
   3   4  -1  118.60    6.09
  -3   4   1  120.01    7.24
   2  -4  -1  168.82    9.61
  -2  -4   1  193.85    8.22
  -2  -4   1  184.48    8.19
   2  -4  -1  189.17    8.86
  -2  -4   1  162.33   10.22
  -2  -4   1  175.67    8.88
   2  -4  -1  187.65    8.29
   2   4  -1  170.86    8.98
  -2   4   1  181.15    9.80
   2   4  -1  183.04    8.62
  -1  -4   1  218.44    8.94
   1  -4  -1  201.37    9.61
  -1  -4   1  192.94    9.65
  -1  -4   1  203.41    8.89
  -1  -4   1  179.52   10.88
   1  -4  -1  199.67    9.00
  -1   4   1  201.59   10.57
   1   4  -1  195.89   10.25
   0  -4  -1   69.58    4.63
   0  -4  -1   68.13    3.74
   0  -4   1   71.40    3.87
   0  -4   1   63.86    3.34
   0  -4   1   72.17    3.40
   0  -4  -1   69.29    3.53
   0   4   1   71.11    3.48
   0   4   1   65.49    3.97
   0   4  -1   69.17    4.15
   1  -4   1  108.53    4.97
  -1  -4  -1  105.01    5.12
   1  -4   1  113.80    5.60
   1  -4   1  104.40    4.96
   1  -4   1  106.19    5.88
  -1  -4  -1  104.86    6.54
  -1  -4  -1  103.47    5.43
   1   4   1  110.10    5.12
  -1   4  -1  106.10    6.34
   1   4   1  104.19    5.72
   2  -4   1   81.16    3.97
  -2  -4  -1   86.19    4.19
   2  -4   1   80.20    4.33
  -2  -4  -1   75.53    5.41
   2  -4   1   77.13    3.97
   2  -4   1   83.38    4.50
  -2  -4  -1   82.82    4.37
   2   4   1   81.86    4.09
   2   4   1   82.73    4.20
   2   4   1   76.13    4.26
  -2   4  -1   76.44    5.18
  -3  -4  -1  112.58    5.53
   3  -4   1  116.53    5.39
  -3  -4  -1  103.71    6.86
   3  -4   1  107.06    5.86
   3   4   1  119.04    5.77
   3   4   1  106.21    5.78
  -3   4  -1  110.74    7.16
   4  -4   1  103.64    5.04
  -4  -4  -1  100.03    5.17
  -4  -4  -1   84.87    6.33
   4  -4   1   96.29    5.41
   4   4   1   95.37    5.24
  -4   4  -1   99.81    6.76
  -5  -4  -1  122.81    6.26
   5  -4   1  109.41    6.43
   5  -4   1  123.12    6.22
  -5  -4  -1  118.22    7.57
  -5   4  -1  122.81    7.85
   5   4   1  111.60    6.25
  -6  -4  -1   68.02    4.32
   6  -4   1   70.67    4.59
   6  -4   1   73.38    4.51
  -6  -4  -1   55.87    5.11
  -6   4  -1   71.24    5.72
   6   4   1   64.41    4.30
   7  -4   1   82.39    5.31
  -7  -4  -1   70.13    5.69
  -7  -4  -1   68.54    4.73
   7  -4   1   75.14    5.00
   7   4   1   64.21    4.64
  -7   4  -1   81.90    6.21
  -8  -4  -1   35.41    4.28
   8  -4   1   36.39    4.05
   8  -4   1   33.67    4.09
   8   4   1   28.91    3.29
  -8   4  -1   24.11    4.01
  -9  -4  -1   25.73    3.80
   9  -4   1   30.22    4.00
   9  -4   1   22.85    3.75
  -9   4  -1   28.30    4.24
   9   4   1   18.51    2.99
 -10  -4  -1   19.97    3.58
  10  -4   1   20.46    3.91
  10  -4   1   17.33    3.40
 -10   4  -1   20.83    4.03
  10   4   1   14.13    3.15
 -10  -5   1   24.00    3.98
  10  -5  -1    9.91    3.16
  10  -5  -1   19.08    3.94
  10   5  -1   14.52    2.99
 -10   5   1   21.59    4.39
   9  -5  -1   27.30    4.10
   9  -5  -1   30.48    3.89
  -9  -5   1   32.80    4.61
  -9  -5   1   27.82    3.59
  -9   5   1   34.73    4.83
   9   5  -1   25.02    3.38
  -8  -5   1   38.63    3.92
   8  -5  -1   45.75    4.02
  -8  -5   1   37.47    4.89
   8  -5  -1   41.99    4.48
  -8   5   1   49.18    5.91
   8   5  -1   38.71    3.68
  -7  -5   1   16.78    3.53
   7  -5  -1   25.93    3.07
  -7  -5   1   23.64    2.89
   7  -5  -1   23.29    2.84
  -7   5   1   24.70    4.24
   7   5  -1   20.00    2.60
   6  -5  -1   43.74    3.43
  -6  -5   1   37.26    3.21
   6  -5  -1   37.86    3.10
  -6  -5   1   39.53    4.76
  -6   5   1   42.15    4.98
   6   5  -1   34.36    2.83
   5  -5  -1   19.31    2.15
   5  -5  -1   22.38    2.44
  -5  -5   1   19.49    3.41
  -5  -5   1   17.34    2.17
  -5   5   1   20.98    3.47
   5   5  -1   19.18    2.19
   4  -5  -1   24.21    2.08
  -4  -5   1   21.87    2.23
   4  -5  -1   23.72    2.26
  -4  -5   1   28.07    3.96
  -4   5   1   27.96    3.53
   4   5  -1   21.70    2.04
   3  -5  -1   16.97    1.92
  -3  -5   1   19.67    3.17
   3  -5  -1   16.38    1.72
  -3  -5   1   15.84    1.95
  -3  -5   1   18.93    1.86
   3   5  -1   15.63    1.76
  -3   5   1   15.21    2.40
  -2  -5   1   16.12    1.60
   2  -5  -1   15.75    1.60
  -2  -5   1   13.11    1.65
   2  -5  -1   14.97    2.22
   2  -5  -1   15.30    1.76
  -2  -5   1   12.07    2.62
   2   5  -1   13.33    1.52
  -2   5   1   15.92    2.16
   1  -5  -1   18.07    1.51
  -1  -5   1   16.00    1.81
  -1  -5   1   16.85    1.44
  -1  -5   1   16.00    2.63
   1  -5  -1   17.07    1.82
   1  -5  -1   17.10    2.65
  -1   5   1   17.87    1.81
   1   5  -1   14.68    1.42
   0  -5   1    4.35    1.05
   0  -5  -1    3.36    1.83
   0  -5   1    1.46    0.67
   0  -5  -1    5.23    1.05
   0  -5   1    5.46    0.86
   0  -5  -1    4.02    0.90
   0   5  -1    5.13    1.13
   0   5   1    4.97    1.05
  -1  -5  -1   10.30    1.34
  -1  -5  -1    7.15    2.19
   1  -5   1   10.52    1.19
   1  -5   1   11.66    1.54
   1  -5   1   11.14    1.70
  -1  -5  -1   12.56    1.50
   1   5   1   11.61    1.37
   1   5   1   11.34    1.19
  -1   5  -1   11.46    1.98
  -2  -5  -1    0.50    0.77
  -2  -5  -1    0.22    0.69
   2  -5   1    1.27    0.65
   2  -5   1   -0.22    0.71
  -2  -5  -1   -1.14    1.51
  -2   5  -1    2.35    1.43
   2   5   1    1.24    0.69
   3  -5   1    1.19    0.77
  -3  -5  -1    0.40    0.77
  -3  -5  -1    1.32    0.86
   3  -5   1    0.28    0.86
  -3  -5  -1    0.88    1.72
   3   5   1    1.68    0.80
  -3   5  -1    2.75    1.74
  -4  -5  -1    0.34    1.41
   4  -5   1    0.58    0.80
   4  -5   1    1.89    0.93
  -4  -5  -1    1.51    1.04
   4   5   1    1.44    0.93
  -4   5  -1    0.90    1.80
  -5  -5  -1   -1.18    1.50
   5  -5   1    0.56    0.82
  -5  -5  -1    1.72    1.21
   5  -5   1    0.77    1.01
  -5   5  -1    2.28    2.18
   5   5   1   -0.11    0.90
   6  -5   1    0.11    1.22
   6  -5   1    1.53    1.33
  -6  -5  -1   -1.50    1.67
  -6  -5  -1   -0.51    1.13
   6   5   1    0.31    1.00
  -6   5  -1   -1.37    1.87
  -7  -5  -1    0.42    1.86
   7  -5   1   -0.47    1.34
   7  -5   1    1.46    1.49
  -7   5  -1   -1.75    2.11
   7   5   1    0.98    1.31
   8  -5   1    2.51    1.82
   8  -5   1    5.20    2.15
  -8  -5  -1    3.37    2.23
   8   5   1    1.52    1.62
  -8   5  -1    3.84    2.74
   9  -5   1    0.31    2.20
   9  -5   1    4.75    2.45
  -9  -5  -1    5.73    2.61
   9   5   1    1.05    1.73
  -9   5  -1    3.68    2.34
 -10  -5  -1    7.54    2.69
  10  -5   1    8.44    3.15
  10  -5   1    7.87    2.96
  10   5   1    9.53    2.87
 -10   5  -1   11.24    3.23
  -9  -6   1   15.42    3.56
   9  -6  -1   14.48    3.09
   9  -6  -1    7.89    2.59
   9   6  -1   13.50    2.65
  -9   6   1   11.66    3.87
   8  -6  -1   32.01    4.00
  -8  -6   1   26.14    4.42
   8  -6  -1   26.54    3.56
  -8  -6   1   31.20    3.61
  -8   6   1   32.19    5.32
   8   6  -1   30.39    3.54
   7  -6  -1    9.62    2.32
  -7  -6   1    8.57    2.09
   7  -6  -1   13.82    2.35
  -7  -6   1   17.13    3.58
  -7   6   1   14.69    3.44
   7   6  -1   11.74    2.02
  -6  -6   1   16.14    2.38
  -6  -6   1   14.66    3.44
   6  -6  -1   20.84    2.80
   6  -6  -1   19.92    2.45
  -6   6   1   17.93    3.86
   6   6  -1   13.83    2.17
  -5  -6   1   21.23    3.97
   5  -6  -1   28.17    3.01
  -5  -6   1   31.21    2.98
   5  -6  -1   26.76    2.70
   5   6  -1   20.39    2.50
  -5   6   1   33.26    4.36
  -4  -6   1   39.98    3.27
   4  -6  -1   49.70    3.14
  -4  -6   1   45.11    3.08
  -4  -6   1   40.23    5.16
   4  -6  -1   40.68    3.15
  -4   6   1   47.43    4.36
   4   6  -1   39.22    3.02
   3  -6  -1   82.60    5.03
  -3  -6   1   78.07    6.57
  -3  -6   1   83.58    5.06
  -3  -6   1   87.00    4.61
   3  -6  -1   85.69    4.64
  -3   6   1   86.33    5.99
   3   6  -1   86.68    4.96
   2  -6  -1   94.33    4.82
  -2  -6   1   85.52    5.18
  -2  -6   1   87.34    4.68
  -2  -6   1   89.81    6.75
   2  -6  -1   88.47    5.17
  -2   6   1   90.46    5.68
   2   6  -1   83.20    4.87
  -1  -6   1   96.64    6.89
  -1  -6   1   93.87    5.51
   1  -6  -1  100.12    5.08
   1  -6  -1   95.15    6.61
  -1  -6   1   96.75    4.91
   1  -6  -1   97.06    5.46
  -1   6   1   92.44    5.66
   0  -6  -1   60.38    3.76
   0  -6  -1   54.22    5.12
   0  -6   1   67.55    3.45
   0  -6   1   50.14    4.43
   0  -6   1   64.23    3.90
   0  -6  -1   63.70    3.56
   0   6  -1   59.98    4.10
   0   6   1   64.13    3.96
  -1  -6  -1   44.17    3.05
   1  -6   1   43.17    2.64
   1  -6   1   42.91    3.16
  -1  -6  -1   39.86    2.78
  -1  -6  -1   46.50    5.02
   1   6   1   46.25    3.00
  -1   6  -1   46.12    3.64
  -2  -6  -1   53.45    3.41
  -2  -6  -1   52.71    5.01
   2  -6   1   59.52    3.32
   2  -6   1   57.18    3.81
  -2  -6  -1   54.32    3.65
  -2   6  -1   52.49    4.39
   2   6   1   56.20    3.44
   3  -6   1   71.29    4.63
  -3  -6  -1   81.23    4.39
   3  -6   1   76.86    4.13
  -3  -6  -1   69.01    4.47
  -3  -6  -1   64.06    5.81
  -3   6  -1   73.56    5.76
   3   6   1   73.25    4.34
  -4  -6  -1   38.50    4.92
   4  -6   1   47.11    3.61
  -4  -6  -1   50.51    3.46
   4  -6   1   48.78    3.20
  -4   6  -1   49.10    4.96
   4   6   1   45.66    3.27
  -5  -6  -1   92.83    5.29
   5  -6   1   84.31    4.95
  -5  -6  -1   80.81    6.69
   5  -6   1   88.58    5.57
  -5   6  -1   77.19    6.51
   5   6   1   82.94    5.00
  -6  -6  -1   38.07    3.45
   6  -6   1   45.15    3.39
   6  -6   1   39.45    3.66
  -6  -6  -1   37.70    4.91
   6   6   1   39.71    3.34
  -6   6  -1   43.15    5.75
   7  -6   1   43.37    3.74
   7  -6   1   39.93    3.72
  -7  -6  -1   37.87    4.82
  -7   6  -1   41.95    5.84
   7   6   1   40.54    3.59
  -8  -6  -1   27.06    4.21
   8  -6   1   25.12    3.73
   8  -6   1   26.75    3.54
  -8   6  -1   35.59    5.54
   8   6   1   26.54    3.48
   9  -6   1   14.03    3.23
   9  -6   1   18.96    3.68
  -9  -6  -1   14.48    3.39
  -9   6  -1   11.96    3.82
   9   6   1   11.19    2.75
  -8  -7   1   32.77    5.01
   8  -7  -1   28.40    3.94
  -8  -7   1   25.30    3.62
   8  -7  -1   25.82    3.50
  -8   7   1   26.49    5.19
   8   7  -1   21.40    3.08
  -7  -7   1   11.47    3.36
   7  -7  -1   15.95    2.96
   7  -7  -1   15.11    2.63
  -7  -7   1   13.71    2.59
   7   7  -1   10.75    2.21
  -7   7   1   14.77    3.71
   6  -7  -1   22.45    3.07
  -6  -7   1   26.80    3.14
  -6  -7   1   21.02    4.26
   6  -7  -1   20.53    2.71
  -6   7   1   19.94    4.26
   6   7  -1   20.31    2.74
  -5  -7   1   16.12    2.36
   5  -7  -1   10.02    1.94
  -5  -7   1   17.01    3.73
   5  -7  -1   12.45    2.32
  -5   7   1   11.65    3.23
   5   7  -1    9.81    1.76
  -4  -7   1   12.06    2.09
  -4  -7   1   12.60    1.97
  -4  -7   1   11.90    3.39
   4  -7  -1    9.98    1.82
   4  -7  -1   14.36    2.27
  -4   7   1   13.62    2.98
   4   7  -1   12.18    1.93
   3  -7  -1    9.43    1.63
  -3  -7   1   10.39    3.09
  -3  -7   1   11.17    1.77
   3  -7  -1   10.06    1.93
  -3  -7   1    8.62    1.84
   3   7  -1    9.17    1.69
  -3   7   1    6.99    2.35
  -2  -7   1    8.03    1.52
   2  -7  -1    8.48    1.58
   2  -7  -1   10.72    1.89
  -2  -7   1    8.83    2.87
  -2  -7   1    9.98    1.81
  -2   7   1   12.19    2.23
   2   7  -1    8.20    1.57
  -1  -7   1    9.83    2.71
  -1  -7   1   11.38    1.93
  -1  -7   1    9.91    1.57
   1  -7  -1   11.07    1.86
   1  -7  -1    5.39    1.36
   1   7  -1    9.04    1.59
   0  -7  -1    2.61    1.15
   0  -7   1    1.86    1.01
   0  -7   1    4.71    1.45
   0  -7  -1    3.56    2.34
   0  -7  -1    3.05    1.19
   1  -7   1    4.38    1.11
  -1  -7  -1    6.73    2.59
   1  -7   1    4.36    1.44
  -1  -7  -1    4.19    1.37
  -1  -7  -1    4.70    1.29
   1   7   1    5.76    1.32
  -2  -7  -1    1.70    1.13
  -2  -7  -1    1.63    2.13
   2  -7   1    1.03    0.89
  -2  -7  -1    0.36    0.98
   2  -7   1    1.27    0.96
   2   7   1    1.23    0.94
  -2   7  -1    0.97    1.78
  -3  -7  -1    1.53    1.24
  -3  -7  -1    1.57    1.12
  -3  -7  -1   -2.38    2.16
   3  -7   1    0.43    1.17
   3  -7   1    1.14    0.95
  -3   7  -1    0.40    1.77
   3   7   1    1.58    1.03
  -4  -7  -1    0.66    2.16
   4  -7   1    0.02    1.34
  -4  -7  -1   -0.70    1.16
   4  -7   1   -0.06    0.98
  -4   7  -1   -0.91    2.29
   4   7   1    1.19    1.24
  -5  -7  -1    0.08    1.40
   5  -7   1   -0.91    1.30
  -5  -7  -1    1.41    2.27
   5  -7   1    0.91    1.27
  -5   7  -1   -1.86    2.39
   5   7   1   -0.39    1.13
  -6  -7  -1    4.86    2.64
   6  -7   1   -0.81    1.36
   6  -7   1   -0.64    1.42
  -6  -7  -1   -0.10    1.61
   6   7   1   -0.02    1.20
  -6   7  -1   -0.83    2.81
  -7  -7  -1    1.01    2.25
   7  -7   1    2.63    1.98
   7  -7   1    0.77    1.56
   7   7   1    1.91    1.67
  -7   7  -1   -1.51    2.88
   8  -7   1    0.30    2.01
  -8  -7  -1    1.62    2.46
   8  -7   1   -1.17    1.68
   8   7   1    1.25    1.86
  -8   7  -1   -2.66    3.04
   6  -8  -1   10.53    2.48
   6  -8  -1    8.99    2.17
  -6  -8   1   14.47    3.73
  -6  -8   1    5.20    1.87
   6   8  -1    8.48    2.05
  -6   8   1    7.45    3.49
  -5  -8   1   14.87    2.47
  -5  -8   1   15.77    3.92
   5  -8  -1   15.82    2.77
   5  -8  -1   20.21    2.67
   5   8  -1   14.28    2.34
  -5   8   1   17.54    3.89
  -4  -8   1   29.94    3.21
   4  -8  -1   32.94    3.62
   4  -8  -1   27.60    3.00
  -4  -8   1   27.09    4.87
   4   8  -1   27.78    3.12
  -4   8   1   30.39    4.29
  -3  -8   1   37.97    5.51
   3  -8  -1   42.21    3.73
   3  -8  -1   50.42    3.43
  -3  -8   1   43.16    3.40
  -3  -8   1   39.54    3.63
   3   8  -1   36.11    3.20
  -3   8   1   39.37    4.01
  -2  -8   1   48.97    3.56
  -2  -8   1   64.11    6.06
   2  -8  -1   52.97    4.11
   2  -8  -1   54.84    3.72
  -2  -8   1   54.38    4.17
   2   8  -1   53.13    3.89
  -1  -8   1   54.52    3.70
   1  -8  -1   56.93    4.17
  -1  -8   1   52.07    4.15
   1  -8  -1   57.82    3.78
   1   8  -1   53.50    3.87
   0  -8   1   28.53    3.30
   0  -8  -1   25.99    3.00
   0  -8   1   29.26    2.60
   0  -8  -1   34.47    3.15
   0   8   1   30.89    2.79
  -1  -8  -1   30.27    3.03
   1  -8   1   30.53    2.53
  -1  -8  -1   29.34    4.55
  -1  -8  -1   25.14    2.98
   1  -8   1   34.33    3.24
   1   8   1   31.23    2.79
   2  -8   1   30.22    2.62
   2  -8   1   29.39    3.41
  -2  -8  -1   29.58    4.76
  -2  -8  -1   27.08    3.06
  -2  -8  -1   28.12    2.96
   2   8   1   33.32    2.92
   3  -8   1   41.13    3.73
  -3  -8  -1   32.75    4.94
   3  -8   1   36.92    3.03
  -3  -8  -1   35.92    3.33
  -3  -8  -1   40.65    3.32
   3   8   1   38.33    3.32
  -4  -8  -1   26.55    4.55
   4  -8   1   35.00    2.90
  -4  -8  -1   32.96    3.50
   4  -8   1   33.93    3.80
   4   8   1   35.82    3.16
  -4   8  -1   33.01    4.93
  -5  -8  -1   42.77    4.18
  -5  -8  -1   41.13    5.51
   5  -8   1   39.32    3.46
   5  -8   1   45.63    4.17
   5   8   1   38.87    3.43
  -5   8  -1   30.30    5.14
   6  -8   1   24.03    3.05
   6  -8   1   25.22    3.62
  -6  -8  -1   30.79    4.85
  -6   8  -1   25.09    5.07
   6   8   1   16.30    2.58
  -4  -9   1    5.64    2.09
   4  -9  -1    9.01    2.32
  -4  -9   1    9.07    3.22
   4  -9  -1    5.89    1.91
   4   9  -1    5.59    1.85
  -3  -9   1    3.13    1.77
  -3  -9   1    8.82    2.35
   3  -9  -1    5.25    1.95
   3  -9  -1    3.59    1.71
   3   9  -1    5.18    1.72
  -2  -9   1    5.60    1.95
   2  -9  -1    4.63    1.89
   2  -9  -1    7.05    1.84
  -2  -9   1    6.92    1.91
   2   9  -1    9.06    2.01
   1  -9  -1    1.41    1.53
  -1  -9   1    3.53    1.75
  -1  -9   1    0.61    1.33
   1  -9  -1    3.20    1.67
   1   9  -1    2.88    1.51
   0  -9  -1    4.13    1.67
   0  -9   1    2.66    1.41
   0  -9   1    1.87    1.59
   0  -9  -1    1.26    1.48
   0   9   1    1.39    1.33
   0   9  -1    0.64    1.33
  -1  -9  -1    3.50    1.81
   1  -9   1    2.64    1.33
  -1  -9  -1    5.10    1.77
   1  -9   1    2.49    1.72
   1   9   1    3.52    1.61
   2  -9   1   -0.48    1.09
  -2  -9  -1   -1.51    1.24
   2  -9   1   -0.64    1.48
  -2  -9  -1    1.23    1.42
   2   9   1    0.65    1.25
   3  -9   1   -0.37    1.28
  -3  -9  -1    4.30    2.49
  -3  -9  -1   -0.45    1.47
  -3  -9  -1    2.67    1.54
   3  -9   1    0.01    1.56
   3   9   1   -0.11    1.18
  12   0  -2    0.28    2.64
  11   0  -2   15.34    3.50
  10   0  -2    1.77    2.19
  -9   0   2    7.37    1.98
   9   0  -2    2.76    2.13
  -9   0   2    4.93    1.70
  -8   0   2   16.70    2.64
  -8   0   2   17.27    2.70
  -8   0   2   20.06    2.85
   8   0  -2   17.43    2.94
  -7   0   2    2.52    1.44
   7   0  -2    2.29    1.28
   7   0  -2    3.26    1.69
  -7   0   2    4.97    1.45
  -7   0   2    3.72    1.45
  -6   0   2   67.01    4.61
  -6   0   2   66.21    4.47
   6   0  -2   77.43    4.69
   6   0  -2   62.68    4.03
  -6   0   2   67.39    4.25
  -5   0   2  145.33    7.17
   5   0  -2  140.85    6.98
   5   0  -2  142.92    7.64
  -5   0   2  140.89    8.04
  -5   0   2  145.56    7.86
  -4   0   2   96.38    5.39
   4   0  -2   92.92    4.63
   4   0  -2   86.10    5.12
  -4   0   2   93.32    4.84
  -4   0   2   96.33    5.32
  -3   0   2  247.00   11.65
  -3   0   2  230.15   11.84
   3   0  -2  206.70   10.92
  -3   0   2  244.64   10.32
   3   0  -2  225.70   10.11
   2   0  -2   47.93    2.78
  -2   0   2   54.07    2.96
  -2   0   2   53.94    2.95
  -1   0   2  124.51    5.60
   1   0  -2  145.75    6.03
  -1   0   2  128.32    5.63
  -1   0   2  122.93    6.52
  -1   0   2  129.68    6.70
   0   0   2   78.38    3.42
   0   0  -2   79.99    4.01
   0   0   2   78.55    3.44
   0   0   2   76.28    4.16
   0   0   2   77.11    3.55
   1   0   2   70.85    3.30
   1   0   2   68.68    3.44
   1   0   2   75.67    3.40
  -1   0  -2   74.68    3.80
   1   0   2   75.39    4.04
   2   0   2  277.80   14.18
   2   0   2  273.55   12.00
  -2   0  -2  278.76   13.63
   3   0   2  158.21    8.00
   3   0   2  169.10    8.89
   3   0   2  168.85    7.58
  -3   0  -2  152.06    7.59
  -3   0  -2  174.80    8.47
  -4   0  -2  159.48    7.96
   4   0   2  152.87    8.38
  -4   0  -2  147.49    7.22
   4   0   2  145.03    7.63
   4   0   2  145.74    7.17
   5   0   2  191.00    9.79
  -5   0  -2  199.55    9.21
  -5   0  -2  199.62   10.09
   5   0   2  185.72    9.14
   5   0   2  182.92   10.54
   6   0   2   84.27    5.00
  -6   0  -2   84.10    5.14
   6   0   2   87.15    5.44
  -6   0  -2   88.80    5.54
  -7   0  -2   53.47    4.22
   7   0   2   58.09    4.45
   7   0   2   57.18    4.04
  -7   0  -2   55.12    3.95
   8   0   2   50.12    4.04
  -8   0  -2   53.83    4.23
   8   0   2   54.66    4.62
  -9   0  -2   35.93    3.61
   9   0   2   42.88    3.85
   9   0   2   43.19    4.59
  10   0   2   47.50    5.19
  11   0   2   35.12    4.70
  12  -1  -2   49.16    5.86
  12   1  -2   38.84    4.98
  11  -1  -2   52.15    5.79
 -11   1   2   46.68    4.60
  11   1  -2   49.00    5.37
 -10  -1   2   50.95    4.44
  10  -1  -2   57.61    5.36
 -10   1   2   55.22    4.90
  10   1  -2   56.61    5.03
   9  -1  -2   99.16    6.95
  -9  -1   2   99.15    6.73
  -9  -1   2   99.78    6.34
   9   1  -2   87.66    6.33
  -9   1   2  102.63    6.94
   8  -1  -2   35.14    3.15
   8  -1  -2   34.78    4.05
  -8  -1   2   43.09    3.86
  -8  -1   2   35.24    3.27
  -8  -1   2   42.31    3.58
   8   1  -2   33.79    3.71
  -8   1   2   40.72    3.83
   7  -1  -2   59.80    4.32
  -7  -1   2   52.21    3.98
   7  -1  -2   60.94    3.91
  -7  -1   2   57.62    4.43
  -7  -1   2   61.99    3.97
  -7   1   2   58.09    4.63
   7   1  -2   55.93    4.11
  -7   1   2   61.47    3.82
  -7   1   2   45.54    3.62
  -6  -1   2   67.90    4.54
   6  -1  -2   61.35    4.34
   6  -1  -2   62.29    3.86
  -6  -1   2   61.43    3.96
  -6  -1   2   58.04    4.00
  -6   1   2   57.50    4.29
   6   1  -2   55.64    3.87
   6   1  -2   57.38    3.65
  -6   1   2   57.58    3.62
  -6   1   2   56.96    3.60
   5  -1  -2   64.16    4.25
  -5  -1   2   71.66    4.73
   5  -1  -2   73.49    3.98
  -5  -1   2   73.22    4.26
  -5  -1   2   73.05    4.16
   5   1  -2   65.06    4.09
  -5   1   2   75.76    4.11
   5   1  -2   69.77    3.96
  -5   1   2   70.56    4.72
  -5   1   2   68.55    3.89
  -4  -1   2   70.25    3.90
   4  -1  -2   76.58    3.72
  -4  -1   2   62.51    4.42
  -4  -1   2   72.81    3.97
   4  -1  -2   68.07    4.00
  -4   1   2   75.00    3.74
   4   1  -2   69.54    3.76
  -4   1   2   69.68    4.48
  -4   1   2   70.44    3.92
   4   1  -2   69.10    3.99
  -3  -1   2  212.56   10.52
   3  -1  -2  245.67   11.19
   3  -1  -2  251.64   10.44
  -3  -1   2  240.69   11.95
  -3  -1   2  233.83   12.19
   3   1  -2  252.73   11.29
  -3   1   2  240.46   11.87
  -3   1   2  226.07   12.46
  -3   1   2  241.19   10.56
   2  -1  -2  141.91    6.47
   2  -1  -2  135.14    6.84
   2  -1  -2  140.80    6.10
  -2  -1   2  129.98    6.13
  -2  -1   2  126.31    6.04
  -2  -1   2  139.83    7.20
  -2  -1   2  144.79    6.99
  -2   1   2  132.91    7.37
   2   1  -2  144.81    6.62
  -2   1   2  142.74    6.24
   1  -1  -2  208.48   10.27
  -1  -1   2  198.31   10.37
   1  -1  -2  209.80    9.01
  -1  -1   2  208.84    9.57
   1  -1  -2  207.64    9.45
  -1  -1   2  216.50    8.85
   1   1  -2  217.95    9.68
  -1   1   2  204.29   10.78
  -1   1   2  212.96    9.15
   0  -1   2   12.23    1.08
   0  -1   2   11.48    0.81
   0  -1  -2   10.75    0.65
   0  -1  -2   12.03    0.84
   0  -1   2   10.47    0.93
   0  -1  -2   11.78    1.00
   0   1   2   10.01    0.78
   0   1   2   10.81    0.96
  -1  -1  -2   40.29    2.03
   1  -1   2   37.81    2.04
   1  -1   2   41.33    2.57
  -1  -1  -2   37.19    2.34
   1  -1   2   39.30    1.90
   1  -1   2   36.48    1.95
   1   1   2   44.05    2.13
   1   1   2   41.60    2.11
   1   1   2   39.09    2.42
  -1   1  -2   40.54    2.20
   2  -1   2   11.15    1.46
   2  -1   2   11.00    1.13
  -2  -1  -2   11.56    1.35
  -2  -1  -2   11.73    1.14
   2  -1   2    9.34    1.11
   2  -1   2   11.16    0.99
   2   1   2   10.68    1.07
  -2   1  -2   11.13    0.85
   2   1   2   12.53    1.07
   2   1   2   10.90    1.15
  -3  -1  -2    7.49    1.03
  -3  -1  -2    7.56    1.29
   3  -1   2    5.11    1.08
   3  -1   2    5.66    0.97
   3  -1   2    6.49    1.34
  -3   1  -2    7.35    0.87
   3   1   2    6.35    1.01
   3   1   2    6.28    1.02
  -4  -1  -2   66.66    4.10
   4  -1   2   61.47    3.72
   4  -1   2   68.78    3.78
   4  -1   2   57.14    4.26
  -4  -1  -2   63.88    3.58
  -4   1  -2   64.01    3.63
   4   1   2   63.20    3.95
   4   1   2   66.65    3.63
   4   1   2   65.54    3.99
   5  -1   2   11.93    1.79
  -5  -1  -2   11.53    1.65
   5  -1   2   13.78    1.88
  -5  -1  -2   11.78    1.81
  -5   1  -2   13.63    1.50
   5   1   2   15.35    1.96
   5   1   2   13.83    1.95
  -5   1  -2   13.27    2.06
   5   1   2   10.89    1.58
   6  -1   2    5.90    1.59
  -6  -1  -2    6.34    1.30
   6  -1   2    6.03    1.68
  -6  -1  -2    7.01    1.63
   6   1   2    6.39    1.53
   6   1   2    6.14    1.73
  -6   1  -2    9.42    1.87
  -6   1  -2    6.23    1.22
   6   1   2    5.35    1.45
   7  -1   2    1.92    1.40
  -7  -1  -2    1.18    0.84
  -7  -1  -2   -0.02    1.16
   7  -1   2    1.34    1.57
  -7   1  -2    1.10    1.30
   7   1   2    1.00    1.50
   7   1   2    1.13    1.35
   8  -1   2   -0.01    1.47
  -8  -1  -2    0.31    0.45
   8  -1   2   -0.10    1.66
  -8  -1  -2    1.78    1.45
   8   1   2   -1.38    1.54
   8   1   2    1.36    1.50
  -8   1  -2    0.98    1.52
   9  -1   2    3.65    2.26
   9  -1   2    6.49    2.13
  -9   1  -2    4.42    1.94
   9   1   2    3.84    2.19
  10  -1   2    3.49    2.30
 -10   1  -2    4.01    2.11
  10   1   2    0.18    2.06
  11  -1   2   -0.79    2.64
 -11   1  -2    3.33    2.20
  11   1   2    4.39    2.53
  12  -2  -2    4.13    2.92
 -12   2   2    1.33    2.27
  12   2  -2    1.94    2.53
  11  -2  -2    5.50    2.92
 -11  -2   2    5.04    2.18
  11   2  -2    2.06    1.91
 -11   2   2    3.13    2.37
 -10  -2   2    8.01    2.26
  10  -2  -2    2.85    2.46
 -10   2   2    4.70    2.38
  10   2  -2    0.61    1.82
   9  -2  -2    4.33    2.28
  -9  -2   2    4.66    1.87
  -9  -2   2    2.82    2.03
  -9   2   2    3.79    2.20
   9   2  -2    1.61    1.69
  -8  -2   2   12.91    2.19
   8  -2  -2    5.95    2.21
  -8  -2   2   14.13    2.70
   8  -2  -2    8.83    2.07
   8   2  -2   10.81    2.17
  -8   2   2    9.24    2.55
   7  -2  -2    7.18    2.02
   7  -2  -2   12.29    2.03
  -7  -2   2   14.82    2.72
  -7  -2   2   14.23    2.13
  -7   2   2    9.56    2.43
   7   2  -2   12.59    2.04
  -6  -2   2   31.14    2.73
  -6  -2   2   36.99    3.46
   6  -2  -2   37.81    3.10
   6  -2  -2   39.95    2.82
  -6  -2   2   33.55    2.32
  -6   2   2   39.41    3.55
   6   2  -2   35.31    2.82
  -6   2   2   33.74    2.57
  -5  -2   2  110.96    5.92
   5  -2  -2  125.53    5.94
   5  -2  -2  118.53    6.04
  -5  -2   2  114.30    6.12
  -5  -2   2  118.12    7.23
   5  -2  -2  120.15    6.36
  -5   2   2  125.56    7.27
  -5   2   2  112.76    5.73
   5   2  -2  115.10    6.15
   5   2  -2  113.14    5.87
  -4  -2   2  119.57    5.79
  -4  -2   2  109.09    7.02
   4  -2  -2  115.34    5.67
   4  -2  -2  122.50    6.06
   4  -2  -2  119.69    6.12
  -4  -2   2  122.41    6.05
  -4   2   2  113.08    6.73
   4   2  -2  113.87    5.81
  -4   2   2  114.12    5.44
   3  -2  -2   90.55    4.71
  -3  -2   2   91.04    4.38
   3  -2  -2   91.85    4.66
  -3  -2   2   96.65    4.65
  -3  -2   2   87.45    4.47
  -3  -2   2   83.38    5.52
   3  -2  -2   92.21    4.40
  -3   2   2   94.32    4.47
  -3   2   2   88.25    5.50
   3   2  -2   97.90    4.79
  -2  -2   2  101.24    4.54
  -2  -2   2   94.84    4.43
  -2  -2   2  104.38    5.13
   2  -2  -2   99.09    4.79
  -2  -2   2   94.98    5.62
  -2  -2   2   92.94    4.89
   2  -2  -2   97.93    4.58
   2   2  -2   98.70    4.78
  -2   2   2   97.71    4.50
  -2   2   2   93.71    5.44
  -1  -2   2  111.76    4.73
  -1  -2   2  106.25    4.69
  -1  -2   2  110.76    5.79
  -1  -2   2  106.92    5.83
   1  -2  -2  107.24    5.12
  -1  -2   2  102.81    5.26
   1  -2  -2  104.59    4.93
   1  -2  -2  114.56    5.67
  -1   2   2  104.43    5.78
  -1   2   2  109.50    4.89
   0  -2  -2   31.82    2.17
   0  -2  -2   34.16    1.83
   0  -2   2   31.83    1.51
   0  -2   2   33.32    1.92
   0  -2   2   31.42    1.50
   0  -2   2   35.27    2.36
   0  -2  -2   33.79    1.77
   0   2   2   34.85    1.91
   0   2   2   35.48    2.18
   1  -2   2  146.80    8.43
   1  -2   2  151.86    7.35
  -1  -2  -2  156.54    7.22
  -1  -2  -2  159.19    8.11
  -1  -2  -2  160.95    6.97
   1  -2   2  150.22    6.68
   1  -2   2  156.43    6.75
   1  -2   2  154.31    7.68
   1   2   2  158.71    8.35
   1   2   2  167.37    7.51
   1   2   2  158.90    7.23
   2  -2   2  147.70    7.42
   2  -2   2  145.57    8.63
  -2  -2  -2  154.15    8.26
   2  -2   2  163.15    6.94
   2  -2   2  154.30    7.01
  -2  -2  -2  160.89    7.09
   2   2   2  163.99    7.29
   2   2   2  166.81    7.58
   2   2   2  155.77    8.29
  -2   2  -2  155.12    7.83
   3  -2   2  152.51    7.34
   3  -2   2  141.59    6.86
  -3  -2  -2  148.43    8.14
  -3  -2  -2  154.57    7.00
   3  -2   2  146.78    7.05
   3   2   2  161.43    7.14
  -3   2  -2  155.49    7.49
   3   2   2  147.51    8.01
  -3   2  -2  144.23    8.68
  -4  -2  -2  178.75    8.33
   4  -2   2  187.94    8.55
   4  -2   2  161.45    8.25
   4  -2   2  184.75    8.79
  -4  -2  -2  170.31    9.59
   4   2   2  180.51    8.37
  -4   2  -2  171.19    8.76
  -4   2  -2  185.28   10.17
   4   2   2  174.69    8.81
   4   2   2  181.10    9.41
  -5  -2  -2  115.84    7.27
   5  -2   2  137.11    6.69
   5  -2   2  128.88    6.76
  -5  -2  -2  120.19    6.35
  -5   2  -2  123.47    7.63
   5   2   2  121.45    6.28
   5   2   2  123.96    6.90
   5   2   2  123.05    6.64
  -6  -2  -2   93.92    6.30
   6  -2   2   97.81    5.93
   6  -2   2  112.60    5.97
   6   2   2   96.98    5.72
  -6   2  -2   99.47    6.51
   6   2   2   97.13    5.40
   6   2   2   91.29    5.72
   7  -2   2   42.95    3.99
  -7  -2  -2   52.62    4.40
   7  -2   2   66.51    4.37
   7   2   2   53.27    4.17
  -7   2  -2   59.12    4.65
   7   2   2   51.73    3.96
   8  -2   2   44.01    3.91
   8  -2   2   41.84    4.41
  -8  -2  -2   38.92    3.77
  -8   2  -2   38.73    4.03
   8   2   2   46.47    4.02
  -9  -2  -2   44.74    4.24
   9  -2   2   44.84    4.82
   9  -2   2   42.53    4.41
   9   2   2   39.59    4.33
  -9   2  -2   44.01    4.38
  10  -2   2   43.07    5.20
  10  -2   2   40.39    4.51
 -10   2  -2   34.52    4.38
  10   2   2   34.10    4.25
  11  -2   2   28.35    4.47
 -11   2  -2   20.79    3.78
  11   2   2   28.19    4.26
  12  -3  -2   31.54    5.11
  12   3  -2   17.13    3.65
 -12   3   2   35.48    4.81
 -11  -3   2   48.62    4.73
  11  -3  -2   39.56    5.46
  11   3  -2   28.62    4.18
 -11   3   2   51.03    5.67
  10  -3  -2   44.85    5.35
 -10  -3   2   46.24    4.64
  10   3  -2   45.88    4.13
 -10   3   2   50.80    5.73
  -9  -3   2   58.63    5.08
   9  -3  -2   56.01    5.02
  -9  -3   2   49.64    4.22
   9  -3  -2   52.48    4.68
  -9   3   2   61.96    5.43
   9   3  -2   46.83    4.24
   8  -3  -2   36.26    4.19
  -8  -3   2   36.43    3.41
   8  -3  -2   42.22    3.68
  -8  -3   2   54.13    4.60
  -8   3   2   45.50    4.22
   8   3  -2   35.53    3.19
  -7  -3   2   45.62    4.36
   7  -3  -2   48.24    3.57
   7  -3  -2   46.56    3.81
  -7  -3   2   40.10    3.28
   7   3  -2   35.23    2.97
  -7   3   2   48.21    4.34
   6  -3  -2   33.65    2.93
  -6  -3   2   38.95    3.81
   6  -3  -2   38.35    2.67
  -6  -3   2   29.03    2.63
   6   3  -2   31.61    2.67
  -6   3   2   38.50    3.51
   5  -3  -2  102.45    5.41
  -5  -3   2   86.62    4.96
   5  -3  -2   98.12    5.04
   5  -3  -2   95.37    4.99
  -5  -3   2   98.32    6.52
  -5   3   2   88.46    6.07
  -5   3   2   89.18    4.63
   5   3  -2   91.05    4.97
   4  -3  -2   32.44    2.31
   4  -3  -2   35.59    2.29
  -4  -3   2   36.86    2.30
   4  -3  -2   36.59    2.19
  -4  -3   2   33.29    3.19
  -4   3   2   40.75    3.28
   4   3  -2   34.74    2.46
  -4   3   2   38.63    2.31
   3  -3  -2  148.64    7.22
   3  -3  -2  150.44    7.54
  -3  -3   2  145.19    6.72
  -3  -3   2  138.96    8.46
   3  -3  -2  150.25    6.84
  -3  -3   2  137.18    7.28
  -3  -3   2  154.18    6.82
  -3   3   2  150.23    8.27
  -3   3   2  144.68    6.70
   3   3  -2  141.94    7.13
  -2  -3   2  141.92    6.20
  -2  -3   2  135.58    6.16
   2  -3  -2  138.43    6.35
  -2  -3   2  135.78    6.82
   2  -3  -2  142.87    7.22
  -2  -3   2  133.24    7.80
   2  -3  -2  134.49    6.68
  -2   3   2  144.71    6.31
  -2   3   2  141.41    7.60
   2   3  -2  122.77    7.05
   2   3  -2  141.96    6.69
  -1  -3   2   47.19    3.42
   1  -3  -2   52.98    2.84
   1  -3  -2   54.92    3.35
  -1  -3   2   51.62    2.50
  -1  -3   2   51.65    2.98
  -1  -3   2   54.82    2.52
   1  -3  -2   54.15    2.78
  -1   3   2   51.81    2.62
   1   3  -2   47.76    3.12
  -1   3   2   50.33    3.14
   0  -3   2   35.88    1.79
   0  -3   2   37.01    1.79
   0  -3   2   34.93    2.18
   0  -3  -2   36.25    2.08
   0  -3  -2   37.15    2.68
   0  -3  -2   34.60    2.05
   0   3   2   34.17    2.22
   0   3   2   37.26    2.02
   0   3  -2   28.75    2.50
   1  -3   2   30.16    1.63
   1  -3   2   31.50    1.95
  -1  -3  -2   31.60    1.88
  -1  -3  -2   25.72    2.31
   1  -3   2   33.83    2.08
  -1  -3  -2   27.73    1.86
   1  -3   2   31.65    1.62
   1   3   2   31.10    2.04
   1   3   2   35.29    1.98
  -1   3  -2   26.58    2.59
   2  -3   2    1.63    0.56
   2  -3   2    2.04    0.51
  -2  -3  -2    2.73    0.77
   2  -3   2    2.97    0.79
  -2  -3  -2    3.34    1.28
   2  -3   2    2.45    0.46
   2   3   2    2.53    0.76
   2   3   2    1.69    0.55
  -2   3  -2    4.39    1.40
   2   3   2    1.45    0.45
   3  -3   2   26.09    1.82
   3  -3   2   29.51    1.95
  -3  -3  -2   28.71    2.03
   3  -3   2   23.67    1.98
  -3  -3  -2   26.53    2.66
   3   3   2   25.07    1.82
  -3   3  -2   26.38    3.13
   3   3   2   28.32    1.91
   3   3   2   27.16    1.87
  -4  -3  -2   28.00    3.18
   4  -3   2   27.68    2.18
   4  -3   2   24.64    2.07
  -4  -3  -2   31.13    2.17
   4   3   2   26.86    2.06
   4   3   2   25.10    2.10
  -4   3  -2   30.09    3.46
   4   3   2   25.86    1.90
   5  -3   2   12.84    1.75
  -5  -3  -2    9.13    1.89
  -5  -3  -2   12.00    1.79
   5  -3   2    9.16    1.67
   5   3   2    9.55    1.58
   5   3   2   10.28    1.70
   5   3   2    9.52    1.35
  -5   3  -2   10.49    2.28
   6  -3   2    7.59    1.78
   6  -3   2   10.12    1.87
  -6  -3  -2    9.56    2.25
   6   3   2   10.45    1.83
  -6   3  -2   12.09    2.52
   7  -3   2    3.02    1.70
   7  -3   2    2.27    1.25
  -7  -3  -2   -1.85    1.32
   7   3   2    3.11    1.52
  -7   3  -2    1.91    1.56
   8  -3   2    0.75    1.64
  -8  -3  -2    2.21    1.82
   8  -3   2   -0.39    1.57
   8   3   2   -2.58    1.26
  -8   3  -2   -0.96    1.65
  -9  -3  -2    2.48    1.85
   9  -3   2    7.50    2.35
   9  -3   2   -0.29    1.93
  -9   3  -2    1.30    1.97
   9   3   2    1.81    1.84
  10  -3   2    1.98    2.31
 -10  -3  -2    7.24    2.41
  10  -3   2    7.02    2.56
  10   3   2   -1.27    1.93
 -10   3  -2   -0.52    2.09
  11  -3   2    0.00    2.37
  11  -3   2   -0.08    2.28
 -11   3  -2    1.68    2.56
  11  -4  -2    6.54    3.12
 -11  -4   2    6.54    2.58
 -11   4   2    3.62    2.85
  11   4  -2    1.78    2.22
  10  -4  -2    3.63    2.53
 -10  -4   2    3.92    2.27
  10   4  -2   -1.63    1.61
 -10   4   2    1.64    2.59
  -9  -4   2    5.27    1.93
   9  -4  -2    2.62    2.20
  -9  -4   2    7.95    2.83
   9  -4  -2    2.12    1.86
   9   4  -2    4.03    1.78
  -9   4   2    5.57    2.81
  -8  -4   2    6.44    2.46
   8  -4  -2    8.68    2.12
   8  -4  -2    3.58    1.90
  -8  -4   2    1.84    1.54
  -8   4   2    8.42    2.80
   8   4  -2    5.23    1.78
  -7  -4   2    7.08    1.73
   7  -4  -2   10.58    2.07
  -7  -4   2    6.89    2.28
   7  -4  -2   11.16    2.01
  -7   4   2    7.92    2.57
   7   4  -2   11.46    1.95
  -6  -4   2   25.91    2.66
   6  -4  -2   29.37    2.75
   6  -4  -2   31.07    2.45
  -6  -4   2   25.60    3.81
  -6   4   2   30.83    3.82
   6   4  -2   24.30    2.38
  -5  -4   2   67.16    4.06
  -5  -4   2   67.47    5.63
   5  -4  -2   71.29    4.39
   5  -4  -2   83.06    4.26
  -5   4   2   68.98    5.30
   5   4  -2   69.43    4.17
   4  -4  -2   79.49    4.13
  -4  -4   2   70.04    5.60
   4  -4  -2   72.48    4.38
  -4  -4   2   77.57    4.05
   4  -4  -2   77.22    4.37
  -4   4   2   82.36    5.56
   4   4  -2   79.88    4.48
   3  -4  -2   59.84    3.26
  -3  -4   2   51.16    4.50
  -3  -4   2   58.56    3.12
   3  -4  -2   61.61    3.41
   3  -4  -2   55.45    3.68
  -3  -4   2   58.38    3.55
  -3   4   2   58.92    4.07
  -3   4   2   56.43    3.11
   3   4  -2   54.30    3.30
  -2  -4   2   66.71    3.75
  -2  -4   2   58.88    4.56
   2  -4  -2   66.49    3.61
   2  -4  -2   66.14    4.10
   2  -4  -2   60.50    3.38
  -2  -4   2   65.51    3.23
  -2  -4   2   62.13    3.21
   2   4  -2   56.58    3.42
   2   4  -2   66.51    3.53
  -2   4   2   64.08    4.08
  -2   4   2   63.77    3.28
   1  -4  -2   64.98    4.36
  -1  -4   2   73.09    4.66
  -1  -4   2   68.13    3.34
  -1  -4   2   70.88    3.92
   1  -4  -2   68.90    3.59
  -1  -4   2   72.17    3.36
   1  -4  -2   66.20    3.71
   1   4  -2   63.42    4.00
  -1   4   2   68.24    3.49
  -1   4   2   71.46    4.16
   0  -4   2   29.05    2.41
   0  -4  -2   32.66    2.06
   0  -4  -2   31.87    2.07
   0  -4   2   34.51    1.81
   0  -4  -2   35.15    3.01
   0  -4   2   33.87    2.30
   0  -4   2   31.88    1.78
   0   4   2   33.53    2.03
   0   4  -2   28.67    2.48
   0   4   2   32.00    2.25
  -1  -4  -2  100.52    4.83
   1  -4   2   97.83    4.50
  -1  -4  -2   96.69    5.00
   1  -4   2   96.04    5.13
  -1  -4  -2   90.14    5.94
   1  -4   2  100.08    4.53
   1  -4   2   94.65    5.26
  -1   4  -2   93.55    6.15
   1   4   2   96.89    5.47
   1   4   2  100.18    4.91
   1   4   2  107.33    5.05
   2  -4   2   96.86    5.42
  -2  -4  -2   99.34    5.12
   2  -4   2  104.43    5.32
  -2  -4  -2  104.71    6.45
   2  -4   2  106.93    4.89
  -2  -4  -2  101.28    5.32
   2  -4   2  104.38    4.85
   2   4   2  105.06    5.06
   2   4   2  105.46    5.15
   2   4   2  100.24    5.45
  -2   4  -2   88.25    6.37
  -3  -4  -2  100.58    5.15
   3  -4   2   95.44    5.41
   3  -4   2  105.22    4.93
  -3  -4  -2   93.66    6.35
   3   4   2   99.46    5.47
   3   4   2  108.58    5.37
  -3   4  -2   94.92    6.71
  -4  -4  -2  117.24    7.92
   4  -4   2  134.51    7.00
  -4  -4  -2  139.26    6.70
   4  -4   2  129.70    6.43
   4   4   2  134.82    6.97
  -4   4  -2  136.04    8.71
   5  -4   2  100.76    5.47
   5  -4   2   93.69    5.10
  -5  -4  -2   72.44    6.00
  -5  -4  -2   90.35    5.13
  -5   4  -2   90.34    6.57
   5   4   2   86.11    5.09
  -6  -4  -2   67.67    5.44
   6  -4   2   73.12    4.73
   6  -4   2   72.78    4.81
  -6   4  -2   76.40    5.89
   6   4   2   73.85    4.72
   7  -4   2   49.51    3.99
  -7  -4  -2   37.71    4.56
   7  -4   2   42.24    3.60
  -7   4  -2   44.50    4.60
   7   4   2   40.35    3.62
   8  -4   2   31.98    3.95
   8  -4   2   31.38    3.79
  -8  -4  -2   28.18    3.97
  -8   4  -2   32.04    4.48
   8   4   2   29.10    3.39
   9  -4   2   31.07    4.02
   9  -4   2   26.94    4.09
  -9  -4  -2   28.68    3.97
  -9   4  -2   28.10    4.43
   9   4   2   27.48    3.51
  10  -4   2   31.58    4.28
  10  -4   2   21.26    4.04
 -10  -4  -2   27.61    3.95
 -10   4  -2   30.96    4.71
 -11  -5   2   26.00    4.42
  11  -5  -2   33.23    5.13
  11   5  -2   21.35    3.62
 -11   5   2   27.21    5.03
 -10  -5   2   41.01    5.23
  10  -5  -2   34.24    4.82
 -10   5   2   29.06    4.99
  10   5  -2   28.28    3.77
  -9  -5   2   51.93    5.29
   9  -5  -2   42.92    4.60
   9  -5  -2   54.12    4.92
  -9  -5   2   42.79    4.42
  -9   5   2   44.64    5.88
   9   5  -2   43.12    4.05
  -8  -5   2   22.83    3.01
  -8  -5   2   29.13    4.45
   8  -5  -2   23.70    3.10
   8  -5  -2   23.69    3.34
  -8   5   2   20.54    3.82
   8   5  -2   20.20    2.80
   7  -5  -2   33.01    3.64
  -7  -5   2   31.28    3.29
   7  -5  -2   36.01    3.19
  -7  -5   2   33.66    4.74
  -7   5   2   32.82    4.41
   7   5  -2   27.09    3.05
   6  -5  -2   36.05    2.95
  -6  -5   2   32.19    4.56
   6  -5  -2   35.84    2.93
  -6  -5   2   32.93    2.97
   6   5  -2   30.36    2.63
  -6   5   2   37.77    4.64
   5  -5  -2   41.83    2.94
   5  -5  -2   38.55    3.07
  -5  -5   2   41.65    4.22
  -5  -5   2   39.16    2.88
   5   5  -2   37.27    2.91
  -5   5   2   41.56    3.86
   4  -5  -2   41.15    2.82
  -4  -5   2   40.94    2.75
  -4  -5   2   43.91    5.01
  -4  -5   2   41.04    3.10
   4  -5  -2   43.60    3.05
  -4   5   2   39.30    3.81
   4   5  -2   44.91    2.99
  -3  -5   2   80.25    4.10
   3  -5  -2   73.45    4.99
   3  -5  -2   81.70    4.23
  -3  -5   2   76.72    5.91
   3  -5  -2   80.39    4.50
  -3  -5   2   69.06    4.50
   3   5  -2   74.50    4.36
  -3   5   2   79.97    5.26
   2  -5  -2   62.44    3.59
  -2  -5   2   55.61    4.68
  -2  -5   2   57.31    3.16
  -2  -5   2   57.68    3.67
   2  -5  -2   61.31    3.38
   2  -5  -2   56.41    4.31
  -2   5   2   57.30    3.95
   2   5  -2   55.70    3.40
  -1  -5   2   57.55    3.46
   1  -5  -2   48.88    3.04
   1  -5  -2   49.70    4.20
   1  -5  -2   51.63    3.23
  -1  -5   2   55.99    2.87
  -1  -5   2   56.23    4.29
   1   5  -2   50.22    3.35
  -1   5   2   55.53    3.57
   0  -5  -2   12.89    1.49
   0  -5   2   13.63    1.69
   0  -5  -2   14.09    2.42
   0  -5   2   14.32    2.00
   0  -5   2   13.04    1.16
   0  -5  -2   12.51    1.51
   0   5   2   13.78    1.65
   0   5  -2   13.96    1.97
  -1  -5  -2   18.31    1.85
  -1  -5  -2   21.10    1.74
  -1  -5  -2   15.54    2.68
   1  -5   2   18.86    1.41
   1  -5   2   17.06    1.96
   1  -5   2   19.17    1.82
   1   5   2   15.43    1.49
  -1   5  -2   19.53    2.54
   1   5   2   17.85    1.50
  -2  -5  -2    8.86    1.37
  -2  -5  -2    5.34    1.16
   2  -5   2    6.14    0.95
  -2  -5  -2    5.47    2.05
   2  -5   2    6.03    1.21
  -2   5  -2    4.65    1.83
   2   5   2    6.98    1.15
  -3  -5  -2    5.91    1.30
   3  -5   2    6.03    1.08
   3  -5   2    6.79    1.44
  -3  -5  -2    6.24    2.17
  -3   5  -2    6.45    2.33
   3   5   2    8.86    1.38
  -4  -5  -2   27.34    2.63
   4  -5   2   24.76    2.62
  -4  -5  -2   17.77    3.20
   4  -5   2   21.61    2.13
   4   5   2   24.98    2.19
  -4   5  -2   26.31    3.89
   5  -5   2    6.07    1.43
  -5  -5  -2    6.59    1.66
   5  -5   2    8.12    1.61
  -5  -5  -2    3.30    1.94
   5   5   2    8.84    1.59
  -5   5  -2    7.01    2.57
  -6  -5  -2   -0.10    1.82
   6  -5   2    2.96    1.45
   6  -5   2    2.79    1.46
  -6   5  -2    4.17    2.59
   6   5   2    3.49    1.35
   7  -5   2    2.89    1.68
  -7  -5  -2    0.77    1.56
   7  -5   2   -1.35    1.29
   7   5   2   -1.81    1.09
  -7   5  -2    1.36    2.31
   8  -5   2    1.42    1.80
  -8  -5  -2    1.51    2.10
   8  -5   2   -2.35    1.91
   8   5   2    1.99    1.60
  -8   5  -2   -0.76    2.32
  -9  -5  -2    2.76    2.37
   9  -5   2   -2.89    2.02
   9  -5   2    0.41    2.04
  -9   5  -2    0.88    2.60
  10  -6  -2   -2.42    2.03
 -10  -6   2    6.23    2.90
  10   6  -2    0.37    1.94
 -10   6   2   -1.06    3.05
  -9  -6   2   11.68    3.20
   9  -6  -2    6.04    2.43
   9  -6  -2    2.00    2.10
  -9  -6   2    2.06    1.96
  -9   6   2    0.52    3.01
   9   6  -2   -1.13    1.44
   8  -6  -2    6.43    2.19
  -8  -6   2    3.68    1.73
   8  -6  -2    4.81    2.00
  -8  -6   2    6.65    2.99
   8   6  -2    5.60    1.66
  -8   6   2   -1.52    2.49
  -7  -6   2    6.86    2.92
  -7  -6   2    4.46    1.69
   7  -6  -2    1.88    1.57
   7  -6  -2    0.79    1.44
   7   6  -2    2.64    1.27
  -7   6   2    3.52    2.79
   6  -6  -2   20.44    2.65
   6  -6  -2   18.75    2.48
  -6  -6   2   27.60    4.43
  -6  -6   2   20.12    2.55
  -6   6   2   22.49    3.78
   6   6  -2   19.63    2.52
  -5  -6   2   48.03    5.74
   5  -6  -2   48.50    3.37
  -5  -6   2   42.89    3.22
   5  -6  -2   43.10    3.47
   5   6  -2   43.73    3.36
  -5   6   2   46.50    4.65
  -4  -6   2   32.45    2.59
   4  -6  -2   34.15    2.90
  -4  -6   2   37.82    5.00
   4  -6  -2   40.95    2.83
  -4  -6   2   32.98    2.79
   4   6  -2   33.02    2.59
  -4   6   2   34.87    4.00
   3  -6  -2   48.96    3.23
  -3  -6   2   45.91    3.54
   3  -6  -2   51.45    3.51
  -3  -6   2   52.52    3.13
  -3  -6   2   55.07    5.15
  -3   6   2   56.50    4.31
   3   6  -2   49.69    3.44
   2  -6  -2   30.62    2.50
   2  -6  -2   28.75    2.31
  -2  -6   2   27.80    2.56
   2  -6  -2   33.24    3.88
  -2  -6   2   31.46    2.16
  -2  -6   2   28.41    3.87
   2   6  -2   28.62    2.35
  -2   6   2   28.68    2.75
  -1  -6   2   34.79    3.57
   1  -6  -2   36.14    2.56
  -1  -6   2   39.21    2.91
   1  -6  -2   35.35    2.67
   1  -6  -2   30.13    3.90
  -1  -6   2   35.36    2.31
  -1   6   2   37.55    3.02
   0  -6   2   36.15    3.24
   0  -6  -2   37.67    2.56
   0  -6  -2   39.66    4.53
   0  -6  -2   32.73    2.56
   0  -6   2   31.63    2.72
   0  -6   2   33.57    2.22
   0   6  -2   29.02    2.79
   0   6   2   33.61    2.57
  -1  -6  -2   34.11    4.27
   1  -6   2   33.75    2.31
   1  -6   2   38.77    3.00
  -1  -6  -2   39.51    2.80
  -1  -6  -2   40.76    2.73
  -1   6  -2   35.34    3.42
   1   6   2   39.24    2.62
  -2  -6  -2   75.82    4.55
  -2  -6  -2   79.83    4.44
   2  -6   2   75.31    4.06
  -2  -6  -2   74.76    5.97
   2  -6   2   77.46    4.79
  -2   6  -2   72.99    5.70
   2   6   2   78.77    4.40
  -3  -6  -2   59.88    3.87
  -3  -6  -2   64.22    5.40
   3  -6   2   63.11    3.57
   3  -6   2   60.11    4.15
   3   6   2   66.84    3.99
  -3   6  -2   57.66    5.34
   4  -6   2   69.81    4.00
   4  -6   2   66.75    4.45
  -4  -6  -2   58.86    5.52
  -4  -6  -2   72.72    4.40
  -4   6  -2   62.57    5.95
   4   6   2   69.39    4.22
   5  -6   2   75.73    4.33
  -5  -6  -2   57.80    5.59
  -5  -6  -2   63.65    4.42
   5  -6   2   69.07    4.77
  -5   6  -2   75.01    6.56
   5   6   2   69.29    4.62
   6  -6   2   44.08    3.55
   6  -6   2   41.16    3.81
  -6  -6  -2   40.47    5.01
   6   6   2   43.24    3.55
  -6   6  -2   51.76    6.03
   7  -6   2   33.40    3.96
   7  -6   2   31.26    3.59
  -7  -6  -2   27.73    4.38
   7   6   2   25.37    3.10
  -7   6  -2   28.46    4.90
   8  -6   2   21.07    3.22
  -8  -6  -2   21.06    3.94
   8  -6   2   30.23    3.99
  -8   6  -2   24.56    4.88
  -8  -7   2   17.27    2.87
   8  -7  -2   12.50    2.75
  -8  -7   2   12.04    3.44
   8  -7  -2   17.24    3.18
  -8   7   2   15.64    4.39
   8   7  -2    9.02    2.17
   7  -7  -2   13.95    2.55
  -7  -7   2   20.15    3.00
   7  -7  -2   19.35    3.05
  -7  -7   2   19.37    4.18
   7   7  -2   12.39    2.35
  -7   7   2   21.17    4.41
  -6  -7   2   21.21    2.88
   6  -7  -2   21.43    2.99
   6  -7  -2   20.14    2.72
  -6  -7   2   23.14    4.44
   6   7  -2   19.60    2.65
  -6   7   2   24.73    4.34
  -5  -7   2   24.73    4.51
  -5  -7   2   21.49    2.65
   5  -7  -2   19.95    2.75
   5  -7  -2   22.68    2.69
  -5   7   2   22.60    3.82
   5   7  -2   18.30    2.48
   4  -7  -2   23.44    2.79
   4  -7  -2   26.01    2.72
  -4  -7   2   19.46    4.07
  -4  -7   2   23.02    2.59
  -4  -7   2   27.71    2.97
  -4   7   2   24.52    3.63
   4   7  -2   25.54    2.38
  -3  -7   2   40.60    3.41
  -3  -7   2   42.26    2.92
   3  -7  -2   38.94    3.12
  -3  -7   2   49.15    5.75
   3  -7  -2   40.20    3.14
  -3   7   2   40.71    3.87
   3   7  -2   45.54    3.32
   2  -7  -2   32.43    2.62
  -2  -7   2   30.97    2.37
  -2  -7   2   26.11    3.03
  -2  -7   2   36.49    4.50
   2  -7  -2   32.58    2.80
  -2   7   2   32.38    3.07
   2   7  -2   32.66    2.78
   1  -7  -2   31.05    2.64
   1  -7  -2   29.02    2.45
  -1  -7   2   24.66    2.83
  -1  -7   2   28.02    3.72
  -1  -7   2   26.61    2.21
   1   7  -2   33.19    2.78
  -1   7   2   31.57    3.01
   0  -7  -2   10.00    1.68
   0  -7  -2    9.73    1.69
   0  -7  -2    8.95    2.71
   0  -7   2   11.92    1.52
   0  -7   2   13.00    2.08
  -1  -7  -2    6.66    1.54
  -1  -7  -2    8.43    1.64
  -1  -7  -2    8.56    2.77
   1  -7   2    8.38    1.78
   1  -7   2   11.87    1.55
   1   7   2   10.38    1.60
   2  -7   2    4.22    1.50
  -2  -7  -2    5.45    1.45
  -2  -7  -2    4.37    1.33
  -2  -7  -2    5.61    2.56
   2  -7   2    5.41    1.20
  -2   7  -2    4.93    2.02
   2   7   2    4.00    1.18
   3  -7   2    4.83    1.39
   3  -7   2    4.12    1.18
  -3  -7  -2    5.73    1.56
  -3  -7  -2    2.59    2.37
   3   7   2    2.55    1.22
  -3   7  -2    2.03    2.46
  -4  -7  -2   14.67    2.36
   4  -7   2   10.79    1.76
  -4  -7  -2   12.99    3.28
   4  -7   2   12.68    2.23
   4   7   2   10.13    1.75
  -4   7  -2   10.34    3.30
  -5  -7  -2    5.52    1.83
   5  -7   2    2.54    1.60
  -5  -7  -2    1.71    2.48
   5  -7   2    3.52    1.41
   5   7   2    6.48    1.65
  -5   7  -2    4.63    3.15
   6  -7   2    0.97    1.38
   6  -7   2    0.90    1.51
  -6  -7  -2    5.39    2.64
   6   7   2    0.85    1.29
  -6   7  -2    1.91    3.24
  -7  -7  -2    1.86    2.41
   7  -7   2    0.62    1.62
   7  -7   2    1.13    1.74
  -7   7  -2   -5.76    2.32
  -7  -8   2    5.24    3.05
  -7  -8   2    1.74    1.92
   7  -8  -2    5.07    2.11
   7  -8  -2    0.48    1.77
   7   8  -2   -0.12    1.55
  -7   8   2   -2.41    2.72
  -6  -8   2    8.73    2.31
   6  -8  -2    9.17    2.32
  -6  -8   2    5.72    3.12
   6  -8  -2    7.75    2.11
   6   8  -2    8.92    2.08
  -6   8   2    6.24    3.25
  -5  -8   2   24.94    4.82
   5  -8  -2   20.45    2.77
  -5  -8   2   23.92    2.99
   5  -8  -2   27.16    3.31
  -5   8   2   28.20    4.20
   5   8  -2   18.68    2.73
   4  -8  -2   21.15    2.91
  -4  -8   2   32.79    5.12
  -4  -8   2   27.15    2.95
   4  -8  -2   24.77    2.87
  -4  -8   2   18.77    2.90
  -4   8   2   27.02    3.77
   4   8  -2   19.68    2.74
  -3  -8   2   25.18    4.32
  -3  -8   2   18.97    2.87
  -3  -8   2   22.80    2.59
   3  -8  -2   23.70    2.71
   3  -8  -2   25.25    2.99
  -3   8   2   23.68    3.28
   3   8  -2   19.07    2.61
  -2  -8   2   24.04    2.52
  -2  -8   2   19.18    2.80
   2  -8  -2   20.79    2.57
   2  -8  -2   22.20    2.75
   2   8  -2   22.51    2.67
  -1  -8   2   17.36    2.22
   1  -8  -2   18.47    2.52
   1  -8  -2   22.23    2.63
  -1  -8   2   20.23    2.78
   1   8  -2   20.17    2.58
   0  -8   2   20.65    2.26
   0  -8  -2   17.99    2.41
   0  -8   2   20.75    2.82
   0  -8  -2   15.25    2.29
   0   8   2   16.64    2.16
  -1  -8  -2   31.79    2.91
  -1  -8  -2   30.09    3.09
  -1  -8  -2   26.70    4.42
   1  -8   2   27.80    3.36
   1  -8   2   28.55    2.43
   1   8   2   25.01    2.63
  -2  -8  -2   37.02    3.43
  -2  -8  -2   40.23    3.34
   2  -8   2   40.16    2.94
   2  -8   2   42.79    3.77
  -2  -8  -2   31.25    4.91
   2   8   2   39.62    3.26
  -3  -8  -2   40.40    3.82
  -3  -8  -2   31.17    5.02
   3  -8   2   42.18    3.84
   3  -8   2   36.32    2.91
   3   8   2   35.87    3.08
   4  -8   2   47.85    4.15
  -4  -8  -2   39.87    5.36
  -4  -8  -2   41.24    4.12
   4  -8   2   45.35    3.36
  -4   8  -2   30.94    4.98
   4   8   2   45.26    3.49
  -5  -8  -2   32.73    5.00
   5  -8   2   34.26    4.13
   5  -8   2   34.83    3.04
  -5   8  -2   24.29    4.81
   4  -9  -2    8.26    2.26
  -4  -9   2    8.16    2.14
   4  -9  -2   13.10    2.40
  -4  -9   2   18.91    3.93
   4   9  -2   13.79    2.46
   3  -9  -2   20.96    2.98
  -3  -9   2   21.70    2.70
   3  -9  -2   22.70    2.91
  -3  -9   2   21.29    3.17
   3   9  -2   24.33    3.05
  -2  -9   2   22.32    3.17
   2  -9  -2   17.11    2.70
   2  -9  -2   23.36    2.96
  -2  -9   2   17.60    2.46
   2   9  -2   25.57    3.11
   1  -9  -2   13.36    2.39
  -1  -9   2   14.35    2.23
   1  -9  -2   13.72    2.34
  -1  -9   2   11.73    2.55
  -1   9   2   12.71    2.10
   1   9  -2    9.04    2.12
   0  -9  -2    6.62    1.83
   0  -9   2    7.55    1.69
   0  -9  -2    8.29    2.05
   0  -9   2    4.74    1.93
   0   9  -2    5.36    1.79
   0   9   2    7.84    1.76
  -1  -9  -2    2.87    1.67
  -1  -9  -2    4.74    1.78
   1  -9   2    6.34    2.17
   1  -9   2    5.22    1.55
   1   9   2    7.53    1.84
  -2  -9  -2    5.76    2.98
   2  -9   2    0.04    1.18
   2  -9   2    1.39    1.68
  -2  -9  -2    0.15    1.64
  -2  -9  -2    1.97    1.62
   2   9   2    1.51    1.40
  13   0  -3   -0.51    2.74
  12   0  -3    0.84    2.50
  11   0  -3    1.06    2.34
  10   0  -3    1.72    2.11
  -9   0   3    6.56    2.02
   9   0  -3   -1.22    1.75
  -9   0   3   -0.65    1.01
  -8   0   3    1.88    1.40
  -8   0   3    0.95    1.37
   8   0  -3    0.74    1.67
  -7   0   3    5.80    1.56
  -7   0   3    2.45    1.46
   7   0  -3    3.13    1.63
  -7   0   3    4.24    1.47
  -6   0   3   36.11    2.91
  -6   0   3   33.93    2.86
  -6   0   3   35.17    3.03
   6   0  -3   32.72    3.03
   6   0  -3   34.19    2.55
   5   0  -3   10.77    1.35
   5   0  -3    9.47    1.58
  -5   0   3   10.75    1.74
  -5   0   3    9.14    1.49
   4   0  -3    8.07    1.31
   4   0  -3    5.21    0.89
  -4   0   3    6.54    1.14
  -4   0   3    6.67    1.27
   3   0  -3  107.61    5.74
  -3   0   3  114.86    6.09
  -3   0   3  113.65    5.29
  -3   0   3  117.52    6.15
  -2   0   3    3.36    0.53
  -2   0   3    3.19    0.70
  -2   0   3    4.16    0.52
   2   0  -3    3.90    0.73
  -2   0   3    5.18    0.87
   1   0  -3  128.10    6.74
  -1   0   3  130.13    6.97
   1   0  -3  153.50    6.14
  -1   0   3  125.20    5.77
  -1   0   3  126.35    5.77
   0   0  -3  144.36    7.64
   0   0   3  157.13    7.99
   0   0   3  151.61    6.88
   0   0   3  148.03    6.58
   0   0   3  159.70    6.62
   1   0   3  114.15    5.51
   1   0   3  116.02    6.43
   1   0   3  130.18    5.41
  -1   0  -3  119.82    6.14
   1   0   3  117.72    5.31
   2   0   3  227.30   10.22
   2   0   3  219.67    9.71
  -2   0  -3  221.75   11.06
   2   0   3  213.16   11.55
   3   0   3  103.17    5.19
   3   0   3  101.73    5.90
   3   0   3  102.24    4.97
  -3   0  -3  100.55    5.49
   4   0   3   73.86    4.24
   4   0   3   76.74    4.08
   4   0   3   75.97    4.77
  -4   0  -3   67.40    4.03
  -4   0  -3   78.11    4.40
   5   0   3   68.87    4.01
   5   0   3   69.38    4.61
   5   0   3   64.93    4.28
  -5   0  -3   64.08    4.16
   6   0   3   41.07    3.66
  -6   0  -3   47.99    3.42
   6   0   3   43.46    3.36
   6   0   3   47.92    3.67
  -7   0  -3   55.74    4.29
   7   0   3   59.76    4.49
   7   0   3   54.34    4.05
   8   0   3   71.98    5.00
  -8   0  -3   70.90    5.27
   8   0   3   78.80    5.60
   9   0   3   51.90    4.83
  -9   0  -3   49.85    4.36
   9   0   3   53.26    4.41
  10   0   3   44.79    5.07
  11   0   3   22.80    3.87
  12  -1  -3   42.05    5.23
  12   1  -3   41.23    5.09
  11  -1  -3   54.94    5.95
  11   1  -3   42.95    4.75
 -11   1   3   44.80    4.52
  10  -1  -3   46.12    5.17
 -10  -1   3   50.33    4.45
  10   1  -3   44.49    4.88
 -10   1   3   50.81    4.85
   9  -1  -3   51.08    4.89
  -9  -1   3   53.89    4.58
  -9  -1   3   53.45    4.40
   9   1  -3   45.00    4.31
  -9   1   3   55.61    4.72
   8  -1  -3   37.90    4.13
  -8  -1   3   32.52    3.21
  -8  -1   3   41.30    3.79
  -8  -1   3   39.61    3.50
   8   1  -3   34.57    3.69
  -8   1   3   36.90    4.07
  -8   1   3   28.05    3.13
  -8   1   3   32.22    2.95
  -7  -1   3  108.22    6.63
   7  -1  -3  114.87    6.82
  -7  -1   3  125.13    6.45
  -7  -1   3  113.19    7.16
   7  -1  -3  106.61    6.12
  -7   1   3  110.20    6.96
   7   1  -3   94.20    6.06
  -7   1   3  105.33    5.89
  -7   1   3  111.13    6.24
   6  -1  -3  117.07    5.86
  -6  -1   3  119.87    6.19
  -6  -1   3  104.28    6.33
   6  -1  -3  106.19    6.48
  -6  -1   3  115.43    6.94
   6   1  -3   94.46    5.89
  -6   1   3  105.87    6.61
  -6   1   3  103.87    5.58
   6   1  -3  106.97    5.59
  -6   1   3  110.97    6.01
  -5  -1   3  119.53    6.62
  -5  -1   3  128.99    7.21
  -5  -1   3  126.62    6.31
   5  -1  -3  120.02    5.93
   5  -1  -3  113.80    6.51
   5   1  -3  117.06    5.82
  -5   1   3  124.60    7.04
  -5   1   3  117.74    6.43
  -5   1   3  116.18    5.85
   5   1  -3  114.99    6.30
  -4  -1   3  277.64   12.72
  -4  -1   3  293.24   14.62
  -4  -1   3  289.11   14.37
   4  -1  -3  278.63   12.44
   4  -1  -3  271.97   13.43
  -4   1   3  280.56   14.88
  -4   1   3  290.10   14.23
   4   1  -3  282.20   13.45
  -4   1   3  283.71   12.61
   3  -1  -3  116.89    5.79
  -3  -1   3  112.47    5.52
  -3  -1   3  108.87    5.28
   3  -1  -3  120.11    6.04
  -3  -1   3  123.79    6.16
  -3  -1   3  109.10    6.35
   3  -1  -3  119.91    5.37
   3   1  -3  124.02    5.93
  -3   1   3  111.40    6.54
  -3   1   3  123.54    5.56
  -2  -1   3  116.61    6.35
   2  -1  -3  117.70    5.36
  -2  -1   3  110.81    5.20
   2  -1  -3  120.98    6.13
  -2  -1   3  123.55    5.40
   2  -1  -3  124.74    5.65
  -2   1   3  124.81    5.62
  -2   1   3  117.09    6.67
   2   1  -3  131.07    5.95
  -1  -1   3  122.56    6.44
   1  -1  -3  121.17    5.54
  -1  -1   3  121.52    6.32
   1  -1  -3  122.74    6.25
   1  -1  -3  118.96    5.42
  -1   1   3  121.21    5.31
   1   1  -3  116.96    5.54
  -1   1   3  117.40    6.34
   0  -1   3  125.87    6.40
   0  -1   3  112.46    5.08
   0  -1  -3  116.63    6.11
   0  -1  -3  122.52    5.32
   0  -1   3  115.32    5.03
   0   1   3  116.07    5.49
   0   1  -3  122.11    6.25
   0   1   3  121.27    6.56
   0   1   3  131.07    5.56
  -1  -1  -3  119.84    5.55
  -1  -1  -3  121.42    6.41
   1  -1   3  126.64    5.54
   1  -1   3  119.72    5.37
   1  -1   3  123.68    6.74
  -1   1  -3  117.64    6.05
   1   1   3  116.68    6.39
   1   1   3  123.91    5.44
   2  -1   3  192.50   10.11
   2  -1   3  182.93    8.32
  -2  -1  -3  191.82    9.64
   2  -1   3  180.01    8.48
  -2  -1  -3  188.20    8.41
   2   1   3  188.06    8.16
   2   1   3  182.51    9.55
   2   1   3  164.01    8.53
  -2   1  -3  191.01    9.07
   3  -1   3   56.73    3.89
  -3  -1  -3   55.55    3.55
  -3  -1  -3   58.27    3.16
   3  -1   3   54.15    3.27
   3  -1   3   62.28    3.22
   3  -1   3   51.69    3.13
   3   1   3   59.79    3.65
  -3   1  -3   57.97    3.23
   3   1   3   62.29    3.19
   3   1   3   49.52    3.29
   4  -1   3   44.69    3.21
   4  -1   3   56.83    3.30
  -4  -1  -3   54.60    3.56
  -4  -1  -3   52.88    3.19
   4  -1   3   57.11    3.98
   4   1   3   58.31    3.34
   4   1   3   55.87    3.75
  -4   1  -3   55.76    3.32
  -5  -1  -3    7.27    1.55
   5  -1   3    5.44    1.39
   5  -1   3    5.54    1.35
   5  -1   3    3.47    1.49
   5   1   3    5.73    1.39
  -5   1  -3    6.03    1.17
   5   1   3    5.91    1.49
   5   1   3    6.67    1.40
   6  -1   3    0.62    1.24
  -6  -1  -3    4.43    1.46
   6  -1   3    1.66    1.31
   6   1   3    3.63    1.53
   6   1   3    2.24    1.34
  -6   1  -3    3.42    1.42
   6   1   3    3.08    1.55
   7  -1   3    1.09    1.45
   7  -1   3    0.98    1.47
  -7  -1  -3    2.76    1.58
  -7  -1  -3    3.81    1.36
  -7   1  -3    3.05    1.51
   7   1   3    3.05    1.52
   7   1   3    3.18    1.70
  -8  -1  -3    1.48    1.28
  -8  -1  -3    2.18    1.63
   8  -1   3    2.29    1.79
   8  -1   3    3.31    1.95
  -8   1  -3    2.06    1.65
   8   1   3    3.51    1.74
   8   1   3    1.75    1.82
   9  -1   3    2.24    1.90
   9  -1   3    5.24    2.32
   9   1   3    1.49    2.30
  -9   1  -3    5.19    2.04
  10  -1   3    2.86    2.10
  10  -1   3    0.49    2.47
 -10   1  -3    3.09    1.97
  10   1   3    0.80    2.23
  11  -1   3    1.58    2.39
 -11   1  -3    2.73    2.19
  12  -2  -3    0.39    2.69
  12   2  -3   -0.05    1.68
 -12   2   3    0.73    2.26
  11  -2  -3   -1.14    2.43
 -11  -2   3    4.24    2.29
 -11   2   3   -3.20    1.87
  11   2  -3    0.87    1.69
 -10  -2   3   -1.29    1.52
  10  -2  -3   -3.04    2.00
 -10  -2   3    0.18    1.68
 -10   2   3    1.69    2.28
  10   2  -3   -0.08    1.73
   9  -2  -3   -1.59    1.73
  -9  -2   3   -0.71    1.46
  -9  -2   3   -0.34    1.61
   9   2  -3    0.60    1.49
  -9   2   3   -2.21    1.67
  -8  -2   3   -0.69    1.26
  -8  -2   3   -0.46    1.73
   8  -2  -3   -2.13    1.52
   8   2  -3    1.21    1.39
  -8   2   3   -1.09    1.10
  -7  -2   3   12.01    2.09
   7  -2  -3   14.36    2.09
   7  -2  -3   12.09    1.58
   7  -2  -3   10.94    2.23
  -7  -2   3   13.00    2.66
   7   2  -3   12.96    2.06
  -7   2   3   15.02    2.73
  -7   2   3   10.41    1.83
   6  -2  -3   16.57    1.46
   6  -2  -3   12.24    1.69
   6  -2  -3   18.00    2.33
  -6  -2   3   13.53    1.98
  -6  -2   3   18.36    2.82
  -6  -2   3   12.12    1.26
  -6   2   3   14.97    2.51
  -6   2   3   14.01    1.82
   6   2  -3   14.70    1.93
  -5  -2   3   17.80    1.96
   5  -2  -3   15.27    1.90
   5  -2  -3   16.86    1.41
  -5  -2   3   18.21    1.30
   5  -2  -3   15.95    1.70
  -5  -2   3   13.11    2.38
   5   2  -3   17.49    1.61
  -5   2   3   14.79    1.66
  -5   2   3   17.76    2.33
  -4  -2   3   11.44    1.46
  -4  -2   3   15.35    2.19
   4  -2  -3   13.49    1.54
   4  -2  -3   13.93    1.43
   4  -2  -3   14.90    1.27
  -4  -2   3   12.91    1.52
  -4  -2   3   16.04    1.14
  -4   2   3   16.46    2.11
   4   2  -3   14.32    1.55
  -4   2   3   15.30    1.39
  -3  -2   3   36.84    2.14
  -3  -2   3   29.33    2.04
   3  -2  -3   35.61    2.15
  -3  -2   3   33.53    2.85
  -3  -2   3   37.16    2.15
   3  -2  -3   35.76    2.09
   3   2  -3   35.57    2.24
  -3   2   3   37.11    2.74
  -3   2   3   37.93    2.18
   2  -2  -3   31.76    2.00
   2  -2  -3   29.64    1.72
  -2  -2   3   28.18    2.34
  -2  -2   3   31.65    1.62
   2  -2  -3   28.34    1.77
  -2  -2   3   32.57    1.96
  -2  -2   3   30.70    1.98
  -2  -2   3   25.13    1.63
  -2   2   3   28.27    2.10
  -2   2   3   31.03    1.78
   2   2  -3   27.76    1.78
   1  -2  -3   69.93    3.41
  -1  -2   3   70.12    4.05
   1  -2  -3   72.19    3.45
   1  -2  -3   72.54    3.97
  -1  -2   3   68.18    3.03
  -1  -2   3   71.50    3.65
  -1   2   3   68.74    3.37
  -1   2   3   69.36    4.03
   0  -2   3   81.78    3.86
   0  -2   3  100.68    5.27
   0  -2  -3   93.56    4.28
   0  -2  -3   89.40    4.95
   0  -2  -3   92.16    4.25
   0  -2   3   86.02    4.46
   0   2   3   92.60    5.15
   0   2   3   93.53    4.39
  -1  -2  -3  180.33    7.80
   1  -2   3  177.57    8.21
   1  -2   3  175.27    9.42
   1  -2   3  179.81    7.52
   1  -2   3  148.86    7.54
  -1  -2  -3  175.48    9.01
   1   2   3  187.44    8.23
  -1   2  -3  171.98    8.84
   1   2   3  169.90    9.29
   1   2   3  182.50    8.01
  -2  -2  -3  119.14    6.23
  -2  -2  -3  115.63    5.32
   2  -2   3  110.73    6.57
   2  -2   3   96.88    5.18
   2  -2   3  109.12    5.49
   2  -2   3  110.25    5.17
  -2   2  -3  115.54    5.76
   2   2   3  114.40    5.55
   2   2   3  108.10    6.18
   2   2   3  116.88    5.43
   3  -2   3   97.52    5.09
   3  -2   3  102.91    5.21
  -3  -2  -3  107.86    6.02
   3  -2   3  107.77    5.35
  -3  -2  -3  109.30    5.18
   3  -2   3   91.62    6.22
   3   2   3  100.74    5.47
   3   2   3  104.12    5.95
   3   2   3  104.08    5.23
  -3   2  -3  116.62    5.49
   4  -2   3   76.84    5.31
   4  -2   3   81.10    4.53
  -4  -2  -3   75.88    4.31
  -4  -2  -3   79.05    5.03
   4  -2   3   83.79    4.50
   4   2   3   94.27    4.56
  -4   2  -3   78.32    5.44
  -4   2  -3   81.97    4.37
   4   2   3   82.59    4.91
   4   2   3   77.26    4.60
  -5  -2  -3   39.00    3.47
   5  -2   3   46.09    3.18
   5  -2   3   47.37    3.40
  -5   2  -3   38.03    3.51
   5   2   3   39.96    3.04
   5   2   3   44.02    3.00
   6  -2   3   62.47    4.20
  -6  -2  -3   54.71    4.38
   6  -2   3   60.94    4.15
   6   2   3   59.09    4.11
  -6   2  -3   49.09    4.41
   6   2   3   62.70    3.95
   6   2   3   57.97    4.00
   7  -2   3   43.52    3.80
  -7  -2  -3   44.32    3.94
   7  -2   3   46.55    3.87
   7   2   3   48.42    3.69
  -7   2  -3   46.92    4.01
   7   2   3   48.02    3.90
   7   2   3   39.83    3.62
   8  -2   3   58.06    4.79
   8  -2   3   75.15    4.92
  -8  -2  -3   47.79    4.47
  -8   2  -3   48.27    4.62
   8   2   3   57.98    4.49
  -9  -2  -3   51.39    4.75
   9  -2   3   57.46    5.14
   9  -2   3   62.95    5.06
   9   2   3   52.22    4.81
  -9   2  -3   59.92    5.19
  10  -2   3   29.97    3.84
  10  -2   3   27.54    4.24
 -10   2  -3   35.01    4.57
 -12  -3   3   31.39    4.42
  12  -3  -3   27.16    4.85
  12   3  -3   24.23    3.93
 -12   3   3   20.51    4.05
  11  -3  -3   41.06    5.47
 -11  -3   3   52.35    4.99
 -11   3   3   43.86    5.46
  11   3  -3   38.05    4.65
  10  -3  -3   41.77    5.19
 -10  -3   3   53.13    4.86
 -10  -3   3   36.00    4.14
 -10   3   3   49.97    5.07
  10   3  -3   29.74    3.77
  -9  -3   3   30.84    3.51
   9  -3  -3   27.08    3.91
  -9  -3   3   31.47    4.32
   9   3  -3   18.48    2.86
  -9   3   3   32.46    4.41
   8  -3  -3   38.62    4.28
  -8  -3   3   45.80    4.56
   8  -3  -3   49.65    3.84
  -8  -3   3   41.67    3.57
   8   3  -3   34.77    3.10
  -8   3   3   46.63    5.10
   7  -3  -3   73.42    4.58
  -7  -3   3   62.49    4.44
   7  -3  -3   76.43    4.87
  -7  -3   3   80.58    5.91
   7   3  -3   67.06    4.43
  -7   3   3   75.59    5.73
   6  -3  -3   71.73    4.09
   6  -3  -3   72.12    4.49
  -6  -3   3   73.16    5.55
  -6  -3   3   62.67    4.12
   6   3  -3   65.26    4.23
  -6   3   3   74.59    5.39
   5  -3  -3  141.71    6.90
   5  -3  -3  139.81    7.31
  -5  -3   3  138.93    8.66
  -5  -3   3  134.01    6.89
   5  -3  -3  147.07    7.35
   5   3  -3  137.96    7.04
  -5   3   3  133.18    8.18
  -5   3   3  135.54    6.61
  -4  -3   3  139.92    8.50
  -4  -3   3  145.53    6.85
  -4  -3   3  142.08    6.77
   4  -3  -3  142.77    6.81
   4  -3  -3  141.13    7.41
   4  -3  -3  144.68    7.17
   4   3  -3  147.54    7.38
  -4   3   3  148.29    6.95
  -4   3   3  144.64    8.51
  -3  -3   3  102.45    5.92
  -3  -3   3  114.27    5.28
  -3  -3   3  119.42    5.37
   3  -3  -3  112.13    5.43
   3  -3  -3  118.07    5.68
  -3  -3   3  110.87    5.83
  -3  -3   3  108.06    6.76
   3  -3  -3  116.68    6.04
   3   3  -3  113.50    5.80
  -3   3   3  115.07    5.51
  -3   3   3  116.88    6.69
   2  -3  -3  115.43    5.69
  -2  -3   3  123.40    5.26
  -2  -3   3  116.31    6.69
  -2  -3   3  115.96    5.21
   2  -3  -3  115.55    5.51
  -2  -3   3  107.71    6.32
  -2  -3   3  114.24    5.91
   2  -3  -3  120.46    6.28
  -2   3   3  113.88    6.49
   2   3  -3  115.64    5.72
  -2   3   3  113.76    5.40
   1  -3  -3   41.01    2.66
  -1  -3   3   39.03    1.82
  -1  -3   3   36.95    1.80
  -1  -3   3   38.17    2.68
   1  -3  -3   34.01    2.08
  -1  -3   3   36.94    2.75
   1  -3  -3   39.25    2.23
  -1  -3   3   37.52    2.37
  -1   3   3   35.98    2.52
  -1   3   3   36.21    2.13
   0  -3  -3  140.98    6.48
   0  -3   3  129.59    7.68
   0  -3  -3  137.93    7.38
   0  -3  -3  142.18    6.34
   0  -3   3  132.09    5.86
   0  -3   3  132.08    5.87
   0  -3   3  135.74    6.71
   0   3   3  138.47    7.49
   0   3   3  139.62    6.44
  -1  -3  -3   69.66    3.50
   1  -3   3   67.44    3.12
   1  -3   3   66.69    3.71
  -1  -3  -3   69.55    4.29
   1  -3   3   65.53    3.13
   1  -3   3   69.56    3.73
   1  -3   3   63.04    4.52
  -1  -3  -3   66.14    3.51
   1   3   3   65.37    3.93
   1   3   3   66.54    3.46
   1   3   3   69.89    3.43
  -2  -3  -3  103.79    4.98
   2  -3   3  103.99    4.72
  -2  -3  -3   93.33    5.85
   2  -3   3   90.86    6.24
   2  -3   3  100.29    5.20
  -2   3  -3   93.42    6.28
   2   3   3  108.05    5.08
   2   3   3   94.18    5.56
   2   3   3  104.17    5.03
  -2   3  -3  103.89    5.15
  -3  -3  -3   79.41    4.21
   3  -3   3   77.99    4.39
  -3  -3  -3   79.48    5.11
   3  -3   3   73.94    4.01
   3  -3   3   84.33    4.19
  -3   3  -3   80.71    5.53
   3   3   3   80.64    4.39
  -3   3  -3   84.95    4.24
   3   3   3   84.23    4.76
   3   3   3   83.06    4.40
  -4  -3  -3   20.84    2.77
   4  -3   3   25.35    2.16
  -4  -3  -3   25.90    2.19
   4  -3   3   22.74    2.08
   4   3   3   24.55    2.18
   4   3   3   22.80    2.02
   4   3   3   25.48    2.04
  -4   3  -3   25.02    3.23
   5  -3   3    6.63    1.63
   5  -3   3    8.90    1.60
  -5  -3  -3    8.43    2.09
   5   3   3    8.22    1.61
   5   3   3    7.42    1.36
  -5   3  -3    8.24    1.93
   6  -3   3    2.31    1.45
  -6  -3  -3    3.38    1.78
   6  -3   3    4.24    1.50
   6   3   3    3.93    1.54
  -6   3  -3    1.27    1.67
   7  -3   3   -0.43    1.32
  -7  -3  -3    2.92    1.84
   7  -3   3    0.76    1.73
   7   3   3   -0.26    1.52
  -7   3  -3   -0.67    1.12
   8  -3   3    6.00    2.11
   8  -3   3    8.87    2.32
  -8  -3  -3    3.48    1.95
   8   3   3   -0.76    1.46
  -8   3  -3    5.35    2.23
  -9  -3  -3    4.30    2.34
   9  -3   3    3.04    2.07
   9  -3   3   -1.89    1.77
  -9   3  -3   -0.95    1.87
  10  -3   3   -1.37    1.99
 -10  -3  -3    4.07    2.15
  10  -3   3   -0.77    1.90
 -10   3  -3    0.26    2.01
 -11  -4   3    3.02    2.33
  11  -4  -3    2.28    2.71
  11   4  -3   -3.82    1.68
 -11   4   3   -0.71    2.49
  10  -4  -3    0.05    2.19
 -10  -4   3   -1.15    1.55
 -10  -4   3   -1.48    1.85
  10   4  -3   -0.77    1.58
 -10   4   3    1.33    2.70
  -9  -4   3   -0.57    1.40
  -9  -4   3    0.37    2.02
   9  -4  -3   -0.67    1.73
  -9   4   3   -1.68    1.98
   9   4  -3    0.53    1.52
   8  -4  -3   -0.04    1.46
  -8  -4   3   -2.39    1.81
  -8  -4   3    0.14    1.27
   8  -4  -3   -1.67    1.21
   8   4  -3   -0.32    1.25
  -8   4   3   -1.89    1.94
   7  -4  -3    5.65    1.56
  -7  -4   3   10.57    1.94
  -7  -4   3    7.42    2.38
   7  -4  -3    8.93    1.80
  -7   4   3    1.77    1.72
   7   4  -3    8.74    1.76
   6  -4  -3   12.32    1.93
  -6  -4   3   13.02    1.93
   6  -4  -3   10.73    1.76
  -6  -4   3    7.14    2.56
   6   4  -3   11.79    1.74
  -6   4   3   11.07    2.58
  -5  -4   3    8.93    2.54
  -5  -4   3    9.81    1.54
   5  -4  -3   13.52    1.79
   5  -4  -3   11.79    1.63
   5   4  -3   10.28    1.53
  -5   4   3    9.65    2.21
   4  -4  -3   15.10    1.67
   4  -4  -3   13.76    1.71
   4  -4  -3   13.96    1.67
  -4  -4   3   14.04    1.54
  -4  -4   3   13.28    2.68
  -4   4   3   13.92    2.18
   4   4  -3   14.02    1.68
  -3  -4   3   23.08    1.59
  -3  -4   3   18.89    1.77
   3  -4  -3   20.98    1.73
  -3  -4   3   21.17    1.56
   3  -4  -3   21.48    2.05
   3  -4  -3   22.47    1.78
  -3  -4   3   19.47    2.86
  -3   4   3   22.75    2.24
  -3   4   3   18.85    1.58
   3   4  -3   17.56    1.56
  -2  -4   3   26.20    2.98
  -2  -4   3   22.25    1.45
  -2  -4   3   23.63    1.94
   2  -4  -3   23.70    1.74
  -2  -4   3   22.41    1.41
   2  -4  -3   22.67    1.69
   2  -4  -3   17.24    1.92
   2   4  -3   22.88    1.75
  -2   4   3   23.15    2.09
   2   4  -3   20.34    1.77
  -2   4   3   20.75    1.56
  -1  -4   3   41.24    2.85
  -1  -4   3   44.93    2.29
   1  -4  -3   45.66    2.64
  -1  -4   3   44.22    3.24
   1  -4  -3   47.55    3.34
   1  -4  -3   48.85    2.72
  -1  -4   3   47.17    2.31
  -1   4   3   48.20    3.08
  -1   4   3   45.22    2.60
   1   4  -3   39.05    3.09
   0  -4   3   58.10    3.55
   0  -4  -3   58.57    3.16
   0  -4   3   54.77    2.70
   0  -4  -3   57.82    3.94
   0  -4   3   53.72    3.30
   0  -4  -3   53.15    3.08
   0  -4   3   58.21    2.72
   0   4   3   57.91    3.40
   0   4  -3   43.22    3.65
   0   4   3   55.45    2.99
   1  -4   3  108.35    4.98
   1  -4   3  111.47    5.00
   1  -4   3  106.47    5.83
  -1  -4  -3  107.95    6.55
  -1  -4  -3  104.78    5.49
  -1  -4  -3  116.13    5.46
   1  -4   3  110.12    5.78
   1   4   3  104.62    5.99
   1   4   3  106.85    5.30
   1   4   3  114.05    5.38
  -1   4  -3  104.96    6.77
  -2  -4  -3   71.90    5.00
  -2  -4  -3   80.95    4.09
   2  -4   3   77.23    4.10
   2  -4   3   70.56    3.60
   2  -4   3   66.71    4.13
   2  -4   3   73.58    3.63
  -2   4  -3   72.23    5.24
   2   4   3   72.78    4.05
   2   4   3   75.16    4.35
   2   4   3   79.07    4.04
  -3  -4  -3   69.40    5.06
  -3  -4  -3   75.38    4.06
   3  -4   3   66.04    4.14
   3  -4   3   75.09    3.80
   3   4   3   71.72    3.98
  -3   4  -3   61.95    5.15
   3   4   3   70.23    4.09
   3   4   3   69.57    3.87
  -4  -4  -3   54.62    4.54
  -4  -4  -3   59.91    3.63
   4  -4   3   62.76    3.57
   4  -4   3   54.89    3.77
   5  -4   3   33.17    2.81
   5  -4   3   30.45    2.78
  -5  -4  -3   33.31    3.96
  -5   4  -3   32.18    3.87
   5   4   3   14.23    1.92
   6  -4   3   46.99    3.84
   6  -4   3   50.72    3.84
  -6  -4  -3   42.22    4.78
   6   4   3   35.75    3.07
  -6   4  -3   40.75    4.03
  -7  -4  -3   38.71    4.56
   7  -4   3   41.47    3.78
   7  -4   3   39.10    4.05
   7   4   3   32.93    3.18
  -7   4  -3   35.30    4.53
   8  -4   3   42.54    4.63
  -8  -4  -3   47.65    4.59
   8  -4   3   41.23    4.37
  -8   4  -3   45.89    5.46
   9  -4   3   36.56    4.72
  -9  -4  -3   45.79    4.68
   9  -4   3   47.11    4.88
  -9   4  -3   41.02    5.18
 -10  -4  -3   20.08    3.60
  10  -4   3   24.99    3.92
  10  -4   3   19.52    3.87
 -10   4  -3   14.75    3.68
  11  -5  -3   22.72    4.45
 -11  -5   3   23.90    4.13
  11   5  -3   20.80    3.58
 -11   5   3   25.67    4.94
  10  -5  -3   25.27    4.17
 -10  -5   3   34.78    4.87
 -10  -5   3   25.01    3.55
 -10   5   3   29.88    5.15
  10   5  -3   21.54    3.38
  -9  -5   3   22.42    3.16
   9  -5  -3   21.41    3.52
  -9  -5   3   24.68    4.20
  -9   5   3   27.42    4.72
   9   5  -3   19.38    3.01
  -8  -5   3   22.04    2.99
  -8  -5   3   26.66    4.34
   8  -5  -3   16.95    2.94
   8  -5  -3   23.65    3.02
  -8   5   3   20.97    4.02
   8   5  -3   18.20    2.74
   7  -5  -3   54.66    4.28
   7  -5  -3   58.95    4.14
  -7  -5   3   63.28    5.79
  -7  -5   3   53.40    3.96
   7   5  -3   53.52    4.00
  -7   5   3   54.41    5.07
  -6  -5   3   53.42    3.66
   6  -5  -3   57.47    3.97
   6  -5  -3   57.87    3.79
  -6  -5   3   46.03    5.68
  -6   5   3   55.49    5.06
   6   5  -3   52.34    3.76
  -5  -5   3   69.13    5.96
   5  -5  -3   67.48    4.34
   5  -5  -3   72.09    4.21
  -5  -5   3   68.25    4.09
  -5   5   3   78.54    5.63
   5   5  -3   65.43    4.31
  -4  -5   3  103.22    6.11
   4  -5  -3  122.39    5.83
   4  -5  -3  113.44    6.10
  -4  -5   3  107.24    5.59
  -4  -5   3  111.18    7.75
   4   5  -3  104.79    5.94
  -4   5   3  119.21    7.22
  -3  -5   3   52.96    4.81
  -3  -5   3   66.33    3.32
   3  -5  -3   62.91    3.54
  -3  -5   3   51.76    3.71
   3  -5  -3   57.41    4.23
   3  -5  -3   58.24    3.60
  -3   5   3   60.42    4.31
   3   5  -3   58.98    3.64
  -2  -5   3   54.78    4.49
   2  -5  -3   63.46    3.49
  -2  -5   3   59.58    3.77
  -2  -5   3   56.81    3.10
   2  -5  -3   60.88    3.54
  -2   5   3   57.56    3.96
   2   5  -3   55.53    3.44
  -1  -5   3   49.27    3.65
  -1  -5   3   43.88    3.12
   1  -5  -3   44.63    2.86
  -1  -5   3   47.61    2.51
   1  -5  -3   46.55    3.79
   1  -5  -3   47.51    2.95
   1   5  -3   42.27    3.23
  -1   5   3   45.66    3.18
   0  -5   3   45.23    2.45
   0  -5   3   47.79    3.17
   0  -5  -3   48.52    3.94
   0  -5  -3   45.41    2.88
   0  -5   3   45.45    3.30
   0  -5  -3   47.49    2.88
   0   5  -3   46.89    3.77
   0   5   3   49.06    3.30
  -1  -5  -3   50.06    3.09
   1  -5   3   52.42    2.66
  -1  -5  -3   49.01    4.15
  -1  -5  -3   47.63    3.05
   1  -5   3   47.05    3.20
   1  -5   3   48.39    3.17
   1   5   3   53.36    3.06
   1   5   3   52.81    3.35
  -1   5  -3   48.57    4.18
  -2  -5  -3   65.15    3.85
  -2  -5  -3   61.81    4.96
   2  -5   3   65.56    4.11
   2  -5   3   66.62    3.43
  -2  -5  -3   68.07    3.82
   2   5   3   28.91    2.01
  -3  -5  -3   33.92    4.01
   3  -5   3   37.99    2.38
   3  -5   3   38.21    2.81
  -3  -5  -3   34.49    2.62
   3   5   3   14.39    1.61
  -4  -5  -3   31.36    2.96
  -4  -5  -3   21.26    3.41
   4  -5   3   29.25    2.94
   4  -5   3   26.27    2.21
  -4   5  -3   20.39    3.45
   4   5   3   22.72    2.06
  -5  -5  -3    3.46    2.09
   5  -5   3    5.66    1.45
   5  -5   3    6.24    1.68
   5   5   3    6.40    1.52
  -5   5  -3    7.00    2.59
   6  -5   3    1.62    1.44
  -6  -5  -3   -2.01    1.63
   6  -5   3   -0.04    1.33
   6   5   3    1.25    1.24
  -6   5  -3    3.26    2.36
  -7  -5  -3   -1.82    1.76
   7  -5   3    0.41    1.73
   7  -5   3    1.60    1.58
  -7   5  -3    1.27    2.35
   8  -5   3    2.47    1.95
   8  -5   3    2.18    2.11
  -8  -5  -3    3.33    2.25
  -8   5  -3    0.45    2.42
   9  -5   3   -2.78    1.81
   9  -5   3    3.44    2.50
  -9  -5  -3    3.23    2.51
  -9   5  -3    1.51    2.54
  10  -6  -3   -0.11    2.23
 -10  -6   3    1.31    2.48
 -10  -6   3   -0.49    1.91
  10   6  -3    2.21    1.95
 -10   6   3   -4.14    2.69
   9  -6  -3    0.23    1.97
  -9  -6   3    0.39    2.40
  -9  -6   3   -1.51    1.65
   9   6  -3   -0.21    1.54
  -9   6   3   -1.82    1.97
  -8  -6   3    1.29    2.48
  -8  -6   3    2.56    1.66
   8  -6  -3    2.03    1.65
   8   6  -3   -1.43    1.25
  -8   6   3   -3.42    1.52
  -7  -6   3    5.39    2.81
   7  -6  -3   -0.45    1.40
   7  -6  -3   -0.85    1.30
  -7  -6   3    3.64    1.73
  -7   6   3    1.12    2.53
   7   6  -3    0.98    1.33
   6  -6  -3   13.94    2.22
  -6  -6   3   10.22    2.04
  -6  -6   3   13.86    3.55
   6  -6  -3    8.79    1.85
   6   6  -3   10.06    1.92
  -6   6   3   15.25    3.29
  -5  -6   3    4.87    1.41
   5  -6  -3    6.13    1.53
  -5  -6   3    7.30    2.89
   5  -6  -3    4.34    1.45
   5   6  -3    5.94    1.39
  -5   6   3    5.34    2.20
  -4  -6   3    6.14    1.57
  -4  -6   3    6.30    1.38
  -4  -6   3    5.54    2.63
   4  -6  -3    4.96    1.36
   4  -6  -3    5.48    1.43
  -4   6   3    6.83    2.07
   4   6  -3    4.81    1.32
   3  -6  -3   19.34    2.20
   3  -6  -3   20.37    2.20
  -3  -6   3   18.45    2.34
  -3  -6   3   22.01    3.59
  -3  -6   3   20.50    1.78
  -3   6   3   22.54    2.97
   3   6  -3   23.60    2.20
  -2  -6   3    7.67    1.56
   2  -6  -3    3.16    1.92
   2  -6  -3    7.59    1.39
  -2  -6   3    5.95    2.04
   2  -6  -3    7.24    1.36
  -2  -6   3    7.43    1.15
  -2   6   3    7.08    1.68
   2   6  -3   11.76    1.68
  -1  -6   3   30.16    3.04
   1  -6  -3   34.46    2.49
  -1  -6   3   28.61    2.64
   1  -6  -3   29.30    3.75
   1  -6  -3   30.25    2.41
  -1  -6   3   30.50    2.06
  -1   6   3   31.24    2.75
   0  -6  -3   40.63    2.94
   0  -6   3   44.70    3.50
   0  -6  -3   47.30    4.51
   0  -6  -3   46.85    3.05
   0  -6   3   42.76    3.16
   0  -6   3   45.13    2.59
   0   6  -3   40.37    3.55
   0   6   3   41.66    3.08
   1  -6   3   42.78    3.16
   1  -6   3   45.40    2.60
  -1  -6  -3   43.52    4.80
  -1  -6  -3   43.55    3.01
  -1  -6  -3   42.26    3.02
   1   6   3   43.02    2.86
  -1   6  -3   48.04    4.07
  -2  -6  -3   57.39    3.67
  -2  -6  -3   56.00    4.99
   2  -6   3   54.22    3.17
  -2  -6  -3   58.67    3.68
   2  -6   3   59.47    3.99
   2   6   3   63.50    3.68
  -2   6  -3   53.53    5.25
   3  -6   3   38.13    3.20
  -3  -6  -3   38.12    4.65
  -3  -6  -3   39.72    3.10
   3  -6   3   40.15    2.60
   3   6   3   44.29    3.05
  -3   6  -3   43.51    4.66
  -4  -6  -3   26.83    4.00
   4  -6   3   31.16    2.98
   4  -6   3   30.94    2.44
  -4   6  -3   35.59    4.85
   4   6   3   30.56    2.63
  -5  -6  -3   25.55    3.95
   5  -6   3   26.22    2.66
   5  -6   3   29.51    3.34
  -5   6  -3   26.63    4.60
   6  -6   3   22.46    3.17
   6  -6   3   22.95    2.83
  -6  -6  -3   25.40    3.99
  -6   6  -3   29.65    4.94
   7  -6   3   26.93    3.65
  -7  -6  -3   21.72    3.96
   7  -6   3   30.25    3.51
  -7   6  -3   32.43    5.16
   8  -6   3   32.58    3.97
   8  -6   3   34.06    4.41
  -8  -6  -3   25.80    4.42
  -8   6  -3   35.40    5.51
  -8  -7   3   12.97    2.62
   8  -7  -3   20.15    3.25
  -8  -7   3   16.30    3.93
   8   7  -3   12.01    2.51
  -8   7   3    7.93    3.83
  -7  -7   3   34.45    3.70
   7  -7  -3   37.83    3.86
   7  -7  -3   32.21    3.84
  -7  -7   3   38.77    5.72
  -7   7   3   38.43    5.36
   7   7  -3   23.59    3.15
   6  -7  -3   28.48    3.26
  -6  -7   3   43.80    5.97
  -6  -7   3   35.15    3.52
   6  -7  -3   39.58    3.52
   6   7  -3   38.26    3.47
  -6   7   3   40.92    5.39
  -5  -7   3   41.16    3.36
   5  -7  -3   48.05    3.70
  -5  -7   3   36.54    5.40
   5  -7  -3   42.70    3.46
  -5   7   3   45.92    5.16
   5   7  -3   38.77    3.37
  -4  -7   3   61.73    4.57
  -4  -7   3   66.68    4.06
   4  -7  -3   63.74    4.21
   4  -7  -3   65.67    4.43
  -4  -7   3   64.81    6.16
   4   7  -3   66.02    4.53
  -4   7   3   73.55    5.57
   3  -7  -3   39.06    3.04
   3  -7  -3   41.28    3.18
  -3  -7   3   38.49    4.94
  -3  -7   3   29.32    3.38
  -3  -7   3   41.18    2.81
   3   7  -3   37.79    3.12
  -3   7   3   39.64    3.65
   2  -7  -3   30.62    2.63
  -2  -7   3   28.74    2.26
   2  -7  -3   27.34    2.76
  -2  -7   3   26.61    3.85
  -2  -7   3   27.76    3.09
  -2   7   3   36.57    3.28
   2   7  -3   28.92    2.75
  -1  -7   3   24.40    2.86
   1  -7  -3   26.00    2.43
   1  -7  -3   27.17    2.72
  -1  -7   3   27.46    2.11
   1  -7  -3   23.26    3.98
  -1   7   3   27.83    3.30
   1   7  -3   33.29    2.79
   0  -7   3   25.62    2.91
   0  -7  -3   25.71    2.49
   0  -7   3   27.08    2.02
   0  -7  -3   20.39    3.73
   0  -7  -3   28.03    2.50
   0   7   3   27.68    2.39
  -1  -7  -3   32.15    2.73
   1  -7   3   27.92    2.14
   1  -7   3   29.09    2.72
  -1  -7  -3   26.24    4.28
  -1  -7  -3   29.35    2.67
   1   7   3   33.40    2.67
  -2  -7  -3   24.94    4.10
   2  -7   3   42.98    3.48
   2  -7   3   38.92    2.59
  -2  -7  -3   35.88    3.06
  -2  -7  -3   36.53    3.09
   2   7   3   43.09    3.09
  -2   7  -3   35.96    4.68
  -3  -7  -3   21.94    3.92
   3  -7   3   22.75    2.95
   3  -7   3   20.96    2.13
  -3  -7  -3   25.32    2.86
   3   7   3   21.43    2.57
  -3   7  -3   20.82    3.83
   4  -7   3   13.89    1.92
  -4  -7  -3   14.29    3.43
   4  -7   3   17.01    2.61
  -4   7  -3   15.65    3.80
   5  -7   3    4.57    1.54
   5  -7   3    2.44    1.64
  -5  -7  -3    2.01    2.41
  -5   7  -3   -0.66    2.78
   6  -7   3   -0.54    1.39
  -6  -7  -3    3.61    2.48
   6  -7   3    0.09    1.59
  -6   7  -3    1.48    2.98
   7  -7   3    0.72    1.74
   7  -7   3    1.60    1.89
  -7  -7  -3    2.30    2.43
  -7   7  -3   -1.20    3.00
   7  -8  -3    2.66    1.83
  -7  -8   3    7.57    3.26
  -7  -8   3    1.94    1.86
   7   8  -3    1.40    1.64
  -7   8   3    0.18    2.82
  -6  -8   3    1.85    2.76
   6  -8  -3    4.35    1.87
   6  -8  -3    3.93    1.83
  -6  -8   3    3.61    1.95
  -6   8   3    1.56    2.69
   6   8  -3    4.65    1.78
  -5  -8   3    3.01    2.75
   5  -8  -3    2.46    1.56
  -5  -8   3    3.57    1.73
   5  -8  -3    4.25    1.85
  -5   8   3    4.40    2.55
   5   8  -3    2.28    1.49
   4  -8  -3    4.78    1.68
  -4  -8   3    5.22    1.70
  -4  -8   3    7.38    3.21
  -4  -8   3    3.27    1.47
   4  -8  -3    6.35    1.74
   4   8  -3    7.10    1.68
  -4   8   3    6.62    2.21
  -3  -8   3    7.20    1.96
  -3  -8   3   10.51    2.99
   3  -8  -3    7.44    1.77
   3  -8  -3    7.04    1.85
  -3  -8   3    8.94    1.75
   3   8  -3    7.63    1.84
  -3   8   3   10.40    2.35
   2  -8  -3    6.11    1.68
   2  -8  -3    6.09    1.70
  -2  -8   3    4.96    1.81
  -2  -8   3    9.20    1.62
   2   8  -3    9.55    1.96
   1  -8  -3   17.28    2.40
  -1  -8   3   11.51    2.31
   1  -8  -3   11.16    1.95
  -1  -8   3   15.26    1.88
   1   8  -3   18.15    2.50
   0  -8  -3   20.51    3.86
   0  -8  -3   22.25    2.61
   0  -8   3   23.71    3.11
   0  -8   3   21.94    2.25
   0  -8  -3   20.26    2.68
   0   8   3   22.07    2.43
  -1  -8  -3   27.63    3.09
   1  -8   3   34.95    3.65
   1  -8   3   29.82    2.45
  -1  -8  -3   31.82    3.28
  -1  -8  -3   24.96    4.41
   1   8   3   32.76    2.90
   2  -8   3   26.10    2.33
   2  -8   3   31.44    3.62
  -2  -8  -3   25.06    3.03
  -2  -8  -3   28.58    4.54
   3  -8   3   30.60    3.75
   3  -8   3   26.82    2.46
  -3  -8  -3   32.84    4.95
   4  -8   3   19.12    2.35
   4  -8   3   23.15    3.31
  -4  -8  -3   16.18    3.70
  -4   8  -3   15.44    4.04
   5  -8   3   14.02    2.23
  -5  -8  -3   19.53    3.91
   5  -8   3   12.78    2.78
  -5   8  -3   14.36    4.32
   3  -9  -3   20.02    2.90
  -3  -9   3   17.08    2.42
   3  -9  -3   23.93    3.06
  -3  -9   3   25.06    3.45
   3   9  -3   24.00    3.21
   2  -9  -3   17.35    2.58
  -2  -9   3   18.57    2.43
  -2  -9   3   16.21    2.92
   2  -9  -3   25.62    3.17
   2   9  -3   17.86    2.74
   1  -9  -3    9.58    2.04
  -1  -9   3   16.17    2.15
  -1  -9   3   13.29    2.69
   1  -9  -3    8.69    2.21
   1   9  -3   10.04    2.22
  -1   9   3    8.84    1.85
   0  -9  -3   18.77    2.87
   0  -9   3   14.53    2.13
   0  -9   3   15.69    2.86
   0   9  -3   23.09    3.08
   1  -9   3   14.22    2.08
   1  -9   3   16.65    2.76
  -2  -9  -3   20.58    4.25
   2  -9   3   19.11    2.32
   2  -9   3   19.91    3.14
  13   0  -4    6.97    3.24
  12   0  -4   10.39    2.90
  11   0  -4    0.96    2.34
  10   0  -4    8.21    2.75
   9   0  -4   -0.74    1.70
  -9   0   4   -0.61    1.03
  -9   0   4    1.03    1.79
  -8   0   4    2.30    1.70
   8   0  -4   -2.18    1.41
  -8   0   4    1.41    1.39
  -7   0   4   -0.45    1.05
  -7   0   4    0.50    1.28
   7   0  -4    1.82    1.51
   6   0  -4   -0.29    0.83
  -6   0   4   -1.49    0.82
  -6   0   4    0.62    1.07
   6   0  -4   -0.05    0.69
  -5   0   4   12.08    1.54
   5   0  -4    8.54    1.62
  -5   0   4   10.27    1.71
  -5   0   4    9.84    1.48
   5   0  -4    9.55    1.20
  -4   0   4    1.38    0.94
  -4   0   4    1.24    0.72
  -4   0   4    1.91    0.82
   4   0  -4    2.67    1.01
   3   0  -4   21.24    1.68
  -3   0   4   19.66    1.32
  -3   0   4   20.80    1.72
  -3   0   4   19.81    1.40
  -3   0   4   20.66    1.72
   2   0  -4   38.91    2.21
  -2   0   4   38.87    1.98
  -2   0   4   39.32    2.02
  -2   0   4   37.76    2.56
   2   0  -4   39.29    2.46
   1   0  -4   74.09    3.33
  -1   0   4   67.29    4.02
  -1   0   4   70.53    3.22
   1   0  -4   69.46    3.87
  -1   0   4   64.96    3.19
   0   0   4   79.05    3.76
   0   0  -4   79.11    4.46
   0   0   4   80.99    4.71
   0   0   4   87.08    3.82
   0   0   4   84.67    3.82
  -1   0  -4   30.79    2.18
   1   0   4   38.48    1.97
   1   0   4   32.37    1.83
   1   0   4   32.69    1.75
   1   0   4   37.61    2.54
   2   0   4   63.02    4.13
   2   0   4   66.67    3.35
  -2   0  -4   64.94    3.81
   2   0   4   62.46    3.30
   2   0   4   74.71    3.52
   3   0   4    9.44    1.21
  -3   0  -4   10.90    1.43
   3   0   4   10.85    1.19
   3   0   4    8.02    1.51
   4   0   4   49.95    3.99
   4   0   4   61.41    3.59
   4   0   4   61.18    3.53
  -4   0  -4   62.30    3.78
   5   0   4   41.22    3.42
  -5   0  -4   40.82    3.08
   5   0   4   36.34    2.85
   6   0   4   36.14    3.04
   6   0   4   32.88    3.07
  -6   0  -4   36.04    3.06
   6   0   4   32.03    3.30
   7   0   4   41.03    4.08
  -7   0  -4   52.54    4.06
   7   0   4   51.93    4.13
   7   0   4   45.23    3.76
   8   0   4   37.19    3.84
  -8   0  -4   36.69    3.63
   8   0   4   38.59    4.17
   9   0   4   17.39    3.39
   9   0   4   22.87    3.22
  -9   0  -4   19.79    3.22
  13  -1  -4   15.64    4.06
  13   1  -4   15.61    3.86
  12  -1  -4   14.47    3.83
  12   1  -4   18.11    3.40
  11  -1  -4   17.25    3.69
 -11   1   4   21.28    3.68
  11   1  -4   18.64    3.52
 -10  -1   4   38.73    4.61
  10  -1  -4   34.14    4.55
 -10  -1   4   33.37    4.07
 -10   1   4   34.73    4.27
  10   1  -4   25.26    3.75
   9  -1  -4   59.14    5.29
  -9  -1   4   73.85    5.14
  -9  -1   4   61.09    5.21
   9   1  -4   56.47    4.74
  -9   1   4   60.77    5.10
  -8  -1   4   86.60    5.92
  -8  -1   4  100.73    6.78
   8  -1  -4   90.66    6.42
  -8  -1   4  109.53    6.18
  -8   1   4   92.38    5.52
   8   1  -4   83.90    5.73
  -8   1   4   85.52    5.63
  -8   1   4   88.98    6.30
  -7  -1   4  145.90    8.99
   7  -1  -4  148.30    8.55
  -7  -1   4  149.89    8.47
  -7  -1   4  158.37    8.13
  -7   1   4  145.09    7.86
  -7   1   4  144.41    7.30
  -7   1   4  138.64    8.46
   7   1  -4  119.10    7.51
  -6  -1   4  184.67    8.78
  -6  -1   4  175.14    9.38
   6  -1  -4  166.59    8.22
  -6  -1   4  170.70    9.85
   6  -1  -4  166.42    9.16
  -6   1   4  176.73    8.41
   6   1  -4  157.87    8.86
  -6   1   4  170.55    9.25
  -6   1   4  181.80    9.94
  -5  -1   4  127.95    7.28
  -5  -1   4  127.72    6.36
   5  -1  -4  117.97    5.90
  -5  -1   4  123.81    6.74
   5  -1  -4  116.75    6.62
  -5   1   4  119.41    6.63
   5   1  -4  113.16    6.30
  -5   1   4  123.18    7.09
  -5   1   4  124.15    5.98
  -4  -1   4  192.74    8.72
   4  -1  -4  190.75    9.59
  -4  -1   4  195.39    9.81
  -4  -1   4  197.93   10.06
  -4  -1   4  167.04    8.31
   4  -1  -4  176.26    9.13
   4  -1  -4  185.54    8.41
  -4   1   4  193.49    8.66
   4   1  -4  192.15    9.24
  -4   1   4  181.72   10.21
  -3  -1   4   66.11    4.14
  -3  -1   4   73.06    3.48
   3  -1  -4   69.04    3.62
   3  -1  -4   67.25    3.32
   3  -1  -4   63.56    3.79
  -3  -1   4   62.63    3.18
  -3   1   4   60.70    3.94
  -3   1   4   63.92    3.27
   3   1  -4   67.97    3.48
  -2  -1   4  148.98    7.72
   2  -1  -4  141.54    6.71
  -2  -1   4  140.71    6.26
  -2  -1   4  144.23    6.33
   2  -1  -4  149.00    7.49
   2  -1  -4  140.95    6.45
  -2  -1   4  142.78    7.64
  -2   1   4  139.22    7.74
  -2   1   4  143.03    6.49
   2   1  -4  148.57    6.82
  -1  -1   4  112.22    4.99
  -1  -1   4  112.68    4.99
  -1  -1   4  120.39    6.19
  -1  -1   4  115.79    5.50
  -1  -1   4  125.95    6.39
   1  -1  -4  113.65    5.21
   1  -1  -4  110.45    6.08
   1   1  -4  122.88    5.45
  -1   1   4  111.73    6.31
  -1   1   4  109.99    5.23
   0  -1  -4  218.45   11.30
   0  -1   4  232.27   11.76
   0  -1   4  228.07    9.57
   0  -1   4  217.25   10.28
   0  -1   4  222.72    9.54
   0   1  -4  220.64   10.90
   0   1   4  219.23   11.37
   0   1   4  212.98    9.52
   1  -1   4  204.01    8.26
   1  -1   4  180.38    8.66
   1  -1   4  185.08    8.11
  -1  -1  -4  172.54    9.53
   1  -1   4  189.33   10.05
   1   1   4  184.32    8.36
   1   1   4  191.56    9.99
   1   1   4  188.08    8.52
  -1   1  -4  188.48    9.48
   2  -1   4  100.82    4.75
   2  -1   4  109.59    4.99
   2  -1   4   95.40    4.95
   2  -1   4  101.05    5.98
  -2  -1  -4  102.58    5.62
  -2  -1  -4   95.45    4.85
   2   1   4  102.20    4.74
  -2   1  -4   94.99    5.17
   2   1   4   98.62    5.62
   2   1   4   95.27    4.77
   3  -1   4   77.53    4.15
  -3  -1  -4   85.09    4.87
   3  -1   4   79.37    5.17
   3  -1   4   83.58    4.44
  -3  -1  -4   79.12    4.23
  -3   1  -4   83.91    4.51
   3   1   4   71.43    4.27
   3   1   4   86.86    4.99
   3   1   4   84.64    4.23
   4  -1   4   30.45    2.49
   4  -1   4   35.97    2.39
   4  -1   4   33.71    3.10
  -4  -1  -4   36.60    2.90
  -4   1  -4   34.67    2.35
   4   1   4   33.61    2.73
   4   1   4   28.97    2.41
   4   1   4   33.58    2.44
  -5  -1  -4   23.49    2.65
   5  -1   4   23.83    2.41
   5  -1   4   21.77    2.92
   5  -1   4   19.05    2.32
  -5   1  -4   20.86    2.05
   5   1   4   24.48    2.47
   5   1   4   23.37    2.42
   5   1   4   20.07    2.45
   6  -1   4   22.31    3.09
   6  -1   4   28.56    3.03
   6  -1   4   23.29    2.78
  -6  -1  -4   27.65    3.06
   6   1   4   23.86    2.67
  -6   1  -4   24.47    2.99
   6   1   4   22.78    2.97
   7  -1   4   30.58    3.46
   7  -1   4   39.64    3.72
  -7  -1  -4   30.12    3.15
  -7   1  -4   36.38    3.54
   7   1   4   30.36    3.29
   7   1   4   33.02    3.42
   7   1   4   34.48    3.74
  -8  -1  -4   10.65    2.09
   8  -1   4   14.82    2.65
   8  -1   4   15.03    2.87
   8   1   4   13.12    2.72
   8   1   4   10.94    2.36
  -8   1  -4   18.35    2.91
   9  -1   4   13.25    2.92
   9  -1   4   14.99    2.79
  -9   1  -4   17.41    3.23
  10  -1   4   13.73    2.92
 -10   1  -4    8.96    2.59
  12  -2  -4    7.38    3.34
 -12   2   4   11.03    3.26
  12   2  -4    7.85    2.90
  11  -2  -4    5.82    3.00
 -11  -2   4    8.65    2.67
  11   2  -4    2.68    2.25
 -11   2   4    6.09    2.75
 -10  -2   4    4.74    2.35
 -10  -2   4    5.85    2.15
  10  -2  -4   -0.13    2.16
 -10   2   4    1.16    2.22
  10   2  -4    1.24    1.75
  -9  -2   4    2.55    2.02
   9  -2  -4   -2.49    1.79
  -9  -2   4    0.20    1.60
  -9   2   4    0.07    2.04
   9   2  -4    1.58    1.56
   8  -2  -4    0.78    1.65
  -8  -2   4    0.80    1.42
  -8  -2   4   -1.34    1.64
   8   2  -4    0.12    1.26
  -8   2   4   -0.37    1.64
   7  -2  -4   -1.47    1.27
  -7  -2   4   -0.38    1.19
   7  -2  -4    0.10    0.77
  -7  -2   4    0.47    1.20
  -7   2   4    0.11    1.48
  -7   2   4    0.96    1.08
   7   2  -4   -0.61    1.00
   6  -2  -4    3.88    1.39
  -6  -2   4    4.41    1.42
   6  -2  -4    5.20    1.10
   6  -2  -4    4.35    1.11
  -6  -2   4    0.39    1.51
  -6  -2   4    3.39    0.87
   6   2  -4    3.67    1.20
  -6   2   4    4.57    1.19
  -6   2   4    2.54    1.53
   5  -2  -4    1.09    0.74
  -5  -2   4    1.16    0.98
   5  -2  -4    1.78    0.94
   5  -2  -4    1.01    0.62
  -5  -2   4    0.97    0.59
  -5  -2   4   -0.17    1.14
   5   2  -4    1.08    0.80
  -5   2   4    0.54    1.06
  -5   2   4    1.21    0.75
  -4  -2   4    2.00    1.08
  -4  -2   4    1.14    0.88
   4  -2  -4    1.96    0.64
  -4  -2   4    0.25    0.53
  -4  -2   4    1.10    0.59
   4  -2  -4    1.44    0.70
   4  -2  -4    1.20    0.69
  -4   2   4    1.41    0.69
   4   2  -4    1.83    0.74
  -4   2   4    1.71    1.03
   3  -2  -4    4.54    0.92
  -3  -2   4    2.50    0.63
  -3  -2   4    6.08    0.96
  -3  -2   4    4.29    1.18
   3  -2  -4    2.95    0.73
  -3  -2   4    3.88    0.88
   3  -2  -4    3.86    0.74
   3   2  -4    2.42    0.69
  -3   2   4    4.45    1.15
  -3   2   4    4.83    0.80
   2  -2  -4   77.14    3.72
  -2  -2   4   79.35    4.57
  -2  -2   4   70.25    3.43
   2  -2  -4   80.55    4.33
   2  -2  -4   82.53    3.79
  -2  -2   4   76.91    4.00
  -2  -2   4   67.68    3.54
   2   2  -4   85.13    4.19
  -2   2   4   81.14    4.03
  -2   2   4   80.13    4.86
   1  -2  -4   25.40    1.37
  -1  -2   4   24.22    1.11
   1  -2  -4   26.59    1.66
  -1  -2   4   24.90    1.98
  -1  -2   4   25.24    1.17
  -1  -2   4   25.30    1.68
  -1  -2   4   27.24    2.09
   1  -2  -4   27.39    2.00
  -1   2   4   24.88    1.64
  -1   2   4   26.05    2.04
   0  -2   4   67.74    4.14
   0  -2  -4   64.58    3.30
   0  -2   4   64.69    3.72
   0  -2  -4   63.65    3.07
   0  -2   4   67.76    3.45
   0  -2   4   62.84    2.81
   0  -2  -4   62.67    3.86
   0   2   4   66.33    3.40
   0   2   4   68.96    3.20
   0   2   4   66.88    4.06
   1  -2   4   54.01    2.72
   1  -2   4   52.88    2.80
  -1  -2  -4   56.25    2.99
   1  -2   4   56.60    3.05
   1  -2   4   58.92    3.87
  -1  -2  -4   55.46    3.55
   1   2   4   56.23    3.00
   1   2   4   56.45    2.84
  -1   2  -4   59.54    3.18
   1   2   4   52.05    3.47
   2  -2   4   19.75    1.70
   2  -2   4   19.63    1.60
  -2  -2  -4   22.17    2.10
  -2  -2  -4   23.50    1.73
   2  -2   4   21.24    2.16
   2  -2   4   24.04    1.69
  -2   2  -4   23.57    1.56
   2   2   4   20.85    1.59
   2   2   4   23.98    1.93
   2   2   4   21.85    1.70
   3  -2   4   17.98    2.55
  -3  -2  -4   18.61    1.72
   3  -2   4   21.52    1.94
   3  -2   4   18.07    1.87
   3  -2   4   22.23    1.77
  -3  -2  -4   23.02    2.49
   3   2   4   18.56    1.59
   3   2   4   17.78    1.71
  -3   2  -4   19.83    1.45
   3   2   4   19.21    1.82
   4  -2   4   51.22    3.20
  -4  -2  -4   46.58    3.65
   4  -2   4   52.53    3.36
   4  -2   4   47.48    3.90
   4   2   4   48.93    3.24
   4   2   4   50.72    3.44
  -4   2  -4   52.78    3.10
   4   2   4   55.23    3.61
  -5  -2  -4   29.75    3.27
   5  -2   4   21.50    3.19
   5  -2   4   28.82    2.47
   5  -2   4   27.52    2.88
   5   2   4   27.43    2.85
  -5   2  -4   23.93    3.16
   5   2   4   28.30    2.55
   5   2   4   28.28    2.53
   6  -2   4   48.04    3.57
   6  -2   4   43.03    3.57
  -6  -2  -4   42.12    3.81
   6   2   4   45.07    3.75
  -6   2  -4   41.93    3.96
   6   2   4   43.99    3.40
   6   2   4   43.75    3.50
  -7  -2  -4   38.48    3.91
   7  -2   4   42.35    4.07
   7  -2   4   36.52    3.51
   7   2   4   38.85    3.66
   7   2   4   38.43    3.53
  -7   2  -4   47.34    4.22
   8  -2   4   26.79    3.48
  -8  -2  -4   26.05    3.43
   8  -2   4   30.28    3.58
  -8   2  -4   32.78    4.20
   9  -2   4   29.01    3.79
   9  -2   4   25.92    3.79
  -9   2  -4   23.80    3.67
  10  -2   4   18.55    3.31
  10  -2   4   17.70    3.51
 -10   2  -4   19.90    3.63
  12  -3  -4   12.19    3.81
 -12  -3   4   12.83    3.22
  12   3  -4   11.32    3.12
 -12   3   4   13.47    3.60
  11  -3  -4   17.16    3.83
 -11  -3   4   18.39    3.17
 -11  -3   4   22.52    3.90
  11   3  -4   11.84    2.97
 -11   3   4   27.90    4.47
  10  -3  -4   27.94    4.30
 -10  -3   4   29.99    4.40
 -10  -3   4   26.75    3.61
  10   3  -4   16.76    3.00
 -10   3   4   30.50    4.57
  -9  -3   4   55.41    5.35
   9  -3  -4   41.04    4.83
  -9  -3   4   48.34    4.14
  -9   3   4   37.25    4.93
   9   3  -4   30.85    3.57
  -8  -3   4  102.69    7.36
   8  -3  -4   99.24    6.50
  -8  -3   4   95.88    5.96
  -8   3   4   99.26    7.01
   8   3  -4   80.33    5.52
  -7  -3   4   97.64    6.87
   7  -3  -4   88.81    5.70
   7  -3  -4   89.56    5.26
  -7  -3   4   89.90    5.46
   7   3  -4   84.93    5.29
  -7   3   4   88.95    6.33
   6  -3  -4  134.82    7.10
  -6  -3   4  125.38    8.37
   6  -3  -4  138.35    6.73
  -6  -3   4  125.06    6.82
   6  -3  -4  127.48    7.10
   6   3  -4  118.94    6.70
  -6   3   4  124.68    6.41
  -6   3   4  135.40    8.16
   5  -3  -4  127.99    6.34
   5  -3  -4  127.65    6.68
  -5  -3   4  131.42    8.08
   5  -3  -4  129.88    6.87
  -5  -3   4  120.66    6.37
  -5   3   4  131.06    7.91
  -5   3   4  129.89    6.38
   5   3  -4  125.38    6.73
   4  -3  -4   78.74    4.59
  -4  -3   4   80.89    4.49
  -4  -3   4   79.93    4.22
   4  -3  -4   81.71    4.20
   4  -3  -4   81.03    4.35
  -4  -3   4   77.93    4.21
  -4  -3   4   83.18    5.54
  -4   3   4   83.67    4.42
   4   3  -4   87.52    4.69
  -4   3   4   86.14    5.51
   3  -3  -4   85.95    4.96
  -3  -3   4   91.90    4.32
   3  -3  -4   88.07    4.51
  -3  -3   4   82.43    4.74
  -3  -3   4   88.98    5.58
   3  -3  -4   87.87    4.45
  -3  -3   4   90.22    5.02
  -3  -3   4   87.57    4.26
   3   3  -4   82.28    4.48
  -3   3   4   87.06    5.22
  -3   3   4   84.40    4.30
   2  -3  -4  110.80    5.36
  -2  -3   4  107.61    4.90
  -2  -3   4  116.16    4.94
  -2  -3   4  109.89    6.23
   2  -3  -4  110.40    6.07
  -2  -3   4  108.58    6.32
   2  -3  -4  102.33    5.24
  -2  -3   4  109.58    5.67
  -2   3   4  112.77    5.28
   2   3  -4  110.66    5.51
  -2   3   4  102.80    6.25
  -1  -3   4   58.55    2.66
   1  -3  -4   60.41    3.08
   1  -3  -4   60.43    3.22
  -1  -3   4   64.07    3.45
  -1  -3   4   60.08    3.75
   1  -3  -4   58.51    3.76
  -1   3   4   60.76    3.24
  -1   3   4   61.11    3.85
   0  -3   4  236.24   11.12
   0  -3  -4  242.23   10.78
   0  -3   4  220.59    9.90
   0  -3   4  239.65   12.69
   0  -3  -4  230.42   12.10
   0  -3  -4  233.49   10.47
   0   3   4  227.43   12.56
   0   3   4  237.65   10.74
   0   3   4  253.67   11.04
   1  -3   4  103.12    6.51
  -1  -3  -4  109.71    5.21
   1  -3   4  104.03    5.43
   1  -3   4  100.92    4.73
  -1  -3  -4  102.92    6.09
   1  -3   4  108.97    5.63
   1   3   4  103.29    6.01
   1   3   4  114.18    5.20
   1   3   4  101.80    5.21
   2  -3   4   75.26    4.19
  -2  -3  -4   77.56    4.07
   2  -3   4   74.04    3.78
  -2  -3  -4   77.89    4.87
   2  -3   4   74.83    3.80
   2  -3   4   72.81    5.24
   2   3   4   77.18    4.11
   2   3   4   75.14    4.56
   2   3   4   77.24    4.01
  -2   3  -4   78.97    4.13
   3  -3   4   83.52    4.50
   3  -3   4   82.90    5.94
   3  -3   4   86.00    4.74
  -3  -3  -4   85.29    5.48
  -3  -3  -4   88.26    4.64
   3   3   4   86.23    4.56
   3   3   4   83.68    5.00
   3   3   4   84.02    4.49
  -4  -3  -4   16.94    2.52
   4  -3   4   16.86    1.93
   4  -3   4   12.34    1.83
   4   3   4   11.72    1.67
   4   3   4   14.96    1.82
  -4   3  -4   15.12    2.58
   4   3   4   13.43    1.84
  -5  -3  -4   21.41    3.10
   5  -3   4   27.02    2.84
   5  -3   4   23.00    2.55
   5   3   4   23.12    2.57
  -5   3  -4   22.95    3.12
   5   3   4   20.09    2.38
   5   3   4   19.66    2.08
   6  -3   4   21.61    2.68
   6  -3   4   25.28    2.95
  -6  -3  -4   20.56    3.20
  -6   3  -4   26.80    3.63
  -7  -3  -4   17.53    3.09
   7  -3   4   22.29    3.03
   7  -3   4   27.50    3.20
  -7   3  -4   22.52    3.52
  -8  -3  -4   20.20    3.26
   8  -3   4   19.54    3.12
   8  -3   4   17.00    3.05
  -8   3  -4   16.93    3.34
   9  -3   4    8.91    2.52
   9  -3   4   10.26    2.97
  -9  -3  -4    8.23    2.55
  -9   3  -4   12.76    3.11
  10  -3   4    8.12    2.80
  10  -3   4    7.26    2.78
 -10   3  -4    6.55    2.77
 -11  -4   4    5.73    2.77
 -11  -4   4    8.16    2.63
  11  -4  -4    4.07    2.84
  11   4  -4    1.82    2.18
 -11   4   4    4.16    3.12
 -10  -4   4    5.70    2.57
  10  -4  -4    0.45    2.19
 -10  -4   4    4.24    2.04
  10   4  -4    1.19    1.44
 -10   4   4    2.14    2.68
  -9  -4   4   -0.29    1.56
   9  -4  -4    3.16    1.97
  -9  -4   4   -0.01    2.06
  -9   4   4   -0.41    2.22
   9   4  -4    0.98    1.50
  -8  -4   4    0.14    1.39
   8  -4  -4    0.79    1.22
  -8  -4   4    0.96    2.06
   8   4  -4    1.35    1.37
  -8   4   4   -2.09    1.81
   7  -4  -4   -0.31    1.17
  -7  -4   4   -0.20    1.90
   7  -4  -4    0.53    1.19
  -7  -4   4    1.53    1.30
   7   4  -4   -0.65    1.01
  -7   4   4   -0.79    1.68
   6  -4  -4    3.14    1.19
   6  -4  -4    2.39    1.22
  -6  -4   4    1.75    1.72
  -6  -4   4    2.90    1.28
  -6   4   4    4.86    1.76
   6   4  -4    1.49    1.10
  -5  -4   4    0.55    1.79
  -5  -4   4    1.42    0.99
   5  -4  -4   -0.45    0.79
   5  -4  -4    1.23    1.04
   5  -4  -4    0.96    0.89
  -5   4   4    1.27    1.46
   5   4  -4    0.92    0.72
   4  -4  -4    1.69    0.83
  -4  -4   4    2.86    0.94
  -4  -4   4    1.47    1.32
   4  -4  -4    2.50    1.10
   4  -4  -4    2.12    0.84
  -4  -4   4   -0.19    0.63
   4   4  -4    1.30    0.68
  -4   4   4    0.52    0.75
  -4   4   4    1.97    1.28
  -3  -4   4    2.77    0.89
   3  -4  -4    0.47    0.78
  -3  -4   4    3.19    0.70
   3  -4  -4    2.25    0.74
  -3  -4   4    3.08    0.72
  -3  -4   4    2.63    1.51
   3  -4  -4    3.16    0.92
   3   4  -4    3.00    0.81
  -3   4   4    3.68    0.92
  -3   4   4    3.87    1.25
   2  -4  -4   42.83    2.67
   2  -4  -4   42.39    3.14
  -2  -4   4   36.00    3.10
  -2  -4   4   44.78    2.22
   2  -4  -4   42.66    2.58
  -2  -4   4   43.85    2.24
  -2  -4   4   44.66    3.40
  -2  -4   4   46.08    2.95
   2   4  -4   43.28    2.75
  -2   4   4   42.26    3.18
  -2   4   4   44.82    2.68
  -1  -4   4   20.42    1.83
   1  -4  -4   23.85    2.56
  -1  -4   4   14.75    2.22
  -1  -4   4   22.98    2.44
  -1  -4   4   20.71    1.20
   1  -4  -4   19.44    1.50
  -1  -4   4   21.04    1.19
   1  -4  -4   21.59    1.71
  -1   4   4   18.45    1.52
  -1   4   4   20.49    1.92
   0  -4  -4   36.46    2.11
   0  -4  -4   36.02    2.32
   0  -4   4   31.83    2.39
   0  -4   4   31.24    1.68
   0  -4  -4   34.93    2.93
   0  -4   4   33.66    1.72
   0  -4   4   29.44    3.05
   0  -4   4   34.50    2.53
   0   4   4   34.51    2.27
   0   4  -4   26.84    2.80
   0   4   4   33.69    2.51
   0   4   4   34.25    1.98
   1  -4   4   39.68    2.08
  -1  -4  -4   38.70    3.32
  -1  -4  -4   42.10    2.47
   1  -4   4   39.77    2.64
   1  -4   4   39.94    2.10
  -1  -4  -4   45.06    2.71
   1  -4   4   38.07    2.72
   1   4   4   38.83    2.79
   1   4   4   42.40    2.34
  -1   4  -4   35.69    3.43
   1   4   4   36.79    2.54
  -2  -4  -4   15.80    2.34
  -2  -4  -4   17.26    1.92
   2  -4   4   15.15    1.30
   2  -4   4   19.61    1.51
   2  -4   4   17.45    1.95
   2   4   4   16.39    1.79
   2   4   4   15.61    1.42
   2   4   4   15.59    1.65
  -2   4  -4   15.35    2.65
  -3  -4  -4   18.20    2.78
  -3  -4  -4   19.68    2.22
   3  -4   4   15.94    1.67
   3  -4   4   19.46    2.15
   3   4   4   14.95    1.73
   3   4   4   15.79    1.94
  -3   4  -4   11.37    2.51
   3   4   4   16.84    1.70
  -4  -4  -4   34.77    3.99
   4  -4   4   32.73    2.63
   4  -4   4   39.91    2.83
   4   4   4   33.12    2.55
  -4   4  -4   39.13    3.92
   5  -4   4   25.68    2.77
  -5  -4  -4   19.52    3.25
   5  -4   4   19.30    2.43
  -5   4  -4   18.38    3.17
   6  -4   4   31.88    3.32
   6  -4   4   35.74    3.26
  -6  -4  -4   30.40    4.07
  -6   4  -4   39.04    4.80
   7  -4   4   32.86    3.79
   7  -4   4   33.91    3.77
  -7  -4  -4   28.46    4.01
  -7   4  -4   36.84    4.68
   8  -4   4   26.23    3.68
   8  -4   4   30.37    3.96
  -8  -4  -4   28.55    4.14
  -8   4  -4   26.40    4.28
   9  -4   4   20.62    3.59
   9  -4   4   16.28    3.35
  -9  -4  -4   18.47    3.69
  -9   4  -4   19.05    3.85
  11  -5  -4   14.46    3.61
 -11  -5   4    8.39    2.63
 -11  -5   4   15.41    3.70
 -11   5   4   10.75    3.87
  11   5  -4    7.60    2.67
  10  -5  -4   16.51    3.51
 -10  -5   4   16.75    3.04
 -10  -5   4   20.16    3.96
  10   5  -4   12.37    2.78
 -10   5   4   16.65    4.33
   9  -5  -4   38.83    4.34
  -9  -5   4   38.09    5.23
  -9  -5   4   26.62    3.59
  -9   5   4   33.95    5.18
   9   5  -4   30.50    3.63
  -8  -5   4   48.28    4.01
  -8  -5   4   62.71    5.62
   8  -5  -4   53.67    4.48
  -8   5   4   53.05    5.64
   8   5  -4   53.28    4.20
  -7  -5   4   83.09    6.72
  -7  -5   4   61.62    4.52
   7  -5  -4   79.35    5.08
   7   5  -4   72.98    4.94
  -7   5   4   78.80    6.21
  -6  -5   4   76.92    4.66
   6  -5  -4   82.76    4.85
  -6  -5   4   77.36    6.57
   6  -5  -4   79.02    4.97
   6   5  -4   77.14    4.95
  -6   5   4   82.80    6.27
   5  -5  -4   65.67    4.09
  -5  -5   4   65.29    3.95
   5  -5  -4   69.47    4.24
  -5  -5   4   67.46    5.80
  -5   5   4   73.84    5.38
   5   5  -4   70.41    4.45
  -4  -5   4   75.91    5.83
  -4  -5   4   68.04    3.92
   4  -5  -4   72.92    4.88
   4  -5  -4   73.65    4.30
  -4  -5   4   69.08    4.50
   4  -5  -4   75.71    4.24
   4   5  -4   67.62    4.28
  -4   5   4   76.56    5.25
   3  -5  -4   42.20    2.84
   3  -5  -4   40.05    2.78
  -3  -5   4   41.40    2.48
  -3  -5   4   42.04    3.94
  -3  -5   4   39.58    3.05
   3   5  -4   40.08    2.90
  -3   5   4   46.63    3.58
  -2  -5   4   69.38    4.24
  -2  -5   4   70.03    3.44
   2  -5  -4   68.30    3.90
   2  -5  -4   62.43    3.81
   2  -5  -4   72.63    4.88
  -2  -5   4   67.81    4.94
  -2   5   4   69.13    4.60
   2   5  -4   67.68    4.04
  -1  -5   4   60.23    3.03
   1  -5  -4   63.24    4.52
   1  -5  -4   59.91    3.50
   1  -5  -4   59.74    3.56
  -1  -5   4   60.28    3.86
  -1  -5   4   61.80    4.19
   1   5  -4   53.16    4.02
  -1   5   4   59.31    3.90
   0  -5  -4  103.89    5.32
   0  -5   4   93.28    5.56
   0  -5  -4   99.39    6.46
   0  -5   4  103.29    4.69
   0  -5   4  101.00    5.89
   0  -5  -4  105.69    5.34
   0   5   4  109.69    5.19
   0   5  -4   88.00    6.45
   0   5   4   98.68    5.90
   1  -5   4   85.87    5.03
  -1  -5  -4   89.64    5.92
  -1  -5  -4   81.83    4.69
   1  -5   4   87.38    4.12
  -1   5  -4   80.53    6.16
   1   5   4   84.08    5.20
   1   5   4   93.18    4.64
   2  -5   4   50.41    2.69
  -2  -5  -4   52.50    3.31
  -2  -5  -4   45.35    3.98
   2  -5   4   45.18    3.36
  -2   5  -4   45.06    4.44
   2   5   4   52.66    3.07
   2   5   4   49.32    3.34
  -3  -5  -4   36.67    3.91
   3  -5   4   43.07    3.20
   3  -5   4   41.11    2.53
  -3   5  -4   42.31    4.11
   4  -5   4   18.85    2.02
  -4  -5  -4   18.99    3.26
   4  -5   4   20.77    2.57
  -4   5  -4   22.82    3.77
   5  -5   4   12.07    2.11
   5  -5   4    9.39    1.75
  -5  -5  -4   12.59    2.89
  -5   5  -4   15.65    3.33
   6  -5   4   18.71    2.60
  -6  -5  -4   13.16    3.07
   6  -5   4   18.11    2.72
  -6   5  -4   21.28    3.91
   7  -5   4   17.24    2.93
   7  -5   4   19.70    3.07
  -7  -5  -4   17.79    3.46
  -7   5  -4   17.65    3.51
  -8  -5  -4    9.64    2.92
   8  -5   4   11.99    2.82
   8  -5   4   10.70    2.91
  -8   5  -4    5.53    2.98
 -10  -6   4    6.61    3.09
 -10  -6   4    2.23    2.14
  10  -6  -4    3.72    2.37
  10   6  -4    2.07    2.01
 -10   6   4   -3.78    2.67
   9  -6  -4    3.08    2.09
  -9  -6   4   -0.04    2.49
  -9  -6   4    0.84    1.76
  -9   6   4    1.36    2.98
   9   6  -4   -1.34    1.43
   8  -6  -4   -1.52    1.38
  -8  -6   4    0.32    1.62
  -8  -6   4    2.99    2.60
  -8   6   4   -2.45    2.49
   8   6  -4    0.39    1.47
   7  -6  -4    0.79    1.38
  -7  -6   4   -1.57    1.17
  -7  -6   4    1.62    2.45
  -7   6   4    2.56    2.06
   7   6  -4   -0.60    1.21
  -6  -6   4    2.76    2.52
   6  -6  -4    1.08    1.24
   6  -6  -4   -1.48    0.97
  -6  -6   4   -1.02    1.15
   6   6  -4   -1.24    1.09
  -6   6   4   -0.74    1.90
  -5  -6   4    1.42    1.11
   5  -6  -4    1.54    1.15
  -5  -6   4    2.25    2.26
   5  -6  -4    1.94    1.21
  -5   6   4    1.30    1.67
   5   6  -4    0.66    1.10
  -4  -6   4    0.75    0.93
  -4  -6   4    1.45    1.23
  -4  -6   4    0.76    1.98
   4  -6  -4    1.38    1.07
   4  -6  -4    0.83    0.99
  -4   6   4    2.92    1.59
   4   6  -4    1.04    1.04
   3  -6  -4    5.90    1.36
  -3  -6   4    3.72    1.24
  -3  -6   4    5.62    1.09
  -3  -6   4    5.47    2.20
   3  -6  -4    5.54    1.31
   3   6  -4    3.38    1.04
  -3   6   4    8.62    1.90
  -2  -6   4   13.93    1.44
   2  -6  -4   16.79    1.96
   2  -6  -4   12.08    1.66
   2  -6  -4   10.55    2.63
  -2  -6   4   11.94    1.94
  -2  -6   4   14.25    2.66
  -2   6   4   12.66    2.09
   2   6  -4   12.59    1.82
   1  -6  -4   19.67    3.18
   1  -6  -4   19.78    2.20
  -1  -6   4   16.10    2.23
   1  -6  -4   18.83    2.05
  -1  -6   4   19.42    1.53
  -1   6   4   18.54    2.33
   0  -6   4   19.24    1.54
   0  -6  -4   25.72    2.49
   0  -6   4   20.88    2.45
   0  -6  -4   18.47    3.25
   0  -6  -4   20.93    1.91
   0   6  -4   13.63    2.59
   0   6   4   20.93    2.34
  -1  -6  -4   16.20    2.09
   1  -6   4   15.55    1.37
   1  -6   4   16.64    2.20
  -1  -6  -4   13.33    2.92
  -1  -6  -4   14.42    1.74
   1   6   4   17.16    1.59
  -1   6  -4   14.15    2.66
   2  -6   4   16.90    1.54
   2  -6   4   20.92    2.45
  -2  -6  -4   15.99    3.21
  -2   6  -4   15.34    3.21
  -3  -6  -4    5.51    2.41
   3  -6   4    7.38    1.76
   3  -6   4    7.44    1.21
  -3   6  -4   10.01    2.77
   4  -6   4   25.67    2.20
  -4  -6  -4   21.07    3.71
   4  -6   4   25.00    3.02
  -4   6  -4   28.05    4.48
   5  -6   4   16.50    2.66
  -5  -6  -4   21.94    3.77
   5  -6   4   19.31    2.26
  -5   6  -4   21.40    4.24
   6  -6   4   20.11    2.67
  -6  -6  -4   18.59    3.65
   6  -6   4   20.81    3.10
  -6   6  -4   25.67    4.71
   7  -6   4   23.03    3.22
   7  -6   4   35.05    4.13
  -7  -6  -4   23.59    4.17
  -7   6  -4   24.80    4.77
   8  -7  -4   40.35    4.32
  -8  -7   4   35.64    5.61
  -8  -7   4   24.45    3.51
   8   7  -4   28.68    3.66
  -8   7   4   41.40    6.00
   7  -7  -4   43.60    4.00
  -7  -7   4   46.11    3.92
  -7  -7   4   49.01    6.37
   7   7  -4   41.85    3.87
  -7   7   4   52.78    6.31
  -6  -7   4   45.04    3.80
  -6  -7   4   51.15    6.61
   6  -7  -4   57.48    4.20
   6   7  -4   46.81    3.94
  -6   7   4   54.74    5.38
  -5  -7   4   36.76    3.17
   5  -7  -4   44.98    3.52
  -5  -7   4   47.05    5.91
   5  -7  -4   42.54    3.44
  -5   7   4   44.58    4.47
   5   7  -4   37.42    3.39
   4  -7  -4   44.40    3.38
  -4  -7   4   50.56    5.83
  -4  -7   4   38.03    3.57
   4  -7  -4   41.87    3.34
  -4  -7   4   40.86    3.03
  -4   7   4   40.54    4.06
   4   7  -4   44.11    3.49
  -3  -7   4   30.02    4.29
  -3  -7   4   28.67    2.39
   3  -7  -4   32.67    2.74
   3  -7  -4   27.47    2.89
  -3  -7   4   29.86    3.29
  -3   7   4   31.66    3.24
   3   7  -4   29.73    2.82
   2  -7  -4   35.59    2.95
   2  -7  -4   36.43    2.95
  -2  -7   4   32.36    3.18
  -2  -7   4   32.95    4.07
  -2  -7   4   37.01    2.51
   2   7  -4   38.41    3.18
  -2   7   4   39.62    3.46
   1  -7  -4   33.72    4.48
   1  -7  -4   35.26    2.93
  -1  -7   4   36.83    2.45
   1  -7  -4   40.31    3.06
  -1  -7   4   37.35    3.28
   1   7  -4   37.62    3.11
  -1   7   4   37.15    3.20
   0  -7  -4   61.73    3.93
   0  -7  -4   53.30    5.44
   0  -7   4   56.63    3.23
   0  -7   4   55.97    4.07
  -1  -7  -4   40.88    5.09
   1  -7   4   52.15    3.97
   1  -7   4   49.13    2.90
   2  -7   4   30.48    2.27
   2  -7   4   37.40    3.31
  -2  -7  -4   26.61    4.16
  -2   7  -4   31.83    4.41
  -3  -7  -4   16.64    3.61
   3  -7   4   24.03    3.09
   3  -7   4   21.92    2.11
  -3   7  -4   23.74    4.16
   4  -7   4   14.83    2.58
   4  -7   4   12.02    1.76
  -4  -7  -4   10.88    3.19
  -4   7  -4    9.75    3.50
   5  -7   4    5.61    1.65
   5  -7   4    6.89    1.89
  -5  -7  -4    8.16    2.89
  -5   7  -4    7.34    3.38
   6  -7   4    8.63    1.91
   6  -7   4   14.12    2.84
  -6  -7  -4    9.01    3.08
  -6   7  -4   13.44    4.23
  -6  -8   4    0.07    3.01
  -6  -8   4   -2.23    1.32
   6  -8  -4    1.48    1.57
   6   8  -4    0.50    1.46
  -6   8   4   -0.10    2.23
  -5  -8   4    3.49    2.74
  -5  -8   4   -3.20    1.08
   5  -8  -4    1.01    1.35
  -5   8   4    1.19    2.02
   5   8  -4   -0.18    1.38
   4  -8  -4    0.07    1.40
  -4  -8   4    1.34    1.62
  -4  -8   4    0.01    1.28
  -4  -8   4    6.32    3.03
  -4   8   4    0.33    1.72
   4   8  -4    1.30    1.45
  -3  -8   4    1.24    1.64
   3  -8  -4    3.83    1.48
  -3  -8   4    2.10    1.27
  -3   8   4    1.61    1.63
   3   8  -4    3.75    1.61
  -2  -8   4    8.96    2.17
  -2  -8   4   10.06    1.64
   2   8  -4   11.24    2.14
  -1  -8   4    8.52    1.92
  -1  -8   4   11.12    1.62
   1   8  -4    8.78    1.83
   0  -8   4   12.67    1.67
   0  -8   4   14.27    2.47
   0  -8  -4    9.81    3.22
  -1  -8  -4    7.35    2.92
   1  -8   4   14.32    1.71
   1  -8   4   10.75    2.34
  -2  -8  -4    9.24    3.22
   2  -8   4    8.45    1.40
   2  -8   4    4.22    1.94
  -3  -8  -4    2.46    2.50
   3  -8   4    5.07    1.37
   3  -8   4    8.66    2.21
  -4  -8  -4    8.23    3.04
   4  -8   4    7.50    1.65
   4  -8   4   17.30    2.92
  -4   8  -4    7.70    3.56
  -2  -9   4   17.92    3.08
  -2  -9   4   18.14    2.23
   2   9  -4   18.43    2.88
  -1  -9   4   22.81    3.30
  -1  -9   4   18.92    2.35
   1   9  -4   17.47    2.81
   0  -9   4   26.58    3.55
   0  -9   4   35.58    2.78
   0   9  -4   33.46    3.74
  13   0  -5   26.41    4.27
  12   0  -5    6.19    3.04
  11   0  -5    7.45    2.89
 -10   0   5   17.74    2.99
  10   0  -5   19.76    3.39
 -10   0   5   15.64    3.05
   9   0  -5    6.00    2.29
  -9   0   5   13.45    2.50
  -9   0   5    7.56    2.52
  -9   0   5   11.54    2.45
  -8   0   5   26.07    3.28
   8   0  -5   22.05    3.16
  -8   0   5   23.99    2.98
  -8   0   5   22.74    3.34
  -7   0   5   17.35    2.42
   7   0  -5   15.90    2.54
  -7   0   5   17.07    2.32
  -7   0   5   16.45    2.55
  -6   0   5    3.13    1.17
  -6   0   5    4.55    1.22
  -6   0   5    4.01    1.47
   6   0  -5    4.61    1.50
  -5   0   5    6.88    1.23
  -5   0   5    9.06    1.53
  -5   0   5    8.07    1.63
   5   0  -5    6.95    1.46
  -4   0   5    5.88    1.01
  -4   0   5    7.20    1.42
   4   0  -5    6.23    1.27
  -4   0   5    7.52    1.30
  -3   0   5    0.36    0.69
  -3   0   5    0.38    0.41
   3   0  -5   -0.90    0.57
   3   0  -5   -0.01    0.63
  -3   0   5    0.22    0.80
  -3   0   5    0.26    0.44
  -2   0   5   10.22    0.90
   2   0  -5    9.58    1.02
  -2   0   5   10.03    0.94
   2   0  -5    9.84    1.33
  -2   0   5   10.55    1.46
  -1   0   5    3.10    0.57
  -1   0   5    2.57    0.94
   1   0  -5    3.15    0.45
  -1   0   5    2.46    0.50
   1   0  -5    2.54    0.80
   0   0   5    1.34    0.80
   0   0  -5    0.45    0.19
   0   0  -5   -0.06    0.61
   0   0   5    0.00    0.21
   0   0   5    0.32    0.38
   0   0   5    0.32    0.38
   1   0   5    0.89    0.52
   1   0   5    0.72    0.46
  -1   0  -5    0.42    0.62
   1   0   5   -0.25    0.71
   1   0   5    0.08    0.24
  -2   0  -5   15.73    1.71
   2   0   5   13.74    1.84
   2   0   5   14.21    1.26
   2   0   5   14.58    1.06
   2   0   5   14.85    1.49
   3   0   5   20.06    2.44
   3   0   5   18.06    1.68
   3   0   5   22.49    1.57
  -3   0  -5   21.23    1.91
   4   0   5   27.27    2.20
   4   0   5   25.61    2.06
   4   0   5   26.69    2.69
  -4   0  -5   21.93    2.21
  -5   0  -5   33.02    2.89
   5   0   5   32.57    2.74
   5   0   5   30.25    2.65
   5   0   5   30.26    3.17
   6   0   5   15.80    2.75
   6   0   5   20.83    2.55
   6   0   5   13.56    2.22
  -6   0  -5   25.59    2.85
   7   0   5   15.84    2.90
   7   0   5   12.31    2.25
  -8   0  -5   11.56    2.44
   8   0   5    7.79    2.12
  -9   0  -5   20.33    3.19
   9   0   5   13.17    2.68
  12  -1  -5   24.59    4.43
  12   1  -5   18.47    3.79
 -11  -1   5   16.46    3.31
  11  -1  -5   15.81    3.59
 -11   1   5   16.07    3.35
  11   1  -5    9.43    2.86
 -10  -1   5   53.33    5.04
  10  -1  -5   56.31    5.33
  10   1  -5   48.43    5.03
 -10   1   5   51.22    4.87
  -9  -1   5   49.08    4.72
   9  -1  -5   54.49    4.93
  -9   1   5   49.83    4.73
   9   1  -5   44.41    3.93
  -9   1   5   46.49    4.12
  -9   1   5   45.76    4.07
  -8  -1   5   97.98    6.11
  -8  -1   5   91.13    6.69
   8  -1  -5  101.19    6.57
  -8   1   5   95.88    6.53
  -8   1   5   93.66    5.96
   8   1  -5   82.08    5.63
  -8   1   5   90.77    5.61
  -7  -1   5   91.31    6.25
   7  -1  -5   88.32    5.83
  -7  -1   5   88.73    5.53
  -7   1   5   86.62    5.16
  -7   1   5   93.61    6.09
   7   1  -5   79.63    5.38
  -7   1   5   91.01    5.70
   6  -1  -5   87.14    5.44
  -6  -1   5   90.49    5.93
  -6  -1   5   88.31    5.34
  -6   1   5   89.66    4.78
  -6   1   5   84.30    5.25
  -6   1   5   82.91    5.55
   6   1  -5   81.71    5.05
  -5  -1   5   81.86    5.34
   5  -1  -5   88.85    4.27
   5  -1  -5   87.66    4.88
  -5  -1   5   73.15    4.78
   5  -1  -5   79.03    4.81
  -5   1   5   90.09    4.66
   5   1  -5   87.83    5.01
  -5   1   5   88.60    5.56
  -4  -1   5   93.96    4.78
  -4  -1   5  100.57    5.77
  -4  -1   5  108.29    6.12
   4  -1  -5  104.79    5.39
   4  -1  -5  102.75    4.90
   4  -1  -5  102.53    5.68
  -4   1   5  109.01    6.30
  -4   1   5  104.80    5.20
   4   1  -5  106.76    5.57
   3  -1  -5  112.84    6.13
  -3  -1   5  104.20    5.07
  -3  -1   5  112.08    5.19
  -3  -1   5  121.86    6.36
   3  -1  -5  108.86    5.54
  -3  -1   5  117.51    6.38
  -3   1   5  115.92    6.62
  -3   1   5  118.04    5.48
   3   1  -5  114.22    5.77
  -2  -1   5  195.86    8.67
  -2  -1   5  193.84    8.63
  -2  -1   5  203.01   10.64
  -2  -1   5  200.01   10.43
   2  -1  -5  202.72   10.30
   2  -1  -5  204.46    9.16
  -2   1   5  208.12   11.02
   2   1  -5  212.69    9.64
  -2   1   5  198.15    9.15
  -1  -1   5  301.94   13.59
   1  -1  -5  298.79   14.89
  -1  -1   5  294.89   12.62
  -1  -1   5  279.84   12.60
  -1  -1   5  307.21   15.44
   1   1  -5  317.62   13.87
  -1   1   5  302.78   13.20
  -1   1   5  299.47   15.77
   1   1  -5  293.93   15.16
   0  -1  -5  106.20    5.87
   0  -1   5  108.10    6.23
   0  -1   5  106.57    5.15
   0  -1   5  103.35    4.76
   0  -1   5  111.49    4.80
   0   1   5  107.29    5.07
   0   1  -5  111.58    5.84
   0   1   5  107.03    6.21
   1  -1   5  137.68    5.98
   1  -1   5  132.07    6.27
  -1  -1  -5  127.89    7.09
   1  -1   5  129.98    7.51
   1  -1   5  127.41    5.89
   1   1   5  130.92    7.28
  -1   1  -5  129.60    6.81
   1   1   5  127.37    6.00
   2  -1   5   59.44    4.14
   2  -1   5   58.76    3.19
   2  -1   5   67.28    3.33
  -2  -1  -5   60.23    3.81
   2  -1   5   55.11    3.09
   2   1   5   61.86    3.01
  -2   1  -5   58.58    3.51
   2   1   5   57.65    3.22
   2   1   5   60.12    3.95
   3  -1   5   77.79    3.98
   3  -1   5   71.59    3.94
  -3  -1  -5   73.03    4.57
   3  -1   5   70.38    4.95
  -3   1  -5   77.74    4.47
   3   1   5   82.84    4.20
   3   1   5   71.82    4.88
   3   1   5   78.20    4.09
   4  -1   5   53.52    4.27
   4  -1   5   51.74    3.37
  -4  -1  -5   54.99    3.88
   4  -1   5   59.99    3.41
   4   1   5   57.05    4.06
  -4   1  -5   54.19    3.50
   4   1   5   53.14    3.46
   4   1   5   60.34    3.54
  -5  -1  -5   91.28    5.71
   5  -1   5   83.59    5.00
   5  -1   5   87.82    5.98
  -5   1  -5   99.80    5.68
   5   1   5   94.12    6.20
   5   1   5   95.81    5.40
  -6  -1  -5   63.99    4.57
   6  -1   5   58.50    4.98
   6  -1   5   62.22    4.21
   6  -1   5   57.95    4.26
   6   1   5   60.30    4.67
   6   1   5   63.55    4.26
   7  -1   5   38.70    3.93
   7  -1   5   44.46    3.78
  -7  -1  -5   45.58    4.06
   7   1   5   40.09    4.13
   7   1   5   41.92    3.63
  -7   1  -5   44.47    4.04
  -8  -1  -5   22.19    3.04
   8  -1   5   17.95    2.85
  -8   1  -5   20.20    3.27
   8   1   5   16.60    2.82
   9  -1   5   11.01    2.57
  -9   1  -5   14.04    2.96
  10  -1   5    4.34    2.40
 -10   1  -5    3.42    2.23
  12  -2  -5   10.68    3.69
 -12  -2   5   14.07    3.20
  12   2  -5   12.37    3.28
 -12   2   5    5.91    2.84
  11  -2  -5    3.43    2.81
 -11  -2   5    8.75    2.71
 -11  -2   5    6.46    2.62
 -11   2   5    7.21    3.19
  11   2  -5    6.06    2.52
  10  -2  -5   10.91    3.12
 -10  -2   5    9.54    2.65
 -10  -2   5   13.41    3.37
 -10   2   5    8.00    2.89
  10   2  -5    4.84    2.17
  -9  -2   5   19.95    3.48
   9  -2  -5   16.94    3.29
  -9  -2   5   17.98    3.01
   9   2  -5   12.99    2.56
  -9   2   5   20.07    3.55
   8  -2  -5   20.10    2.45
   8  -2  -5   17.00    2.92
  -8  -2   5   16.76    2.69
  -8  -2   5   17.13    3.34
  -8   2   5   17.17    2.36
  -8   2   5   12.80    2.91
   8   2  -5   15.64    2.31
  -7  -2   5   10.24    2.62
  -7  -2   5   14.11    2.33
   7  -2  -5   10.01    2.11
   7  -2  -5   13.62    1.93
  -7   2   5    9.63    2.37
  -7   2   5    8.51    1.72
   7   2  -5    8.81    1.77
  -6  -2   5   10.99    2.29
  -6  -2   5   12.01    2.08
   6  -2  -5   11.01    1.88
  -6  -2   5   12.58    1.55
  -6   2   5   11.74    2.26
   6   2  -5   10.69    1.68
  -6   2   5   10.97    1.65
  -5  -2   5    0.99    1.14
   5  -2  -5   -1.18    0.69
   5  -2  -5    0.08    0.67
   5  -2  -5   -0.30    0.61
  -5  -2   5   -0.67    0.88
  -5  -2   5    0.18    0.64
   5   2  -5    0.33    0.73
  -5   2   5   -1.07    0.55
  -5   2   5    0.72    1.09
  -4  -2   5    0.21    0.75
   4  -2  -5    2.00    0.68
  -4  -2   5    0.09    1.12
  -4  -2   5    0.55    0.56
   4  -2  -5    0.84    0.67
  -4  -2   5    1.31    0.75
   4  -2  -5    1.38    0.79
   4   2  -5    1.19    0.69
  -4   2   5    0.91    0.67
  -4   2   5   -0.07    0.61
   3  -2  -5   -0.61    0.59
  -3  -2   5    0.46    0.96
   3  -2  -5    0.95    0.52
  -3  -2   5    0.12    0.38
   3  -2  -5    0.45    0.46
  -3  -2   5    1.46    0.75
  -3  -2   5    0.01    0.58
   3   2  -5    0.72    0.54
  -3   2   5    0.43    0.81
  -3   2   5   -0.11    0.53
   2  -2  -5   -0.55    0.60
  -2  -2   5   -0.25    0.22
  -2  -2   5    0.18    0.85
   2  -2  -5    0.22    0.29
  -2  -2   5    0.11    0.51
   2  -2  -5    0.50    0.49
  -2  -2   5    0.29    0.66
  -2   2   5    0.38    0.54
   2   2  -5    0.20    0.40
  -2   2   5   -0.08    0.53
   1  -2  -5    1.07    0.56
  -1  -2   5    1.28    0.48
   1  -2  -5    2.00    0.90
  -1  -2   5    2.21    0.88
  -1  -2   5    0.95    0.20
   1  -2  -5    1.31    0.25
  -1  -2   5    1.33    0.87
   1   2  -5    1.55    0.49
  -1   2   5    1.85    0.64
  -1   2   5    0.84    0.83
   0  -2  -5    2.05    0.95
   0  -2  -5    0.96    0.58
   0  -2   5    1.57    0.30
   0  -2   5    2.36    1.04
   0  -2   5    1.44    0.33
   0   2  -5    1.40    0.61
   0   2   5    2.16    0.89
   0   2   5    1.78    0.65
  -1  -2  -5    1.13    0.63
   1  -2   5    1.72    1.13
   1  -2   5    1.40    0.57
   1  -2   5    1.67    0.52
  -1  -2  -5    1.39    0.97
   1   2   5    1.55    0.70
  -1   2  -5    1.17    0.59
   1   2   5    0.68    0.38
   1   2   5    0.46    0.72
  -2  -2  -5    3.55    1.08
   2  -2   5    1.57    1.29
   2  -2   5    3.02    0.87
   2  -2   5    2.01    0.79
   2   2   5    1.33    0.67
   2   2   5    2.35    0.84
   2   2   5    2.60    0.99
  -2   2  -5    2.75    0.70
   3  -2   5   35.28    3.08
   3  -2   5   31.95    2.21
  -3  -2  -5   33.15    2.88
   3  -2   5   30.50    2.37
  -3   2  -5   32.69    2.25
   3   2   5   31.46    2.65
   3   2   5   32.95    2.41
   4  -2   5   19.61    2.06
   4  -2   5   15.65    2.01
  -4  -2  -5   20.05    2.57
   4  -2   5   16.36    2.76
   4   2   5   17.97    2.27
   4   2   5   20.00    2.17
  -5  -2  -5   22.53    2.95
   5  -2   5   22.12    3.25
   5  -2   5   25.05    2.62
   5  -2   5   21.44    2.52
   5   2   5   29.41    2.79
   5   2   5   22.15    2.75
  -6  -2  -5   25.72    3.33
   6  -2   5   20.09    2.70
   6  -2   5   27.32    2.96
   6  -2   5   20.12    3.19
   6   2   5   27.59    3.02
   6   2   5   24.32    2.98
  -6   2  -5   25.97    3.41
  -7  -2  -5    7.98    2.31
   7  -2   5   13.87    2.56
   7  -2   5   13.01    2.32
  -7   2  -5   11.51    2.59
   7   2   5   13.12    2.38
   7   2   5    8.54    2.27
   8  -2   5    6.58    2.18
   8  -2   5    7.86    2.46
  -8  -2  -5    6.49    2.28
  -8   2  -5    7.76    2.57
   9  -2   5   17.63    3.14
  -9   2  -5   10.59    2.78
 -12  -3   5   17.16    3.87
  12  -3  -5    8.14    3.43
 -12   3   5   14.71    4.01
  12   3  -5    3.81    2.68
  11  -3  -5   17.39    3.87
 -11  -3   5   17.92    3.28
 -11  -3   5   18.54    4.08
  11   3  -5   13.84    2.80
 -11   3   5   21.78    4.17
 -10  -3   5   35.99    4.13
  10  -3  -5   35.57    4.66
 -10  -3   5   39.74    5.06
  10   3  -5   25.20    3.41
 -10   3   5   23.08    4.29
   9  -3  -5   42.08    4.58
  -9  -3   5   41.44    4.19
  -9  -3   5   35.02    4.92
   9   3  -5   30.68    3.56
  -9   3   5   37.02    5.00
   8  -3  -5   94.61    6.42
  -8  -3   5  104.65    7.57
  -8  -3   5  101.79    6.25
   8   3  -5   82.93    5.56
  -8   3   5   96.56    7.00
  -7  -3   5   47.75    4.75
   7  -3  -5   50.66    3.80
  -7  -3   5   43.56    3.61
   7   3  -5   44.98    3.33
  -7   3   5   46.15    4.43
  -6  -3   5   74.83    4.86
   6  -3  -5   87.91    5.02
   6  -3  -5   83.39    4.94
  -6  -3   5   77.18    6.04
   6   3  -5   85.37    4.99
  -6   3   5   87.01    6.04
  -6   3   5   80.46    4.70
   5  -3  -5   79.84    4.32
  -5  -3   5   80.09    4.57
  -5  -3   5   74.85    5.69
   5  -3  -5   83.40    4.58
   5   3  -5   79.13    4.59
  -5   3   5   82.07    4.41
  -5   3   5   78.07    5.46
  -4  -3   5   44.85    3.88
  -4  -3   5   38.60    2.77
  -4  -3   5   46.86    2.98
   4  -3  -5   55.15    3.36
   4  -3  -5   51.04    2.97
  -4  -3   5   53.73    3.28
   4  -3  -5   50.83    2.94
   4   3  -5   52.60    3.23
  -4   3   5   53.72    3.93
  -4   3   5   51.41    3.10
   3  -3  -5  131.53    6.20
   3  -3  -5  127.12    7.03
  -3  -3   5  118.99    5.96
  -3  -3   5  128.35    7.47
  -3  -3   5  114.35    5.87
  -3  -3   5  128.01    6.60
  -3  -3   5  144.13    7.30
   3  -3  -5  132.74    6.26
  -3   3   5  134.51    6.21
  -3   3   5  120.74    7.37
   3   3  -5  126.34    6.43
  -2  -3   5  134.60    5.90
  -2  -3   5  148.73    7.71
   2  -3  -5  133.74    6.38
  -2  -3   5  130.76    7.49
   2  -3  -5  131.96    6.35
  -2  -3   5  129.04    5.94
   2  -3  -5  130.31    7.33
  -2  -3   5  131.83    6.78
   2   3  -5  138.10    6.75
  -2   3   5  138.35    6.48
  -2   3   5  130.41    7.66
   1  -3  -5  176.44    9.61
  -1  -3   5  184.41    8.83
  -1  -3   5  172.24    7.59
  -1  -3   5  177.60    9.55
   1  -3  -5  186.15    8.35
  -1  -3   5  186.56   10.07
   1  -3  -5  179.63    8.36
  -1  -3   5  182.38    7.60
  -1   3   5  193.59    8.47
  -1   3   5  172.32    9.93
   0  -3   5  136.62    6.54
   0  -3  -5  129.62    6.03
   0  -3  -5  131.91    7.24
   0  -3  -5  128.23    6.17
   0  -3   5  125.47    5.50
   0  -3   5  115.79    5.54
   0  -3   5  135.86    7.69
   0   3   5  143.07    6.49
   0   3   5  138.93    7.79
   0   3   5  133.29    6.58
  -1  -3  -5   69.75    4.34
   1  -3   5   66.21    3.66
   1  -3   5   61.86    4.61
  -1  -3  -5   69.52    3.60
   1  -3   5   60.58    3.10
   1  -3   5   56.50    3.15
   1   3   5   65.99    4.19
   1   3   5   66.11    3.63
  -1   3  -5   65.71    3.76
   2  -3   5   53.37    4.38
  -2  -3  -5   57.62    4.03
   2  -3   5   58.01    3.37
   2  -3   5   49.90    3.04
   2  -3   5   56.13    3.18
  -2   3  -5   56.53    3.24
   2   3   5   57.98    3.78
   2   3   5   50.95    3.26
   3  -3   5   66.67    3.87
   3  -3   5   59.85    5.05
  -3  -3  -5   64.37    4.55
   3  -3   5   73.71    4.05
   3   3   5   70.57    4.06
   3   3   5   69.44    4.47
  -4  -3  -5   33.78    3.35
   4  -3   5   29.60    3.89
   4  -3   5   38.67    2.73
   4  -3   5   26.77    2.77
   4   3   5   35.89    2.78
   4   3   5   29.00    2.73
   5  -3   5   96.67    5.58
  -5  -3  -5   90.16    6.30
   5  -3   5   93.11    5.57
   5   3   5   92.39    5.89
   5   3   5   99.60    5.51
  -5   3  -5   87.56    6.54
  -6  -3  -5   49.75    4.58
   6  -3   5   60.27    4.24
   6  -3   5   51.23    3.98
  -6   3  -5   51.69    4.74
   7  -3   5   31.86    3.66
   7  -3   5   31.28    3.54
  -7  -3  -5   24.21    3.69
  -7   3  -5   31.58    4.23
   8  -3   5   23.36    3.47
   8  -3   5   27.78    3.68
  -8  -3  -5   30.11    4.18
  -8   3  -5   22.63    3.59
  -9  -3  -5    7.65    2.58
   9  -3   5    5.24    2.95
   9  -3   5   11.51    2.96
  -9   3  -5    7.09    2.70
  11  -4  -5    4.68    2.81
 -11  -4   5    8.05    2.76
 -11  -4   5   13.72    3.53
 -11   4   5    2.85    3.01
  11   4  -5    5.05    2.28
  10  -4  -5    3.79    2.42
 -10  -4   5    8.38    2.47
 -10  -4   5    6.96    2.91
  10   4  -5    5.53    2.04
 -10   4   5    4.38    3.11
  -9  -4   5   12.59    3.51
  -9  -4   5   13.91    2.60
   9  -4  -5    9.34    2.52
   9   4  -5   12.52    2.31
  -9   4   5    9.75    3.35
  -8  -4   5   10.15    3.05
   8  -4  -5   10.70    2.28
  -8  -4   5   16.58    2.67
  -8   4   5   15.30    3.30
   8   4  -5   12.34    2.17
  -7  -4   5    5.53    2.55
   7  -4  -5    7.05    1.72
  -7  -4   5    6.15    1.80
   7   4  -5    7.18    1.70
  -7   4   5    7.59    2.45
  -6  -4   5    8.03    2.68
   6  -4  -5    7.58    1.56
  -6  -4   5    7.65    1.65
   6   4  -5    9.77    1.73
  -6   4   5   10.47    2.43
   5  -4  -5   -0.22    1.01
  -5  -4   5    1.54    1.01
   5  -4  -5   -0.73    0.80
  -5  -4   5    0.70    1.34
   5  -4  -5    0.51    0.90
  -5   4   5    1.29    1.11
   5   4  -5    0.30    0.85
  -4  -4   5    1.70    0.84
  -4  -4   5    2.36    1.59
   4  -4  -5   -0.09    0.70
   4  -4  -5   -0.30    0.61
   4  -4  -5    1.52    1.01
  -4  -4   5    0.81    0.75
  -4   4   5    0.89    0.97
  -4   4   5    1.10    0.83
   4   4  -5    0.77    0.67
  -3  -4   5    0.98    0.89
   3  -4  -5    0.34    0.63
   3  -4  -5    0.85    1.18
  -3  -4   5    1.15    0.58
  -3  -4   5    0.35    0.63
  -3  -4   5    0.84    1.26
   3  -4  -5    0.31    0.67
  -3  -4   5    2.19    1.15
  -3   4   5    0.94    1.07
  -3   4   5    0.66    0.61
   3   4  -5    0.77    0.70
   2  -4  -5   -0.01    0.50
  -2  -4   5    0.19    0.33
   2  -4  -5   -0.57    0.56
  -2  -4   5    0.54    0.43
  -2  -4   5    0.80    0.63
   2  -4  -5   -0.31    0.95
  -2  -4   5   -0.84    0.88
  -2  -4   5   -0.82    1.03
   2   4  -5    0.06    0.50
  -2   4   5    0.52    0.74
  -2   4   5   -0.13    0.86
  -1  -4   5    0.63    0.77
   1  -4  -5    0.88    0.70
  -1  -4   5   -0.25    0.40
  -1  -4   5    0.37    0.25
  -1  -4   5    0.09    0.27
   1  -4  -5    0.07    0.47
  -1  -4   5    1.48    1.11
   1  -4  -5    1.98    1.28
  -1   4   5    0.12    0.75
  -1   4   5    0.52    0.84
   0  -4   5    0.64    0.88
   0  -4  -5   -0.13    1.12
   0  -4   5    0.28    1.37
   0  -4   5    0.66    0.28
   0  -4   5    1.23    0.34
   0  -4   5    1.18    0.79
   0  -4  -5    0.22    0.72
   0  -4  -5    0.92    0.51
   0   4   5    0.39    0.83
   0   4   5    1.14    0.47
   0   4   5    1.06    0.83
   1  -4   5    2.89    1.76
   1  -4   5    1.31    0.44
  -1  -4  -5    3.82    1.52
   1  -4   5    1.30    0.83
   1  -4   5    1.96    0.60
  -1   4  -5    2.55    0.72
   1   4   5    2.29    1.04
   1   4   5    1.61    0.94
  -2  -4  -5    0.78    1.46
   2  -4   5    2.36    1.79
   2  -4   5    1.79    0.91
   2  -4   5    2.14    0.67
   2   4   5    2.85    1.14
  -2   4  -5    2.99    1.64
   2   4   5    2.87    1.08
  -3  -4  -5   17.32    2.86
   3  -4   5   23.05    2.20
   3  -4   5   25.72    1.95
   3   4   5   23.95    2.47
   3   4   5   21.37    2.10
  -3   4  -5   20.91    3.21
   4  -4   5   11.81    1.88
  -4  -4  -5   15.22    2.74
   4  -4   5   13.33    1.82
  -4   4  -5   14.57    2.82
  -5  -4  -5   15.84    3.04
   5  -4   5   20.02    2.61
   5  -4   5   13.12    2.17
  -5   4  -5   16.90    3.16
  -6  -4  -5   18.56    3.37
   6  -4   5   26.75    3.04
   6  -4   5   16.81    2.71
  -6   4  -5   18.60    3.44
   7  -4   5    7.57    2.27
   7  -4   5    7.21    2.05
  -7  -4  -5    8.14    2.75
  -7   4  -5   11.87    3.01
  -8  -4  -5    5.44    2.63
   8  -4   5    6.51    2.32
   8  -4   5    5.17    2.32
  -8   4  -5    7.28    2.54
  11  -5  -5    6.18    2.94
 -11  -5   5    7.63    2.65
 -11  -5   5   12.80    3.56
 -11   5   5    6.71    3.64
  11   5  -5    5.44    2.52
  10  -5  -5   23.53    3.89
 -10  -5   5   29.75    4.91
 -10  -5   5   27.28    3.61
 -10   5   5   24.18    4.83
  10   5  -5   23.13    3.43
  -9  -5   5   44.09    5.70
   9  -5  -5   31.04    3.91
  -9  -5   5   28.80    3.62
  -9   5   5   28.09    4.47
   9   5  -5   22.93    3.20
  -8  -5   5   48.62    4.04
  -8  -5   5   58.34    6.59
   8  -5  -5   57.11    4.44
   8   5  -5   47.35    4.05
  -8   5   5   53.24    5.53
   7  -5  -5   49.60    3.72
  -7  -5   5   40.27    5.46
  -7  -5   5   42.07    3.46
   7   5  -5   44.53    3.68
  -7   5   5   47.65    4.60
  -6  -5   5   37.56    5.08
   6  -5  -5   44.38    3.26
  -6  -5   5   37.60    3.12
  -6   5   5   42.79    4.12
   6   5  -5   44.28    3.42
   5  -5  -5   46.58    3.21
  -5  -5   5   46.18    4.71
  -5  -5   5   44.39    3.12
   5   5  -5   46.93    3.44
  -5   5   5   50.32    4.36
   4  -5  -5   48.09    3.20
  -4  -5   5   50.53    3.03
   4  -5  -5   48.08    3.77
   4  -5  -5   51.30    3.32
  -4  -5   5   51.66    4.62
  -4  -5   5   50.49    3.62
   4   5  -5   48.62    3.39
  -4   5   5   51.69    4.16
   3  -5  -5   63.47    3.80
   3  -5  -5   68.53    3.74
   3  -5  -5   62.28    4.51
  -3  -5   5   58.30    4.06
  -3  -5   5   63.65    4.89
  -3  -5   5   61.26    3.33
  -3   5   5   67.31    4.69
   3   5  -5   61.72    3.94
  -2  -5   5  104.44    5.73
   2  -5  -5   98.17    5.19
  -2  -5   5   98.88    4.64
  -2  -5   5  101.27    6.30
   2  -5  -5   96.62    6.31
   2  -5  -5   94.58    5.24
   2   5  -5  102.10    5.69
  -2   5   5  106.65    6.48
  -1  -5   5  122.60    5.51
  -1  -5   5  120.18    7.11
  -1  -5   5  127.61    6.74
  -1  -5   5  120.34    5.51
   1  -5  -5  119.63    7.44
   1  -5  -5  126.83    6.25
   1   5  -5   97.07    6.75
  -1   5   5  117.20    6.63
   0  -5   5   63.49    4.25
   0  -5   5   66.26    4.17
   0  -5  -5   65.70    4.87
   0  -5   5   68.72    3.19
   0  -5   5   64.39    3.13
   0   5  -5   53.68    4.75
   0   5   5   65.89    4.19
  -1  -5  -5   55.09    4.54
   1  -5   5   56.37    2.85
   1  -5   5   61.02    3.87
  -1   5  -5   57.46    4.82
   1   5   5   56.31    3.89
  -2  -5  -5   29.72    3.67
   2  -5   5   31.95    1.95
   2  -5   5   29.74    2.63
   2   5   5   31.34    2.70
  -2   5  -5   37.43    4.41
   3  -5   5   42.12    3.28
   3  -5   5   40.67    2.57
  -3  -5  -5   41.09    4.09
  -3   5  -5   38.12    4.68
   4  -5   5   37.82    3.19
  -4  -5  -5   35.51    4.23
   4  -5   5   32.25    2.58
  -4   5  -5   38.07    4.84
   5  -5   5   61.35    4.37
   5  -5   5   59.64    3.94
  -5  -5  -5   50.64    5.04
  -5   5  -5   55.40    5.44
   6  -5   5   32.80    3.76
   6  -5   5   43.04    3.63
  -6  -5  -5   40.42    4.89
  -6   5  -5   38.92    5.21
  -7  -5  -5   21.63    3.93
   7  -5   5   20.11    3.21
   7  -5   5   31.30    3.74
  -7   5  -5   32.36    4.79
   8  -5   5   14.41    3.02
  -8  -5  -5   14.07    3.43
   8  -5   5    9.95    2.77
  -8   5  -5   16.56    4.02
 -10  -6   5    6.49    2.49
  10  -6  -5    3.83    2.28
 -10  -6   5    1.18    2.81
  10   6  -5    0.70    2.04
 -10   6   5    6.96    3.72
  -9  -6   5    4.70    2.03
  -9  -6   5    8.74    3.49
   9  -6  -5    1.43    1.74
  -9   6   5    9.67    3.68
   9   6  -5    4.47    2.07
  -8  -6   5    8.01    2.25
  -8  -6   5   12.69    3.83
   8  -6  -5    8.34    2.18
   8   6  -5   10.74    2.30
  -8   6   5   14.56    3.81
  -7  -6   5    6.94    1.94
   7  -6  -5    6.98    1.78
  -7  -6   5    4.72    2.97
   7   6  -5    5.52    1.83
  -7   6   5    3.24    2.55
  -6  -6   5    2.63    1.41
  -6  -6   5   -0.80    2.29
   6  -6  -5    1.16    1.32
   6   6  -5    3.40    1.50
  -6   6   5    2.21    2.06
   5  -6  -5    1.92    1.08
  -5  -6   5   -0.51    0.96
  -5  -6   5   -1.49    1.82
   5   6  -5    0.35    1.15
  -5   6   5    1.04    1.68
  -4  -6   5    1.44    0.95
   4  -6  -5    1.48    1.01
  -4  -6   5    1.49    1.26
  -4  -6   5   -0.66    1.77
   4   6  -5    0.30    1.11
  -4   6   5    1.28    1.46
  -3  -6   5    0.64    1.16
  -3  -6   5   -1.00    0.67
   3  -6  -5   -1.53    1.70
  -3  -6   5    2.20    1.70
   3  -6  -5    0.66    0.91
  -3   6   5    0.60    1.27
   3   6  -5   -0.52    0.86
  -2  -6   5    2.61    1.61
   2  -6  -5    0.83    0.78
  -2  -6   5    1.89    0.71
   2  -6  -5   -1.65    1.58
  -2  -6   5    2.24    1.18
   2   6  -5    1.32    1.02
  -2   6   5    0.89    1.19
  -1  -6   5    0.78    0.52
  -1  -6   5    1.41    1.08
  -1  -6   5   -0.04    0.55
   1  -6  -5   -0.18    1.74
   1   6  -5   -0.29    0.87
  -1   6   5    0.56    1.19
   0  -6  -5   -0.85    1.76
   0  -6   5    0.15    0.54
   0  -6   5    0.48    1.05
   0   6  -5   -0.77    1.48
   0   6   5    1.48    1.19
  -1  -6  -5   -2.50    1.62
   1  -6   5    0.09    0.55
   1  -6   5   -0.51    0.99
  -1   6  -5   -2.44    1.66
   2  -6   5    3.41    1.24
   2  -6   5    3.97    0.88
  -2  -6  -5    3.05    2.15
  -2   6  -5    4.79    2.30
   3  -6   5   11.18    2.08
  -3  -6  -5   12.03    2.95
   3  -6   5   10.14    1.39
  -3   6  -5    9.39    2.91
  -4  -6  -5    7.38    2.82
   4  -6   5   10.38    2.09
   4  -6   5   12.24    1.69
  -4   6  -5   11.83    3.33
   5  -6   5   13.80    2.48
   5  -6   5   11.75    1.90
  -5  -6  -5   14.72    3.32
  -5   6  -5    9.32    3.34
   6  -6   5   11.63    2.54
   6  -6   5   14.21    2.36
  -6  -6  -5    7.17    3.02
  -6   6  -5   10.59    3.62
   7  -6   5    6.57    2.08
   7  -6   5    6.86    2.39
  -7  -6  -5    8.55    3.09
  -7   6  -5    4.60    3.02
   8  -7  -5   34.53    3.80
  -8  -7   5   25.45    3.50
  -8  -7   5   40.54    6.05
  -8   7   5   33.79    5.38
   8   7  -5   29.97    3.74
   7  -7  -5   29.68    3.53
  -7  -7   5   42.41    6.06
  -7  -7   5   25.77    3.19
  -7   7   5   41.53    5.43
   7   7  -5   29.76    3.58
  -6  -7   5   25.93    3.04
  -6  -7   5   32.99    5.35
   6  -7  -5   32.59    3.44
  -6   7   5   37.99    4.86
   6   7  -5   30.23    3.42
   5  -7  -5   33.17    2.88
  -5  -7   5   23.32    4.47
  -5  -7   5   23.53    2.66
   5   7  -5   28.19    3.24
  -5   7   5   30.06    4.16
  -4  -7   5   32.58    4.58
  -4  -7   5   31.24    2.57
  -4  -7   5   29.14    3.41
   4  -7  -5   35.83    3.07
  -4   7   5   35.05    3.65
   4   7  -5   27.06    3.15
  -3  -7   5   34.10    3.59
  -3  -7   5   32.70    2.48
  -3  -7   5   34.26    4.34
   3   7  -5   38.80    3.30
  -3   7   5   39.54    3.88
  -2  -7   5   56.79    4.15
   2  -7  -5   36.07    4.91
  -2  -7   5   53.96    3.06
   2   7  -5   58.86    4.10
  -2   7   5   56.76    4.42
  -1  -7   5   67.72    4.77
   1  -7  -5   60.52    5.62
  -1  -7   5   70.36    3.63
  -1   7   5   68.14    5.09
   1   7  -5   80.77    4.89
   0  -7   5   46.20    3.68
   0  -7  -5   38.95    4.87
   0  -7   5   38.31    2.44
  -1  -7  -5   36.00    4.84
   1  -7   5   34.59    2.28
   1  -7   5   34.17    3.33
   2  -7   5   28.68    3.32
   2  -7   5   24.22    1.92
  -2  -7  -5   21.65    3.88
  -2   7  -5   15.71    3.44
  -3  -7  -5   18.90    3.82
   3  -7   5   21.83    2.08
   3  -7   5   27.37    3.31
  -3   7  -5   21.09    4.05
   4  -7   5   24.23    3.20
  -4  -7  -5   17.82    3.71
   4  -7   5   22.00    2.21
  -4   7  -5   24.53    4.47
  -5  -7  -5   22.70    4.51
   5  -7   5   31.27    2.74
   5  -7   5   30.45    3.79
  -5   7  -5   34.46    5.42
  -6  -8   5    3.07    1.66
  -6  -8   5    7.80    3.35
  -6   8   5    8.65    3.03
   6   8  -5    2.23    1.84
  -5  -8   5   -2.25    1.13
  -5  -8   5    3.18    2.92
  -5   8   5    1.20    2.03
   5   8  -5   -1.46    1.28
  -4  -8   5    0.18    1.49
  -4  -8   5    2.73    2.82
  -4  -8   5   -1.21    1.16
  -4   8   5   -1.26    1.51
   4   8  -5   -0.98    1.26
  -3  -8   5   -0.32    1.06
  -3  -8   5   -0.80    1.43
  -3   8   5    0.54    1.58
   3   8  -5   -0.28    1.31
  -2  -8   5    1.28    1.00
  -2  -8   5    1.24    1.52
   2   8  -5   -0.51    1.30
  -1  -8   5   -0.09    0.86
  -1  -8   5   -0.40    1.36
   1   8  -5   -1.76    1.11
   0  -8   5    0.12    0.85
   0  -8  -5   -1.87    2.18
   0  -8   5    3.25    1.66
   0   8  -5    1.26    1.36
   1  -8   5    1.58    1.35
   1  -8   5   -0.53    0.77
  -1  -8  -5    1.28    2.41
   2  -8   5    1.24    0.97
   2  -8   5    2.85    1.78
  -2  -8  -5    0.60    2.77
   3  -8   5    7.23    1.38
  -3  -8  -5    3.09    2.82
   3  -8   5    9.60    2.39
  12   0  -6   13.54    3.47
  11   0  -6   31.73    4.43
 -10   0   6   43.52    4.31
 -10   0   6   33.23    4.08
  10   0  -6   33.87    4.36
  -9   0   6   32.92    3.95
  -9   0   6   34.05    3.82
  -9   0   6   35.61    4.20
   9   0  -6   33.11    3.91
  -8   0   6   27.13    3.22
  -8   0   6   29.65    3.52
   8   0  -6   27.01    3.42
  -8   0   6   30.79    3.92
  -7   0   6   17.88    2.37
  -7   0   6   18.69    2.58
  -7   0   6   18.92    2.87
   7   0  -6   20.65    2.81
  -6   0   6    6.49    1.53
  -6   0   6    7.66    1.45
  -6   0   6    6.18    1.78
   6   0  -6    7.87    1.75
  -5   0   6   33.57    2.45
  -5   0   6   38.03    3.12
  -5   0   6   37.69    2.92
   5   0  -6   33.89    2.89
  -4   0   6    6.40    1.00
  -4   0   6    7.19    1.55
   4   0  -6    5.60    1.15
   4   0  -6    6.22    1.29
  -4   0   6    5.81    1.30
  -3   0   6   32.51    1.93
  -3   0   6   36.49    2.03
  -3   0   6   34.74    2.70
   3   0  -6   36.09    2.32
   3   0  -6   32.73    2.54
   2   0  -6   28.54    2.20
   2   0  -6   26.62    1.73
  -2   0   6   30.05    2.42
  -2   0   6   28.53    1.65
  -2   0   6   26.16    1.62
   1   0  -6    4.79    1.10
  -1   0   6    4.91    1.22
  -1   0   6    5.99    0.80
  -1   0   6    5.91    0.77
   1   0  -6    5.43    0.57
   0   0  -6   13.02    0.75
   0   0   6   13.79    1.06
   0   0   6   11.22    1.03
   0   0  -6   14.34    1.67
   0   0   6   12.43    1.83
   1   0   6    0.82    0.30
   1   0   6    1.76    1.05
  -1   0  -6    0.89    0.77
   1   0   6    0.29    0.57
  -2   0  -6    7.05    1.34
   2   0   6    7.96    1.14
   2   0   6    9.04    1.63
   3   0   6    4.41    1.14
  -3   0  -6    6.30    1.47
   3   0   6    4.66    1.57
   4   0   6    2.31    1.45
  -4   0  -6    0.62    1.11
   4   0   6    2.12    1.03
   5   0   6    3.42    1.69
  -5   0  -6    3.75    1.49
   5   0   6    1.81    1.25
   6   0   6    0.67    1.64
   6   0   6   -0.04    1.32
   7   0   6    7.12    2.02
   7   0   6    4.81    2.24
   8   0   6    5.04    2.04
  -8   0  -6    8.98    2.25
  -9   0  -6   17.13    3.13
   9   0   6   11.82    2.84
  12  -1  -6    8.65    3.30
  12   1  -6    9.26    3.05
  11  -1  -6   18.94    3.77
 -11  -1   6   22.83    3.49
 -11  -1   6   18.85    3.57
 -11   1   6   17.64    3.58
  11   1  -6   18.58    3.52
 -10  -1   6   32.29    4.42
 -10  -1   6   29.50    3.80
  10  -1  -6   29.48    4.19
  10   1  -6   24.14    3.63
 -10   1   6   29.43    4.02
  -9  -1   6   37.20    4.79
   9  -1  -6   31.28    4.07
   9   1  -6   32.62    3.82
  -9   1   6   37.91    4.43
  -9   1   6   35.36    4.10
  -9   1   6   29.97    3.65
   8  -1  -6   22.92    3.24
  -8  -1   6   17.97    3.25
  -8  -1   6   15.32    2.33
  -8   1   6   20.63    3.13
   8   1  -6   15.59    2.64
  -8   1   6   24.49    3.10
  -8   1   6   19.31    2.67
   7  -1  -6   32.72    2.91
  -7  -1   6   33.32    3.00
   7  -1  -6   38.87    3.81
  -7  -1   6   33.48    4.01
  -7  -1   6   33.41    2.96
  -7   1   6   33.65    3.20
  -7   1   6   37.24    3.47
  -7   1   6   35.19    2.90
   7   1  -6   31.39    3.08
  -6  -1   6   21.19    2.41
   6  -1  -6   22.42    2.59
   6  -1  -6   20.07    2.58
  -6  -1   6   26.05    3.25
  -6   1   6   19.97    2.15
   6   1  -6   16.96    2.23
  -6   1   6   21.43    2.70
  -5  -1   6  108.99    5.50
   5  -1  -6  104.43    6.20
   5  -1  -6   99.13    5.92
  -5  -1   6  111.52    6.72
  -5  -1   6  117.86    6.43
   5   1  -6  108.25    5.88
  -5   1   6  110.63    6.60
  -5   1   6  104.08    5.43
  -4  -1   6  113.30    5.44
  -4  -1   6  122.67    6.66
   4  -1  -6  110.16    6.37
   4  -1  -6  111.07    5.85
  -4  -1   6  104.71    5.26
  -4  -1   6  122.91    6.79
  -4   1   6  119.77    5.75
  -4   1   6  124.01    7.03
   4   1  -6  112.35    6.08
  -3  -1   6  166.51    7.80
  -3  -1   6  179.62    9.55
  -3  -1   6  187.56    9.67
   3  -1  -6  174.55    8.28
  -3  -1   6  174.94    7.77
   3  -1  -6  172.21    9.26
   3   1  -6  179.99    8.45
  -3   1   6  173.17    9.68
  -3   1   6  172.36    8.00
  -2  -1   6  143.48    6.67
   2  -1  -6  150.89    6.90
  -2  -1   6  148.09    6.66
  -2  -1   6  157.05    8.48
   2  -1  -6  159.63    8.15
   2   1  -6  153.34    7.13
  -2   1   6  149.28    6.85
  -2   1   6  142.75    8.31
   2   1  -6  150.85    8.00
  -1  -1   6  115.63    5.65
  -1  -1   6  114.58    5.22
   1  -1  -6  118.16    6.50
  -1  -1   6  117.75    5.24
  -1  -1   6  120.72    6.86
  -1   1   6  112.31    5.62
   1   1  -6  120.00    6.58
  -1   1   6  124.29    6.98
   1   1  -6  127.51    5.78
   0  -1   6   67.75    4.36
   0  -1   6   65.62    3.36
   0  -1   6   67.32    3.17
   0  -1   6   63.78    3.14
   0  -1  -6   65.59    4.08
   0   1  -6   64.05    3.86
   0   1   6   64.87    4.25
   0   1   6   64.77    3.35
   1  -1   6  111.39    5.10
   1  -1   6  109.11    5.06
   1  -1   6  108.61    5.30
   1  -1   6  105.83    6.59
  -1  -1  -6  106.83    6.17
  -1   1  -6  116.19    6.16
   1   1   6  110.75    5.38
   1   1   6  107.30    6.57
  -2  -1  -6  126.96    7.06
   2  -1   6  117.12    7.46
   2  -1   6  124.40    5.91
   2  -1   6  128.06    6.12
   2   1   6  123.29    6.00
   2   1   6  121.13    7.26
  -2   1  -6  125.57    6.75
   3  -1   6   74.59    4.35
   3  -1   6   83.13    5.64
  -3  -1  -6   84.83    5.20
   3  -1   6   87.85    4.45
  -3   1  -6   80.28    4.72
   3   1   6   83.53    4.40
   3   1   6   76.68    5.23
   4  -1   6  108.29    7.10
  -4  -1  -6  107.59    6.53
   4  -1   6  106.05    5.69
   4  -1   6  110.27    5.77
   4   1   6   98.76    6.59
  -4   1  -6  107.61    6.04
   4   1   6  108.83    5.67
   5  -1   6   55.41    4.76
  -5  -1  -6   61.09    4.51
   5  -1   6   56.42    3.87
   5   1   6   56.69    3.85
   5   1   6   56.01    4.44
   6  -1   6   43.41    4.34
   6  -1   6   41.45    3.66
  -6  -1  -6   45.10    3.90
   6   1   6   42.72    3.51
   6   1   6   41.95    4.12
   7  -1   6   22.41    3.62
   7  -1   6   19.42    2.93
   7   1   6   22.74    2.98
  -7   1  -6   22.42    3.35
   7   1   6   19.65    3.20
   8  -1   6   21.25    3.12
   8   1   6   20.39    3.11
   8   1   6   23.45    3.70
  -8   1  -6   22.54    3.59
   9  -1   6   12.59    2.71
  -9   1  -6    8.13    2.73
  12  -2  -6   12.09    3.71
 -12  -2   6   18.32    3.91
  12   2  -6    6.34    2.83
 -12   2   6   11.51    3.38
 -11  -2   6   33.10    4.91
  11  -2  -6   22.70    4.22
 -11   2   6   38.31    5.08
  11   2  -6   19.42    3.61
 -10  -2   6   30.73    4.45
  10  -2  -6   28.58    4.20
 -10   2   6   30.91    4.48
  10   2  -6   23.82    3.49
  -9  -2   6   36.60    4.95
  -9  -2   6   44.64    4.58
   9  -2  -6   43.91    4.78
   9   2  -6   29.41    3.57
  -9   2   6   46.36    5.17
  -8  -2   6   16.29    3.36
  -8  -2   6   21.29    3.11
   8  -2  -6   16.29    2.85
  -8   2   6   23.99    3.51
  -8   2   6   14.79    2.35
   8   2  -6    8.42    2.03
  -7  -2   6   14.73    2.40
   7  -2  -6   16.23    2.46
   7  -2  -6   15.03    2.12
  -7  -2   6   12.53    2.85
  -7   2   6   15.21    2.60
  -7   2   6   13.06    2.05
   7   2  -6   14.44    2.14
  -6  -2   6   14.34    1.85
   6  -2  -6   14.44    2.08
  -6  -2   6   13.97    2.19
  -6  -2   6   12.81    2.66
   6  -2  -6   16.12    2.17
   6   2  -6   11.39    1.76
  -6   2   6   14.34    2.48
  -6   2   6   14.34    1.85
  -5  -2   6   14.89    1.94
   5  -2  -6   13.58    1.69
   5  -2  -6   17.34    2.05
  -5  -2   6   16.80    2.65
  -5   2   6   15.27    2.30
   5   2  -6   13.91    1.75
  -5   2   6   15.18    1.74
  -4  -2   6   11.66    1.25
  -4  -2   6   19.22    1.88
   4  -2  -6   16.85    1.44
  -4  -2   6   16.28    2.41
   4  -2  -6   16.02    1.95
  -4   2   6   17.42    2.20
   4   2  -6   12.69    1.54
  -4   2   6   14.76    1.63
   3  -2  -6   32.64    2.48
  -3  -2   6   30.33    1.75
  -3  -2   6   25.50    1.62
  -3  -2   6   32.90    2.75
   3  -2  -6   29.93    1.75
  -3  -2   6   32.04    2.53
  -3   2   6   31.75    2.69
   3   2  -6   31.95    2.11
  -3   2   6   29.07    2.04
  -2  -2   6   10.83    0.74
   2  -2  -6   10.84    0.73
  -2  -2   6   14.31    1.91
   2  -2  -6   11.82    1.67
  -2  -2   6   11.52    1.75
  -2  -2   6   10.21    0.75
   2   2  -6   10.80    1.19
  -2   2   6   13.67    1.38
  -2   2   6   11.00    1.74
   1  -2  -6   18.15    2.10
  -1  -2   6   18.40    1.00
  -1  -2   6   20.35    2.13
  -1  -2   6   20.78    1.54
  -1  -2   6   17.78    0.99
   1   2  -6   23.51    1.52
  -1   2   6   17.64    2.23
   1   2  -6   19.70    1.78
  -1   2   6   20.94    1.59
   0  -2   6    3.52    0.49
   0  -2   6    3.16    0.48
   0  -2   6    2.38    1.23
   0  -2  -6    4.43    1.29
   0  -2   6    2.26    0.70
   0   2   6    2.88    0.80
   0   2   6    2.49    0.95
   0   2  -6    2.47    0.88
   1  -2   6    1.32    0.96
   1  -2   6    0.95    0.56
  -1  -2  -6   -0.22    0.69
   1  -2   6    0.18    0.50
   1  -2   6    0.71    0.57
  -1   2  -6    0.51    0.69
   1   2   6    1.96    0.81
   1   2   6    0.80    0.94
  -2  -2  -6    1.70    1.19
   2  -2   6    2.43    0.83
   2  -2   6    3.13    0.78
   2  -2   6    2.37    1.48
   2   2   6    2.91    0.96
   2   2   6    1.62    1.04
  -2   2  -6    1.72    0.80
   3  -2   6   10.38    1.55
   3  -2   6   14.66    1.61
   3  -2   6   12.66    2.28
  -3  -2  -6   10.00    2.04
   3   2   6   12.52    1.72
  -3   2  -6   13.77    1.64
   3   2   6   12.39    1.97
   4  -2   6    1.71    1.68
   4  -2   6    2.58    1.01
  -4  -2  -6    0.81    1.49
   4  -2   6    0.72    1.17
   4   2   6   -0.77    1.02
   4   2   6   -0.21    1.05
  -5  -2  -6    2.03    1.74
   5  -2   6    5.93    2.16
   5  -2   6    0.51    0.45
   5  -2   6    1.09    1.30
   5   2   6    2.19    1.42
   5   2   6    5.72    1.86
  -6  -2  -6   -1.71    1.55
   6  -2   6    2.40    1.74
   6  -2   6    3.12    1.57
   6   2   6    1.37    1.50
   6   2   6    1.15    1.48
  -6   2  -6    2.12    1.39
  -7  -2  -6    0.55    1.89
   7  -2   6    3.99    1.86
   7   2   6    2.86    1.82
  -7   2  -6    2.29    1.93
   8  -2   6    8.38    2.39
  -8   2  -6    9.72    2.67
   9  -2   6   13.80    3.03
  -9   2  -6    8.04    2.69
 -12  -3   6    6.56    3.09
  12  -3  -6    5.04    3.05
 -12   3   6    4.71    3.17
  12   3  -6    2.37    2.50
 -11  -3   6   22.27    3.64
 -11  -3   6   24.70    4.46
  11  -3  -6   24.27    4.15
  11   3  -6   13.30    3.00
 -11   3   6   14.83    3.83
 -10  -3   6   27.62    4.58
  10  -3  -6   21.83    3.68
 -10  -3   6   23.06    3.54
 -10   3   6   14.59    3.81
  10   3  -6   17.12    2.97
  -9  -3   6   30.72    4.71
   9  -3  -6   27.07    3.83
  -9  -3   6   33.14    3.83
   9   3  -6   23.18    3.13
  -9   3   6   27.46    4.38
  -8  -3   6   20.36    3.82
  -8  -3   6   22.71    3.03
   8  -3  -6   23.17    3.07
  -8   3   6   24.84    3.82
   8   3  -6   18.50    2.59
   7  -3  -6   17.84    2.40
  -7  -3   6   18.96    3.43
  -7  -3   6   17.63    2.61
   7  -3  -6   17.47    2.42
  -7   3   6   16.00    2.18
   7   3  -6   12.40    2.02
  -7   3   6   15.75    2.86
   6  -3  -6   18.86    2.06
  -6  -3   6   25.33    3.64
   6  -3  -6   26.58    2.31
  -6  -3   6   25.99    2.81
  -6   3   6   28.74    2.44
   6   3  -6   24.73    2.39
  -6   3   6   28.29    3.51
  -5  -3   6   78.74    4.78
  -5  -3   6   87.28    6.04
   5  -3  -6   85.06    4.71
   5  -3  -6   88.91    5.26
   5   3  -6   85.77    4.89
  -5   3   6   86.75    4.71
  -5   3   6   83.53    5.80
  -4  -3   6   70.85    4.95
  -4  -3   6   78.44    4.52
  -4  -3   6   67.52    3.80
   4  -3  -6   71.62    3.73
   4  -3  -6   65.75    4.34
  -4  -3   6   55.84    3.51
   4   3  -6   70.72    4.13
  -4   3   6   75.69    4.06
  -4   3   6   69.92    4.94
   3  -3  -6  172.91    9.78
   3  -3  -6  180.23    8.60
  -3  -3   6  187.24    8.24
  -3  -3   6  193.72   10.17
  -3  -3   6  188.70   10.19
  -3  -3   6  174.31    9.07
  -3   3   6  187.68    8.64
   3   3  -6  180.42    8.99
  -3   3   6  184.23   10.35
  -2  -3   6   98.29    5.78
  -2  -3   6   91.56    5.12
   2  -3  -6   92.53    5.63
  -2  -3   6   96.67    5.92
  -2   3   6   96.64    4.88
   2   3  -6   94.42    4.99
  -2   3   6   94.67    5.88
   1  -3  -6   86.85    5.35
  -1  -3   6   81.85    5.62
  -1  -3   6   89.48    4.76
  -1  -3   6   90.16    5.33
   1   3  -6   92.47    4.72
  -1   3   6   93.81    4.67
  -1   3   6   82.43    5.50
   0  -3  -6   75.22    4.62
   0  -3   6   79.11    5.14
   0  -3   6   77.10    4.04
   0  -3   6   61.29    3.19
   0   3   6   74.77    4.02
   0   3   6   78.07    4.83
   0   3  -6   70.75    4.30
   1  -3   6   47.13    2.87
  -1  -3  -6   57.64    4.09
   1  -3   6   60.22    3.41
   1  -3   6   49.93    4.33
   1  -3   6   63.69    2.96
   1   3   6   61.93    3.59
  -1   3  -6   63.99    3.71
   1   3   6   59.36    4.15
   2  -3   6  109.81    7.24
   2  -3   6  104.65    5.40
   2  -3   6  112.33    5.81
  -2  -3  -6  107.31    6.67
   2   3   6  120.02    5.93
  -2   3  -6  112.01    6.18
   2   3   6  113.85    6.81
   3  -3   6   64.64    4.01
   3  -3   6   64.03    5.30
   3  -3   6   68.27    3.99
  -3  -3  -6   69.12    4.89
   3   3   6   69.32    4.12
   3   3   6   66.05    4.62
  -4  -3  -6   72.96    5.40
   4  -3   6   77.33    4.66
   4  -3   6   68.19    5.81
   4  -3   6   78.73    4.65
   4   3   6   69.79    4.89
   4   3   6   77.51    4.56
   5  -3   6   56.61    5.42
  -5  -3  -6   53.80    4.94
   5  -3   6   74.27    4.52
   5  -3   6   68.90    4.51
   5   3   6   56.35    4.33
  -5   3  -6   61.90    5.09
   5   3   6   58.79    4.17
   6  -3   6   35.32    3.74
   6  -3   6   40.87    3.38
  -6  -3  -6   27.94    3.96
  -6   3  -6   27.38    3.83
   7  -3   6   24.58    3.31
  -7  -3  -6   17.68    3.36
  -7   3  -6   20.52    3.61
   8  -3   6   28.23    3.68
  -8  -3  -6   16.32    3.55
  -8   3  -6   23.89    3.97
 -11  -4   6   23.22    3.60
 -11  -4   6   27.72    4.84
  11  -4  -6   18.26    3.80
  11   4  -6   20.06    3.44
 -11   4   6   29.09    5.08
  10  -4  -6   19.93    3.47
 -10  -4   6   20.38    3.30
 -10  -4   6   23.79    4.40
  10   4  -6   19.64    3.22
 -10   4   6   27.67    4.79
   9  -4  -6   26.75    3.55
  -9  -4   6   30.66    3.76
  -9  -4   6   32.30    5.02
   9   4  -6   24.30    3.29
  -9   4   6   36.82    5.08
  -8  -4   6   12.41    3.39
   8  -4  -6   11.51    2.31
  -8  -4   6   13.37    2.39
  -8   4   6   14.02    3.06
   8   4  -6   11.62    2.07
   7  -4  -6    8.75    1.76
  -7  -4   6   10.95    2.12
  -7  -4   6    8.81    2.98
  -7   4   6   11.99    2.75
   7   4  -6    9.51    1.88
  -6  -4   6   13.50    3.10
  -6  -4   6   10.99    2.01
   6  -4  -6   13.58    2.11
   6  -4  -6   11.72    1.77
  -6   4   6   14.72    2.58
   6   4  -6   11.45    1.89
  -5  -4   6   10.62    1.74
  -5  -4   6    9.38    2.58
   5  -4  -6    8.33    1.38
   5  -4  -6    9.57    1.78
   5   4  -6   11.24    1.76
  -5   4   6   11.46    2.36
  -4  -4   6    9.92    2.31
  -4  -4   6    9.60    1.48
   4  -4  -6    8.92    1.27
   4  -4  -6   12.10    2.02
   4   4  -6    8.83    1.47
  -4   4   6    8.25    1.90
  -4   4   6   13.23    1.71
  -3  -4   6   18.19    2.56
  -3  -4   6   25.59    1.56
  -3  -4   6   26.09    3.13
  -3  -4   6   23.42    2.20
  -3  -4   6   21.14    1.75
   3  -4  -6   24.76    1.77
   3  -4  -6   28.48    2.97
   3   4  -6   21.83    1.98
  -3   4   6   26.27    2.97
  -3   4   6   24.08    2.07
  -2  -4   6    7.74    1.38
   2  -4  -6    6.75    1.69
  -2  -4   6    7.09    0.81
  -2  -4   6   10.19    1.89
  -2  -4   6    8.64    2.00
   2   4  -6    7.85    1.29
  -2   4   6    9.01    1.81
  -2   4   6   10.26    1.50
  -1  -4   6   14.21    2.03
  -1  -4   6   13.35    1.74
   1  -4  -6   16.08    2.37
  -1  -4   6   14.81    2.56
  -1   4   6   15.85    1.81
  -1   4   6   14.01    2.03
   0  -4   6    2.47    0.49
   0  -4  -6    1.35    1.34
   0  -4   6    0.31    1.55
   0  -4   6    2.08    0.30
   0  -4   6    2.59    0.97
   0  -4   6    1.07    0.82
   0   4   6    2.63    1.30
   0   4   6    1.03    0.96
  -1  -4  -6    1.24    1.22
   1  -4   6    0.67    0.76
   1  -4   6    0.42    0.41
   1  -4   6   -1.22    1.37
   1  -4   6   -0.61    0.65
   1   4   6    1.02    1.03
  -1   4  -6    1.30    0.71
   1   4   6    0.03    0.89
   2  -4   6    1.69    0.98
   2  -4   6    2.65    0.75
  -2  -4  -6    1.73    1.61
   2  -4   6    0.93    1.83
   2   4   6    1.57    0.99
   2   4   6    1.73    1.08
   3  -4   6    7.72    2.26
   3  -4   6    8.32    1.56
  -3  -4  -6    6.31    2.12
   3  -4   6    8.04    1.35
   3   4   6    7.17    1.57
  -3   4  -6    9.03    2.34
   3   4   6    5.76    1.52
   4  -4   6    0.46    1.08
   4  -4   6    0.78    1.02
  -4  -4  -6    0.06    1.75
  -4   4  -6   -0.11    1.54
   5  -4   6    2.24    1.47
  -5  -4  -6    1.16    2.02
   5  -4   6    0.56    1.43
  -5   4  -6    4.09    2.06
   6  -4   6    3.45    1.61
  -6  -4  -6   -1.23    2.04
   6  -4   6    1.20    1.71
  -6   4  -6    1.98    2.00
   7  -4   6    5.92    2.04
  -7  -4  -6    3.34    2.44
   7  -4   6    5.20    2.28
  -7   4  -6    3.49    2.42
   8  -4   6   11.06    2.90
  -8  -4  -6    0.76    2.42
  -8   4  -6    3.80    2.67
  10  -5  -6   14.50    3.12
 -10  -5   6   24.17    4.58
 -10  -5   6   23.03    3.43
 -10   5   6   17.68    4.42
  10   5  -6   12.85    2.86
  -9  -5   6   20.14    3.16
   9  -5  -6    9.87    2.47
  -9  -5   6   17.32    4.22
   9   5  -6   13.62    2.63
  -9   5   6   19.44    4.16
  -8  -5   6   10.90    2.36
   8  -5  -6   17.66    2.64
  -8  -5   6   12.66    3.62
   8   5  -6   14.93    2.49
  -8   5   6   13.34    3.43
  -7  -5   6   16.23    3.81
  -7  -5   6   18.41    2.58
   7  -5  -6   14.64    2.24
   7   5  -6   13.82    2.26
  -7   5   6   15.09    3.04
   6  -5  -6   14.35    1.98
  -6  -5   6   13.80    2.09
  -6  -5   6   12.81    3.26
  -6   5   6   15.76    3.04
   6   5  -6    9.35    1.90
   5  -5  -6   58.07    3.64
  -5  -5   6   56.37    5.23
  -5  -5   6   54.20    3.63
  -5   5   6   59.85    4.95
   5   5  -6   62.12    4.10
   4  -5  -6   62.08    4.60
  -4  -5   6   57.32    4.92
  -4  -5   6   59.40    4.12
  -4  -5   6   58.42    3.51
  -4   5   6   65.92    4.90
   4   5  -6   60.86    4.04
  -3  -5   6   96.61    6.19
  -3  -5   6   87.65    4.42
  -3  -5   6   84.88    5.29
   3  -5  -6   85.99    5.94
   3   5  -6   92.05    5.26
  -3   5   6   91.38    5.99
  -2  -5   6   82.72    3.76
   2  -5  -6   79.72    5.57
  -2  -5   6   91.39    5.59
  -2  -5   6   79.80    4.96
  -2  -5   6   77.84    3.87
   2   5  -6   81.30    4.70
  -2   5   6   78.27    5.35
   1  -5  -6   56.06    4.60
  -1  -5   6   53.73    2.65
  -1  -5   6   62.45    4.12
  -1  -5   6   57.44    3.83
   1   5  -6   59.99    3.69
  -1   5   6   54.75    4.15
   0  -5   6   38.29    1.88
   0  -5   6   39.99    4.09
   0  -5  -6   35.20    3.60
   0  -5   6   35.67    2.92
   0   5   6   43.06    3.37
   0   5  -6   31.34    3.89
  -1  -5  -6   50.26    4.43
   1  -5   6   50.51    2.58
   1  -5   6   59.39    3.78
  -1   5  -6   47.72    4.44
   2  -5   6   64.07    4.31
   2  -5   6   65.31    3.31
  -2  -5  -6   66.85    5.22
   2   5   6   62.06    4.34
  -2   5  -6   63.17    5.41
  -3  -5  -6   45.73    4.92
   3  -5   6   51.52    3.70
   3  -5   6   46.57    2.86
  -3   5  -6   44.08    4.69
  -4  -5  -6   48.87    5.00
   4  -5   6   59.11    3.65
   4  -5   6   64.88    4.34
  -4   5  -6   63.65    5.75
  -5  -5  -6   33.85    4.67
   5  -5   6   42.07    3.69
   5  -5   6   43.69    3.39
  -5   5  -6   38.81    4.99
  -6  -5  -6   23.93    4.04
   6  -5   6   27.01    3.44
   6  -5   6   23.21    3.05
  -6   5  -6   29.74    4.62
   7  -5   6   15.18    2.86
   7  -5   6   12.32    2.66
  -7  -5  -6    8.96    3.32
  -7   5  -6   15.18    3.70
  -9  -6   6   13.48    2.67
   9  -6  -6    9.34    2.36
  -9  -6   6   18.84    4.31
   9   6  -6   10.78    2.57
  -9   6   6   12.80    3.93
   8  -6  -6   12.41    2.39
  -8  -6   6    6.55    3.33
  -8  -6   6    8.81    2.18
   8   6  -6   15.39    2.51
  -8   6   6    9.27    3.32
  -7  -6   6    9.75    2.17
   7  -6  -6    8.29    1.97
  -7  -6   6    4.81    3.01
  -7   6   6    7.59    2.81
   7   6  -6    5.61    1.87
  -6  -6   6    5.31    1.62
  -6  -6   6    1.51    2.49
   6  -6  -6    6.11    1.69
   6   6  -6    5.35    1.67
  -6   6   6    2.70    2.17
  -5  -6   6    9.14    2.92
  -5  -6   6   12.08    1.85
   5   6  -6    9.41    1.95
  -5   6   6   12.75    2.76
  -4  -6   6    5.89    1.69
  -4  -6   6    5.49    2.30
  -4  -6   6    5.26    1.28
  -4   6   6    4.86    1.93
   4   6  -6    4.37    1.46
  -3  -6   6   14.14    2.84
   3  -6  -6    8.60    2.62
  -3  -6   6   12.14    2.16
  -3  -6   6   11.94    1.43
  -3   6   6   16.58    2.66
   3   6  -6   12.55    2.00
   2  -6  -6    6.50    2.36
  -2  -6   6    9.39    1.12
  -2  -6   6   11.77    2.40
  -2  -6   6    6.28    1.61
  -2   6   6   10.35    2.11
   2   6  -6    9.91    1.75
  -1  -6   6    4.08    1.46
  -1  -6   6    3.81    0.71
   1  -6  -6    5.72    2.43
  -1   6   6    3.07    1.41
   1   6  -6    3.91    1.32
   0  -6   6    1.56    1.20
   0  -6   6    2.36    0.59
   0  -6  -6    1.88    2.04
   0   6  -6    3.01    1.91
   0   6   6    3.11    1.42
   1  -6   6    0.43    0.53
   1  -6   6    1.14    1.17
  -1  -6  -6   -0.58    1.95
  -1   6  -6    1.27    2.12
   2  -6   6    3.32    0.78
   2  -6   6    1.70    1.30
  -2  -6  -6    2.02    2.18
  -2   6  -6    0.50    2.05
   3  -6   6    1.24    0.83
  -3  -6  -6    1.48    2.31
   3  -6   6    3.18    1.46
  -3   6  -6    0.84    2.16
   4  -6   6    0.27    0.98
  -4  -6  -6   -1.53    2.15
   4  -6   6    1.12    1.40
  -4   6  -6    2.33    2.52
   5  -6   6    1.53    1.74
   5  -6   6    2.30    1.29
  -5  -6  -6    0.33    2.35
  -5   6  -6    1.45    2.46
  -6  -6  -6    0.85    2.57
   6  -6   6    4.08    2.09
   6  -6   6   -1.11    1.36
  -6   6  -6    1.70    2.68
  -8  -7   6    7.02    3.68
  -8  -7   6    6.11    2.11
   8   7  -6    7.19    2.24
  -8   7   6    9.64    3.61
  -7  -7   6    9.69    3.67
  -7  -7   6    9.09    2.24
  -7   7   6   10.91    3.37
   7   7  -6    8.19    2.23
  -6  -7   6    9.08    2.05
  -6  -7   6    7.56    3.29
  -6   7   6   12.93    3.19
   6   7  -6   10.53    2.25
  -5  -7   6   29.84    4.73
  -5  -7   6   33.84    2.93
   5   7  -6   28.31    3.33
  -5   7   6   34.89    4.41
  -4  -7   6   39.99    2.94
  -4  -7   6   38.86    3.73
  -4  -7   6   40.82    5.11
  -4   7   6   40.28    4.08
   4   7  -6   40.02    3.50
  -3  -7   6   48.74    3.95
  -3  -7   6   50.54    3.17
  -3  -7   6   57.91    5.10
   3   7  -6   47.55    3.65
  -3   7   6   52.20    4.34
  -2  -7   6   40.68    3.75
  -2  -7   6   46.56    2.74
   2  -7  -6   43.85    5.30
   2   7  -6   49.80    3.79
  -2   7   6   46.47    4.08
  -1  -7   6   34.99    3.30
  -1  -7   6   30.72    2.07
   1  -7  -6   27.05    4.18
   1   7  -6   42.24    3.45
   0  -7   6   26.19    3.13
   0  -7   6   21.30    1.64
   0  -7  -6   19.11    3.74
   1  -7   6   34.20    3.62
   1  -7   6   30.29    1.98
  -1  -7  -6   24.12    4.19
  -2  -7  -6   39.08    5.16
   2  -7   6   37.33    3.64
   2  -7   6   41.34    2.47
  -2   7  -6   33.50    4.84
   3  -7   6   32.99    3.63
  -3  -7  -6   27.16    4.41
   3  -7   6   25.66    2.11
  -3   7  -6   25.35    4.44
   4  -7   6   35.96    2.64
   4  -7   6   34.48    3.86
  -4  -7  -6   29.45    4.76
  -4   7  -6   34.26    5.33
  -5  -8   6    5.54    3.14
  -5  -8   6    3.88    1.63
   5   8  -6    4.21    1.87
  -5   8   6    6.87    2.60
  -4  -8   6    3.87    1.92
  -4  -8   6    3.81    1.49
   4   8  -6    3.31    1.67
  -4   8   6    6.38    2.32
  -3  -8   6    5.43    1.41
  -3  -8   6    6.05    2.10
   3   8  -6    8.44    2.11
  -2  -8   6    1.33    1.03
  -2  -8   6    2.81    1.79
   2   8  -6    6.58    1.96
  -1  -8   6    3.63    1.55
  -1  -8   6    4.37    1.06
   1  -8  -6   -3.24    2.34
   1   8  -6    3.95    1.45
   0  -8  -6   -1.41    2.78
   0  -8   6   -0.76    1.39
   0  -8   6    0.69    0.82
   0   8  -6   -0.05    1.37
  -1  -8  -6   -4.07    2.11
   1  -8   6    0.79    0.84
   1  -8   6    0.78    1.58
  -2  -8  -6   -2.88    2.23
   2  -8   6    2.14    0.95
   2  -8   6    1.54    1.67
  12   0  -7   17.92    3.78
 -11   0   7   32.60    4.82
 -11   0   7   30.60    4.15
  11   0  -7   30.55    4.31
  10   0  -7   36.21    4.39
 -10   0   7   38.63    5.01
 -10   0   7   30.48    3.93
  -9   0   7   35.90    4.53
  -9   0   7   30.46    3.62
   9   0  -7   25.31    3.63
  -9   0   7   24.61    3.40
  -8   0   7   42.00    3.97
  -8   0   7   36.41    4.39
   8   0  -7   37.99    4.05
  -8   0   7   50.79    3.80
  -7   0   7   46.53    3.95
  -7   0   7   53.33    4.37
  -7   0   7   47.86    3.54
   7   0  -7   50.43    4.05
  -6   0   7   52.71    3.41
   6   0  -7   53.83    4.06
  -6   0   7   53.65    4.29
  -6   0   7   54.46    4.08
  -5   0   7   47.98    2.98
   5   0  -7   47.13    3.45
   5   0  -7   46.77    3.50
  -5   0   7   48.59    3.66
  -4   0   7   82.92    5.22
   4   0  -7   70.10    4.51
   4   0  -7   87.16    5.05
  -4   0   7   82.38    4.14
   3   0  -7   43.24    2.97
   3   0  -7   35.13    2.53
  -3   0   7   43.63    2.40
  -3   0   7   42.72    3.24
  -2   0   7   36.01    2.02
  -2   0   7   36.90    2.96
   2   0  -7   31.41    2.02
   2   0  -7   35.67    2.60
  -1   0   7    2.92    0.68
   1   0  -7    2.66    1.00
  -1   0   7    1.43    0.89
   0   0   7   12.85    2.05
   0   0   7   15.10    1.30
   0   0  -7   16.12    1.94
   1   0   7    1.89    0.74
   1   0   7    1.58    0.98
  -1   0  -7    1.86    0.99
   2   0   7    8.62    1.91
   2   0   7    8.58    1.24
  -2   0  -7   11.43    1.77
   3   0   7   23.05    2.25
   3   0   7   16.91    2.67
  -3   0  -7   23.99    2.34
   4   0   7    4.90    1.47
   4   0   7    4.79    1.81
  -4   0  -7    2.68    1.47
   5   0   7    1.13    1.67
  -5   0  -7   -2.63    1.40
   5   0   7    0.27    1.27
   6   0   7   -0.47    1.28
   6   0   7    0.07    1.75
   7   0   7    5.43    2.73
   7   0   7    4.33    2.05
   8   0   7    1.51    2.33
   8   0   7    4.44    2.05
  -8   0  -7    5.51    2.00
  12  -1  -7    2.13    2.66
  12   1  -7    0.44    2.39
  11  -1  -7    2.88    2.44
 -11  -1   7    3.60    2.23
 -11  -1   7    0.79    2.53
  11   1  -7    2.88    2.45
 -11   1   7    3.79    2.36
  10  -1  -7    3.20    2.44
 -10  -1   7    4.55    2.67
 -10  -1   7    3.43    2.08
 -10   1   7    5.56    2.44
 -10   1   7    4.63    2.10
  10   1  -7   -0.10    1.96
  -9  -1   7    3.99    1.94
  -9  -1   7    2.50    2.28
   9  -1  -7    0.44    1.96
   9  -1  -7    5.98    1.84
  -9   1   7    8.31    2.17
   9   1  -7    0.83    1.81
  -9   1   7    3.82    2.08
  -8  -1   7   10.62    2.94
   8  -1  -7   11.46    2.48
   8  -1  -7   11.22    2.29
  -8  -1   7    7.34    2.01
  -8  -1   7   10.04    2.08
   8   1  -7    6.92    2.03
  -8   1   7    7.39    1.85
  -8   1   7    9.92    2.40
   7  -1  -7   27.28    3.23
  -7  -1   7   28.26    2.99
   7  -1  -7   36.61    3.10
  -7  -1   7   32.97    4.08
  -7   1   7   32.03    2.88
  -7   1   7   41.19    3.68
   7   1  -7   31.27    3.35
  -6  -1   7   63.70    4.09
   6  -1  -7   64.93    4.50
   6  -1  -7   74.45    4.72
  -6  -1   7   69.40    4.77
  -6  -1   7   77.97    5.34
  -6   1   7   73.52    4.23
   6   1  -7   65.71    4.47
  -6   1   7   75.25    5.18
  -5  -1   7   53.05    4.11
  -5  -1   7   54.61    3.78
  -5  -1   7   48.74    3.04
   5  -1  -7   51.51    3.63
   5  -1  -7   46.06    3.37
   5   1  -7   52.36    3.41
  -5   1   7   49.23    3.10
  -5   1   7   51.85    3.96
  -4  -1   7   59.33    4.33
  -4  -1   7   62.07    3.25
  -4  -1   7   66.03    4.26
   4  -1  -7   60.91    3.46
   4  -1  -7   54.67    3.94
  -4   1   7   57.19    3.30
   4   1  -7   59.40    3.54
  -4   1   7   60.67    4.25
  -3  -1   7   60.88    4.14
   3  -1  -7   60.63    3.94
  -3  -1   7   60.14    3.02
  -3  -1   7   57.07    2.97
  -3   1   7   59.13    3.16
   3   1  -7   56.77    3.80
  -3   1   7   55.78    4.06
  -2  -1   7   70.01    3.34
  -2  -1   7   74.68    4.70
  -2  -1   7   66.46    3.30
   2  -1  -7   65.98    4.33
  -2   1   7   69.97    3.69
  -2   1   7   70.19    4.75
   2   1  -7   75.28    3.75
   2   1  -7   72.07    4.44
  -1  -1   7   58.11    3.13
   1  -1  -7   60.83    3.93
  -1  -1   7   59.28    4.21
  -1  -1   7   60.04    2.93
  -1  -1   7   58.41    2.91
  -1   1   7   60.85    3.19
   1   1  -7   56.02    3.76
  -1   1   7   58.07    4.14
   1   1  -7   62.03    3.09
   0  -1   7  118.89    5.48
   0  -1  -7  123.89    6.83
   0  -1   7  114.72    7.20
   0  -1   7  118.28    5.46
   0   1   7  119.53    5.61
   0   1  -7  112.39    6.47
   0   1  -7  120.36    5.60
   0   1   7  110.75    6.90
   1  -1   7  107.07    6.57
   1  -1   7   97.60    4.88
  -1  -1  -7  103.76    6.06
  -1   1  -7  104.93    5.95
   1   1   7  105.84    5.23
   1   1   7  102.65    6.47
   2  -1   7   73.94    3.90
  -2  -1  -7   75.38    4.80
   2  -1   7   70.14    5.20
   2   1   7   71.16    5.13
  -2   1  -7   81.37    4.75
   2   1   7   75.95    4.19
   3  -1   7   67.87    5.27
  -3  -1  -7   72.18    4.84
   3  -1   7   74.80    4.12
  -3   1  -7   75.97    4.77
   3   1   7   81.46    4.45
   3   1   7   76.89    5.39
   4  -1   7   56.03    4.74
  -4  -1  -7   68.04    4.63
   4  -1   7   62.34    3.98
   4   1   7   67.14    5.05
  -4   1  -7   70.56    4.51
   4   1   7   65.83    4.20
   5  -1   7   26.29    3.75
   5  -1   7   30.81    3.04
  -5  -1  -7   25.84    3.31
   5   1   7   33.32    3.21
   5   1   7   26.76    3.46
   6  -1   7   19.24    3.43
  -6  -1  -7   20.94    3.09
   6  -1   7   23.83    2.99
   6   1   7   20.71    3.23
   6   1   7   24.99    2.98
   7  -1   7   22.18    3.84
   7  -1   7   31.58    3.55
   7   1   7   24.79    3.23
   7   1   7   26.29    3.67
   8  -1   7   16.46    2.92
   8   1   7   16.92    3.25
   8   1   7   12.31    2.71
  -8   1  -7   14.22    3.00
  12  -2  -7   33.62    4.88
 -12  -2   7   23.06    3.80
 -12  -2   7   23.39    4.56
 -12   2   7   20.15    4.33
  12   2  -7   21.81    3.80
 -11  -2   7   27.05    3.73
 -11  -2   7   31.50    4.87
  11  -2  -7   30.26    4.44
 -11   2   7   36.04    5.07
  11   2  -7   23.70    3.78
  10  -2  -7   23.91    4.04
 -10  -2   7   28.08    4.56
  10   2  -7   18.33    3.15
 -10   2   7   25.44    4.44
  -9  -2   7   37.08    5.02
   9  -2  -7   30.39    3.89
  -9   2   7   22.67    3.16
   9   2  -7   31.16    3.56
  -9   2   7   34.55    4.58
   8  -2  -7   19.58    2.95
   8  -2  -7   30.79    3.04
  -8  -2   7   22.72    3.81
   8   2  -7   21.66    2.89
  -8   2   7   26.70    3.02
  -8   2   7   27.88    3.88
   7  -2  -7   51.33    4.01
   7  -2  -7   48.14    3.89
  -7  -2   7   51.06    4.78
  -7   2   7   48.06    4.34
   7   2  -7   42.42    3.50
  -7   2   7   46.96    3.43
  -6  -2   7   56.43    4.73
  -6  -2   7   56.50    4.05
   6  -2  -7   55.19    4.00
   6  -2  -7   54.97    3.77
   6   2  -7   51.20    3.62
  -6   2   7   58.15    3.59
  -6   2   7   52.10    4.38
  -5  -2   7   26.68    3.26
  -5  -2   7   24.04    2.49
   5  -2  -7   25.73    2.07
  -5  -2   7   23.69    2.02
   5  -2  -7   24.69    2.43
   5   2  -7   26.34    2.20
  -5   2   7   24.79    2.11
  -5   2   7   26.35    3.16
  -4  -2   7  104.32    5.07
   4  -2  -7  100.89    5.29
  -4  -2   7  108.36    6.44
   4  -2  -7  108.33    6.26
  -4  -2   7  109.34    6.64
  -4   2   7   99.46    6.47
  -4   2   7  107.87    5.32
   4   2  -7  102.33    5.48
  -3  -2   7   28.43    2.77
  -3  -2   7   28.20    1.65
   3  -2  -7   27.39    2.53
  -3  -2   7   30.40    1.70
  -3  -2   7   32.35    2.78
  -3   2   7   29.76    2.11
  -3   2   7   29.80    2.79
   3   2  -7   29.73    2.09
  -2  -2   7   25.94    1.88
  -2  -2   7   23.49    1.34
  -2  -2   7   27.08    2.60
   2  -2  -7   21.96    2.26
  -2  -2   7   23.11    1.33
  -2   2   7   28.35    2.46
  -2   2   7   25.26    1.90
   2   2  -7   22.48    2.17
   2   2  -7   26.48    1.76
  -1  -2   7   10.80    1.98
   1  -2  -7    9.06    1.66
  -1  -2   7    9.67    0.75
  -1  -2   7    9.44    0.77
  -1  -2   7    9.17    1.16
  -1   2   7   10.07    1.29
  -1   2   7    8.53    1.69
   1   2  -7    8.50    1.45
   1   2  -7   10.50    1.12
   0  -2   7    5.15    0.64
   0  -2   7    7.74    1.82
   0  -2  -7    5.69    1.44
   0  -2   7    5.06    0.67
   0  -2   7    3.62    0.82
   0   2   7    5.89    1.09
   0   2  -7    4.35    1.10
   0   2   7    6.00    1.50
   1  -2   7    0.80    1.31
   1  -2   7    1.31    0.66
  -1  -2  -7    0.30    1.09
   1  -2   7    1.70    0.66
   1   2   7   -0.08    0.79
  -1   2  -7    0.53    0.81
   1   2   7    0.43    0.85
   2  -2   7   11.35    1.46
   2  -2   7   10.12    2.09
  -2  -2  -7   15.97    2.32
   2  -2   7   10.14    1.37
   2   2   7   10.40    1.53
  -2   2  -7   11.16    1.63
   2   2   7   12.71    2.08
   3  -2   7   10.01    1.58
  -3  -2  -7    8.18    2.04
   3  -2   7   10.36    2.38
   3   2   7   10.44    1.99
   3   2   7   10.58    1.68
  -3   2  -7   10.46    1.60
   4  -2   7    5.67    2.26
  -4  -2  -7    9.44    2.16
   4  -2   7    6.40    1.59
   4   2   7   10.90    2.16
   4   2   7    9.69    1.84
   5  -2   7    0.82    1.44
  -5  -2  -7   -0.51    1.64
   5  -2   7    1.00    1.36
   5   2   7   -1.39    1.17
   5   2   7   -0.06    1.31
  -6  -2  -7   -1.74    1.76
   6  -2   7   -0.19    1.55
   6  -2   7    0.09    2.01
   6   2   7    0.32    1.60
   6   2   7   -0.47    1.54
   7  -2   7    2.31    1.85
  -7  -2  -7    0.47    2.08
   7   2   7    4.63    2.04
  -7   2  -7    3.63    2.08
   8  -2   7    2.16    2.13
  -8   2  -7    5.89    2.48
  12  -3  -7    0.81    3.00
 -12  -3   7    5.71    3.13
 -12   3   7    1.66    3.14
  12   3  -7   -2.74    2.03
 -11  -3   7    4.11    2.98
  11  -3  -7    3.76    2.62
  11   3  -7    1.25    2.16
 -11   3   7    5.55    3.51
  10  -3  -7    0.23    2.01
 -10  -3   7    2.21    2.62
 -10   3   7    0.08    2.48
  10   3  -7   -0.71    1.66
   9  -3  -7    5.31    2.10
  -9  -3   7    4.94    2.79
  -9  -3   7    7.62    2.38
   9   3  -7    2.28    1.67
  -9   3   7    8.65    2.96
  -8  -3   7    9.07    2.33
   8  -3  -7    9.85    2.29
  -8  -3   7    7.18    2.85
  -8   3   7    7.43    2.65
   8   3  -7   10.24    2.08
  -7  -3   7   13.53    2.36
   7  -3  -7   19.31    2.49
  -7  -3   7   15.96    3.27
   7  -3  -7   18.06    2.62
   7   3  -7   16.25    2.32
  -7   3   7   15.11    2.20
  -7   3   7   18.32    3.15
  -6  -3   7   72.13    5.88
  -6  -3   7   78.61    4.77
   6  -3  -7   79.73    5.17
   6  -3  -7   73.81    4.53
  -6   3   7   81.27    4.57
   6   3  -7   71.03    4.61
  -6   3   7   74.62    5.51
   5  -3  -7   36.18    3.11
   5  -3  -7   37.41    2.53
  -5  -3   7   36.88    4.14
  -5   3   7   31.35    2.60
   5   3  -7   38.16    2.75
  -5   3   7   37.05    3.48
  -4  -3   7   36.09    3.22
   4  -3  -7   37.55    3.13
  -4  -3   7   40.78    3.61
  -4   3   7   39.18    2.72
   4   3  -7   38.53    2.70
  -4   3   7   39.19    3.32
  -3  -3   7   68.15    3.19
   3  -3  -7   71.87    4.56
  -3  -3   7   75.61    4.84
  -3  -3   7   56.51    3.22
  -3  -3   7   70.69    4.05
   3   3  -7   74.95    4.14
  -3   3   7   69.97    4.05
  -3   3   7   75.50    5.08
  -2  -3   7   36.32    1.70
  -2  -3   7   37.11    3.29
  -2  -3   7   33.94    3.03
   2  -3  -7   36.44    3.06
  -2  -3   7   37.53    2.61
  -2   3   7   39.37    3.26
   2   3  -7   37.63    2.48
  -2   3   7   38.44    2.59
   1  -3  -7   53.89    3.96
  -1  -3   7   55.26    2.42
  -1  -3   7   53.02    2.39
  -1  -3   7   61.23    4.45
  -1   3   7   52.82    3.23
  -1   3   7   51.28    3.97
   1   3  -7   53.50    3.58
   1   3  -7   58.57    3.25
   0  -3   7  104.93    6.65
   0  -3  -7   98.69    6.09
   0  -3   7   92.51    4.42
   0   3   7  105.77    6.64
   0   3  -7  116.91    6.23
   0   3   7  106.24    5.59
   1  -3   7   64.77    3.10
  -1  -3  -7   61.11    4.36
   1  -3   7   62.48    4.95
   1  -3   7   56.81    3.24
   1   3   7   62.76    4.40
   1   3   7   64.69    3.73
  -1   3  -7   59.34    3.84
   2  -3   7   73.67    5.72
  -2  -3  -7   74.65    5.22
   2  -3   7   73.12    4.08
   2   3   7   75.51    4.35
   2   3   7   73.14    5.03
   3  -3   7   54.72    3.66
  -3  -3  -7   57.53    4.55
   3  -3   7   55.10    4.98
   3   3   7   59.18    3.75
   3   3   7   53.35    4.17
   4  -3   7   55.39    3.66
   4  -3   7   38.83    4.84
  -4  -3  -7   40.60    4.12
   4   3   7   45.48    3.84
   4   3   7   49.32    3.62
   5  -3   7   27.97    3.20
   5  -3   7   29.55    4.28
  -5  -3  -7   37.34    4.30
   5   3   7   31.22    3.36
   5   3   7   33.89    3.36
   6  -3   7   20.57    3.03
  -6  -3  -7   14.61    3.44
  -6   3  -7   19.73    3.48
  -7  -3  -7   18.18    3.62
   7  -3   7   30.62    3.69
  -7   3  -7   22.37    3.76
 -11  -4   7   23.96    4.69
 -11  -4   7   27.14    3.95
  11  -4  -7   21.71    3.81
  11   4  -7   18.13    3.33
 -11   4   7   28.87    5.04
 -10  -4   7   21.82    3.41
  10  -4  -7   23.08    3.50
 -10  -4   7   23.01    4.62
 -10   4   7   27.08    4.73
  10   4  -7   14.78    2.93
   9  -4  -7   26.34    3.41
  -9  -4   7   22.91    4.55
  -9  -4   7   26.71    3.53
  -9   4   7   26.81    4.54
   9   4  -7   16.34    2.73
  -8  -4   7   18.65    3.99
   8  -4  -7   19.87    2.72
  -8  -4   7   21.90    3.11
  -8   4   7   23.95    4.05
   8   4  -7   18.50    2.67
  -7  -4   7   43.66    3.74
  -7  -4   7   33.96    4.86
   7  -4  -7   41.56    3.26
   7   4  -7   34.27    3.11
  -7   4   7   32.22    4.18
  -6  -4   7   37.45    3.35
   6  -4  -7   42.94    3.70
  -6  -4   7   46.25    5.22
  -6   4   7   44.41    4.14
   6   4  -7   34.80    3.06
  -5  -4   7   21.40    3.45
   5  -4  -7   24.43    2.99
  -5  -4   7   18.37    2.24
  -5   4   7   19.10    2.82
  -5   4   7   22.33    2.39
   5   4  -7   18.12    2.26
  -4  -4   7   65.89    3.76
  -4  -4   7   63.01    5.08
   4  -4  -7   73.43    4.82
  -4   4   7   74.12    4.30
   4   4  -7   70.60    4.34
  -4   4   7   73.37    5.27
  -3  -4   7   27.71    1.59
  -3  -4   7   26.92    3.22
  -3  -4   7   27.45    3.32
  -3  -4   7   26.84    1.71
   3  -4  -7   26.72    3.04
  -3  -4   7   20.62    2.39
  -3   4   7   27.55    3.23
  -3   4   7   27.72    2.31
   3   4  -7   22.98    2.11
  -2  -4   7   20.17    2.71
  -2  -4   7   17.71    2.11
   2  -4  -7   18.13    2.65
  -2   4   7   13.07    2.28
  -2   4   7   19.09    2.06
   2   4  -7   16.84    1.84
   1  -4  -7    7.68    1.93
  -1  -4   7    6.94    1.34
  -1  -4   7    5.80    1.60
  -1  -4   7    4.95    1.92
  -1   4   7    8.62    1.52
   1   4  -7    7.78    1.31
  -1   4   7    9.67    1.89
   0  -4  -7    2.86    1.61
   0  -4   7    4.45    1.15
   0  -4   7    5.00    2.00
   0   4   7    4.02    1.50
   0   4  -7    2.54    1.01
   0   4   7    4.93    1.32
   1  -4   7    1.06    0.48
   1  -4   7    0.95    0.60
  -1  -4  -7   -0.65    1.42
   1  -4   7    1.07    0.88
   1  -4   7    2.75    1.92
   1   4   7    0.32    1.07
   1   4   7    0.63    1.02
   2  -4   7    7.72    1.52
   2  -4   7    9.54    2.76
   2  -4   7    8.89    1.17
  -2  -4  -7   12.86    2.59
   2   4   7    9.51    1.88
   2   4   7   10.94    1.87
   3  -4   7    8.24    1.66
   3  -4   7    5.85    1.32
   3  -4   7   10.73    2.93
  -3  -4  -7    4.05    2.15
   3   4   7    5.46    1.62
   3   4   7    7.73    1.78
   4  -4   7    1.98    2.28
  -4  -4  -7    2.43    2.19
   4  -4   7    3.36    1.34
   4  -4   7    5.42    1.60
  -4   4  -7    9.98    2.57
  -5  -4  -7   -3.40    1.85
   5  -4   7   -0.37    1.42
  -5   4  -7    4.22    2.23
   6  -4   7    0.82    1.90
  -6  -4  -7   -1.20    2.28
  -6   4  -7    0.02    1.36
  -7  -4  -7    2.47    2.39
   7  -4   7    4.53    2.23
  -7   4  -7    5.58    2.55
 -10  -5   7    3.29    2.93
 -10  -5   7    5.95    2.44
  10  -5  -7    2.86    2.31
  10   5  -7    2.47    1.94
 -10   5   7    1.15    2.66
   9  -5  -7    3.45    1.87
  -9  -5   7    4.30    2.07
  -9  -5   7    3.11    2.82
  -9   5   7    3.45    2.76
   9   5  -7    2.55    1.80
  -8  -5   7    4.74    2.94
  -8  -5   7    6.49    2.16
   8   5  -7    7.13    1.97
  -8   5   7    6.28    2.45
  -7  -5   7    9.71    3.31
  -7  -5   7   15.86    2.48
   7   5  -7   15.24    2.41
  -7   5   7   13.89    3.18
  -6  -5   7   38.60    5.10
  -6  -5   7   39.32    3.29
  -6   5   7   40.67    4.23
   6   5  -7   37.29    3.27
  -5  -5   7   29.43    4.20
   5  -5  -7   27.57    3.47
  -5  -5   7   29.79    2.68
   5   5  -7   25.02    2.75
  -5   5   7   34.63    4.05
  -4  -5   7   32.44    2.91
   4  -5  -7   33.35    3.69
  -4  -5   7   29.97    3.83
  -4  -5   7   27.75    2.37
  -4   5   7   32.30    3.41
   4   5  -7   32.17    2.73
   3  -5  -7   36.27    3.99
  -3  -5   7   32.60    2.93
  -3  -5   7   38.44    3.70
  -3  -5   7   30.84    2.16
   3   5  -7   34.27    2.76
  -3   5   7   35.49    3.43
  -2  -5   7   38.79    3.05
  -2  -5   7   38.52    3.39
   2  -5  -7   28.65    3.69
  -2  -5   7   33.40    1.82
  -2  -5   7   36.41    1.65
  -2   5   7   39.84    3.53
   2   5  -7   38.88    2.92
  -1  -5   7   36.60    2.94
   1  -5  -7   36.14    4.06
  -1  -5   7   36.06    3.14
  -1  -5   7   27.60    3.88
   1   5  -7   34.96    2.74
  -1   5   7   36.52    3.31
   0  -5  -7   57.04    4.87
   0  -5   7   73.37    4.30
   0  -5   7   52.53    5.25
   0  -5   7   61.11    2.67
   0   5   7   64.35    4.63
  -1  -5  -7   47.81    4.54
   1  -5   7   55.78    3.83
   1  -5   7   53.92    2.53
   1  -5   7   49.05    5.18
   1   5   7   56.65    4.14
  -1   5  -7   49.71    4.75
   2  -5   7   39.90    2.27
  -2  -5  -7   37.98    4.46
   2  -5   7   43.46    3.43
   2   5   7   41.41    3.46
  -2   5  -7   41.71    4.41
   3  -5   7   44.27    3.57
  -3  -5  -7   44.29    4.61
   3  -5   7   47.56    2.83
  -3   5  -7   47.03    4.89
   4  -5   7   36.09    2.82
  -4  -5  -7   27.44    4.30
   4  -5   7   43.21    3.62
  -4   5  -7   37.24    4.87
  -5  -5  -7   14.30    3.62
   5  -5   7   21.50    2.93
   5  -5   7   22.07    2.61
  -5   5  -7   18.43    3.79
   6  -5   7   13.84    2.54
  -6  -5  -7   11.07    3.32
  -6   5  -7   20.83    3.94
  -9  -6   7   18.49    3.15
  -9  -6   7   13.90    4.15
  -9   6   7   12.18    3.70
   9   6  -7    9.34    2.38
  -8  -6   7   17.04    4.21
  -8  -6   7   18.40    2.98
   8   6  -7   16.59    2.74
  -8   6   7   18.32    4.12
  -7  -6   7   23.38    3.00
  -7  -6   7   18.70    4.31
  -7   6   7   30.07    4.52
   7   6  -7   22.78    3.12
  -6  -6   7   22.36    2.76
  -6  -6   7   25.11    4.49
  -6   6   7   25.24    3.94
   6   6  -7   21.52    2.83
  -5  -6   7   14.97    2.11
  -5  -6   7   19.09    3.59
  -5   6   7   23.08    3.42
   5   6  -7   20.03    2.58
   4  -6  -7   29.24    3.87
  -4  -6   7   33.67    3.18
  -4  -6   7   29.98    3.99
  -4  -6   7   31.62    2.55
  -4   6   7   38.20    4.37
   4   6  -7   37.10    3.16
  -3  -6   7   15.76    2.40
  -3  -6   7   21.30    3.12
  -3  -6   7   15.55    1.66
   3  -6  -7   17.66    3.22
  -3   6   7   20.04    3.02
   3   6  -7   18.92    2.41
  -2  -6   7   14.55    2.23
   2  -6  -7   10.61    2.72
  -2  -6   7   12.16    2.34
  -2  -6   7   12.06    1.19
   2   6  -7   11.65    1.86
  -2   6   7   10.49    2.21
  -1  -6   7    2.67    0.54
   1  -6  -7   -1.35    1.74
  -1  -6   7    4.90    1.52
   1   6  -7    2.58    1.25
  -1   6   7    3.08    1.72
   0  -6  -7    3.78    2.27
   0  -6   7    3.56    1.44
   0  -6   7    5.12    0.58
   0   6   7    6.95    1.80
  -1  -6  -7   -0.76    2.03
   1  -6   7   -0.58    1.09
   1  -6   7    0.47    0.46
  -1   6  -7   -0.02    1.70
   2  -6   7    4.93    1.59
  -2  -6  -7   -0.24    2.29
   2  -6   7    4.48    0.81
  -2   6  -7    8.97    2.90
  -3  -6  -7    5.63    2.81
   3  -6   7    6.63    1.81
   3  -6   7    5.47    1.04
  -3   6  -7    7.80    3.09
  -4  -6  -7   -4.16    2.18
   4  -6   7    3.48    1.78
   4  -6   7    2.81    1.09
  -4   6  -7    0.99    2.30
   5  -6   7    0.65    1.24
   5  -6   7   -0.83    1.37
  -5  -6  -7   -0.12    2.44
  -5   6  -7    2.99    2.68
  -7  -7   7    9.51    2.19
  -7  -7   7   11.29    4.02
   7   7  -7    6.93    2.21
  -7   7   7    8.76    3.03
  -6  -7   7   20.76    4.36
  -6  -7   7   19.83    2.68
   6   7  -7   25.89    3.33
  -6   7   7   31.77    4.57
  -5  -7   7   10.55    1.94
  -5  -7   7   11.49    3.18
   5   7  -7   20.03    2.75
  -5   7   7   13.82    3.10
  -4  -7   7   16.98    2.71
  -4  -7   7   18.92    2.16
  -4  -7   7   22.86    3.74
  -4   7   7   22.00    3.39
   4   7  -7   21.15    2.81
  -3  -7   7   19.24    2.89
  -3  -7   7   21.93    2.05
  -3   7   7   19.63    3.12
   3   7  -7   17.70    2.49
  -2  -7   7   19.66    1.72
   2  -7  -7   15.99    3.54
  -2  -7   7   26.35    3.18
   2   7  -7   22.86    2.80
  -2   7   7   18.76    2.87
   1  -7  -7   10.08    3.23
  -1  -7   7   24.45    3.06
  -1  -7   7   23.33    1.57
   1   7  -7   22.99    2.80
   0  -7   7   34.26    3.68
   0  -7  -7   27.07    4.40
   0  -7   7   32.28    1.85
   0   7  -7   36.11    3.26
  -1  -7  -7   32.87    4.74
   1  -7   7   38.07    3.60
   1  -7   7   36.00    2.04
   2  -7   7   22.56    1.63
   2  -7   7   23.31    3.11
  -2  -7  -7   17.91    3.91
   3  -7   7   28.38    2.07
   3  -7   7   29.27    3.50
  -3  -7  -7   29.98    4.78
  -3   7  -7   22.29    4.35
  -4  -8   7   24.25    2.51
  -4  -8   7   15.04    2.87
  -4   8   7   26.26    3.79
   4   8  -7   22.82    3.11
  -3  -8   7    6.04    1.42
  -3  -8   7    8.72    2.37
   3   8  -7   11.06    2.38
  -2  -8   7    6.04    1.22
  -2  -8   7    7.91    2.21
   2   8  -7    4.68    1.82
  -1  -8   7    1.81    0.88
  -1  -8   7   -0.35    1.54
   1  -8  -7   -3.03    2.87
   1   8  -7    4.05    1.74
   0  -8   7    2.15    0.81
   0  -8  -7   -3.62    2.30
   0  -8   7    2.16    1.72
   0   8  -7    1.32    1.43
  12   0  -8   23.66    4.15
  11   0  -8   26.91    4.31
 -11   0   8   28.73    4.05
 -11   0   8   20.00    4.25
 -10   0   8   24.91    4.32
  10   0  -8   27.67    3.76
 -10   0   8   20.54    3.38
   9   0  -8   17.59    3.16
  -9   0   8   23.36    3.49
  -9   0   8   23.86    3.93
  -9   0   8   23.57    3.18
   8   0  -8   63.50    5.00
  -8   0   8   68.37    5.49
  -8   0   8   73.44    4.66
  -8   0   8   57.83    4.99
   7   0  -8   49.22    4.15
   7   0  -8   46.67    3.93
  -7   0   8   42.85    4.29
  -7   0   8   45.94    4.03
  -7   0   8   49.85    3.48
  -6   0   8   86.30    4.70
  -6   0   8   82.40    5.66
   6   0  -8   72.47    5.15
   6   0  -8   87.57    5.54
  -5   0   8  100.04    6.44
  -5   0   8  102.48    5.18
   5   0  -8  100.69    6.19
   5   0  -8   97.29    5.70
  -4   0   8   40.73    3.42
   4   0  -8   38.16    3.15
  -4   0   8   42.24    2.55
  -3   0   8   29.76    2.86
  -3   0   8   32.15    2.02
   3   0  -8   26.04    2.53
  -2   0   8   20.26    1.58
   2   0  -8   22.97    2.23
  -2   0   8   21.49    2.68
  -1   0   8   21.33    1.63
  -1   0   8   20.75    2.73
   1   0  -8   26.54    2.34
   0   0   8   35.78    2.22
   0   0   8   33.62    3.18
   0   0  -8   31.32    2.75
   1   0   8   60.37    3.39
  -1   0  -8   61.56    4.13
   1   0   8   57.11    4.51
  -2   0  -8   22.43    2.61
   2   0   8   18.16    1.98
   2   0   8   21.09    2.97
   3   0   8   24.59    3.33
   3   0   8   23.19    2.39
  -3   0  -8   29.44    3.20
  -4   0  -8   -0.60    1.44
   4   0   8    2.01    1.34
   4   0   8   -0.61    1.55
   5   0   8    4.67    1.66
   5   0   8    2.49    2.03
   6   0   8   -1.11    1.69
   6   0   8    1.86    1.66
   7   0   8   -0.69    2.11
   7   0   8    2.64    1.94
 -12  -1   8    0.65    2.34
  12  -1  -8    2.36    2.70
 -12  -1   8    4.75    3.00
  12   1  -8   -1.26    2.17
 -11  -1   8   -1.65    1.97
 -11  -1   8   -0.69    2.68
  11  -1  -8   -3.91    2.00
  11   1  -8    0.61    2.22
 -10  -1   8    1.16    2.03
  10  -1  -8   -0.34    2.39
  10  -1  -8    3.96    1.95
 -10  -1   8   -2.97    2.49
  10   1  -8   -0.40    1.80
 -10   1   8   -0.67    1.91
 -10   1   8    2.71    2.10
  -9  -1   8    6.45    2.84
  -9  -1   8    1.98    1.66
   9  -1  -8    2.66    2.11
   9  -1  -8    8.19    2.13
   9   1  -8    5.61    2.16
  -9   1   8    2.63    1.72
  -9   1   8    5.19    2.27
  -8  -1   8    7.65    2.73
   8  -1  -8   10.85    2.45
  -8  -1   8    7.92    1.98
   8  -1  -8    9.88    2.37
   8   1  -8    7.57    2.20
  -8   1   8   12.32    2.17
  -8   1   8   11.91    2.71
   7  -1  -8   20.97    2.79
  -7  -1   8   18.25    3.28
   7  -1  -8   22.27    2.94
  -7  -1   8   17.35    2.38
  -7  -1   8   23.47    3.03
  -7   1   8   20.77    3.11
  -7   1   8   15.73    2.19
   7   1  -8   20.23    2.65
   6  -1  -8    7.13    1.66
  -6  -1   8   11.35    2.14
   6  -1  -8   10.59    2.07
  -6  -1   8    5.72    2.10
  -6  -1   8    8.44    1.54
  -6   1   8    8.75    1.55
  -6   1   8   10.60    2.21
   6   1  -8    9.31    1.75
  -5  -1   8   16.50    2.39
   5  -1  -8   15.00    2.23
  -5  -1   8   16.84    2.73
  -5  -1   8   16.16    1.74
  -5   1   8   15.22    1.77
  -5   1   8   15.24    2.43
   5   1  -8   13.84    1.91
   5   1  -8   15.71    2.35
   4  -1  -8   34.92    2.86
  -4  -1   8   33.50    3.01
  -4  -1   8   28.18    2.01
   4   1  -8   25.45    2.61
   4   1  -8   32.07    2.37
  -4   1   8   30.84    2.98
  -4   1   8   31.53    2.24
   3  -1  -8   19.59    2.40
  -3  -1   8   18.47    1.42
  -3  -1   8   19.17    2.56
   3   1  -8   16.11    2.17
  -3   1   8   18.58    1.58
  -3   1   8   16.67    2.47
  -2  -1   8   37.87    2.14
  -2  -1   8   37.01    3.32
   2  -1  -8   38.40    3.06
  -2   1   8   37.44    2.37
   2   1  -8   36.88    2.94
  -2   1   8   38.75    3.29
  -1  -1   8   48.76    3.83
  -1  -1   8   43.31    2.43
   1  -1  -8   45.09    3.42
   1   1  -8   46.23    3.33
  -1   1   8   43.77    2.70
  -1   1   8   48.60    3.75
   0  -1   8   38.28    3.60
   0  -1  -8   40.80    3.31
   0  -1   8   45.37    2.43
   0   1  -8   46.08    3.29
   0   1   8   44.05    3.67
   0   1   8   44.17    2.78
   1  -1   8   56.06    4.39
   1  -1   8   58.67    3.19
  -1  -1  -8   56.69    4.10
   1   1   8   57.11    3.41
  -1   1  -8   58.64    3.91
   1   1   8   57.03    4.27
   2  -1   8   50.68    4.22
  -2  -1  -8   45.29    3.66
   2  -1   8   44.97    2.92
   2   1   8   49.54    3.16
   2   1   8   47.52    4.03
  -2   1  -8   48.68    3.51
  -3  -1  -8   34.26    3.65
   3  -1   8   35.42    3.71
   3  -1   8   32.71    2.63
   3   1   8   35.37    3.57
  -3   1  -8   40.60    3.20
   3   1   8   32.58    2.84
  -4  -1  -8   38.87    3.58
   4  -1   8   34.32    3.61
   4  -1   8   32.18    3.12
   4   1   8   33.22    2.96
   4   1   8   33.68    3.94
  -5  -1  -8   22.70    3.39
   5  -1   8   24.63    3.00
   5  -1   8   26.50    3.89
   5   1   8   23.12    3.41
   5   1   8   23.41    2.86
   6  -1   8   35.49    4.63
   6  -1   8   28.65    3.40
   6   1   8   33.16    3.65
   6   1   8   31.44    4.14
   7  -1   8   30.92    3.68
   7  -1   8   22.94    4.17
   7   1   8   29.87    4.20
   7   1   8   30.80    3.68
 -12  -2   8   33.60    4.44
  12  -2  -8   31.58    4.76
 -12  -2   8   30.20    5.16
 -12   2   8   34.08    5.14
  12   2  -8   22.58    3.96
 -11  -2   8   19.49    3.51
 -11  -2   8   24.63    4.54
  11  -2  -8   23.05    3.95
 -11   2   8   18.43    4.03
  11   2  -8   13.78    3.07
 -10  -2   8   26.11    4.62
  10  -2  -8   28.51    4.08
 -10  -2   8   28.25    3.79
 -10   2   8   24.55    4.62
  10   2  -8   22.87    3.42
   9  -2  -8   27.38    3.53
  -9  -2   8   24.16    3.32
   9  -2  -8   23.74    3.53
  -9  -2   8   23.07    4.17
   9   2  -8   23.01    3.24
  -9   2   8   30.12    3.49
  -9   2   8   33.16    4.57
   8  -2  -8   43.80    3.88
  -8  -2   8   35.43    3.75
  -8  -2   8   45.50    4.56
   8  -2  -8   47.04    3.92
  -8   2   8   55.52    3.94
   8   2  -8   40.50    3.82
  -8   2   8   51.08    4.89
   7  -2  -8   57.09    4.31
  -7  -2   8   51.47    3.79
   7  -2  -8   53.99    4.08
  -7  -2   8   54.08    5.01
  -7   2   8   57.72    3.86
  -7   2   8   60.33    4.95
   7   2  -8   45.62    3.93
  -6  -2   8   72.50    4.29
  -6  -2   8   68.65    5.62
  -6  -2   8   76.66    5.17
   6  -2  -8   78.88    5.15
  -6   2   8   75.24    5.54
   6   2  -8   69.22    4.53
  -6   2   8   75.05    4.39
   5  -2  -8   69.90    4.87
  -5  -2   8   78.18    5.44
  -5  -2   8   72.55    4.97
  -5  -2   8   70.04    3.88
  -5   2   8   78.79    5.46
  -5   2   8   71.99    4.26
   5   2  -8   73.87    4.43
  -4  -2   8   58.92    3.19
   4  -2  -8   58.42    4.26
  -4  -2   8   72.19    4.76
  -4  -2   8   58.88    4.46
  -4   2   8   61.81    3.55
  -4   2   8   61.56    4.43
   4   2  -8   55.21    3.52
  -3  -2   8   15.73    1.20
  -3  -2   8   17.26    2.53
   3  -2  -8   16.44    2.30
  -3   2   8   19.03    1.90
   3   2  -8   16.23    2.18
  -3   2   8   16.91    2.52
   3   2  -8   18.80    1.64
  -2  -2   8   20.50    1.29
   2  -2  -8   24.76    2.71
  -2  -2   8   23.40    2.97
  -2  -2   8   17.98    1.24
   2   2  -8   23.25    2.52
  -2   2   8   21.71    1.84
   2   2  -8   20.12    1.61
  -2   2   8   19.88    2.68
  -1  -2   8   31.42    1.69
   1  -2  -8   25.79    2.71
  -1  -2   8   31.81    3.20
  -1  -2   8   30.08    1.71
  -1   2   8   30.44    2.23
  -1   2   8   30.46    2.95
   1   2  -8   29.14    2.54
   0  -2   8   17.87    1.37
   0  -2  -8   20.36    2.54
   0  -2   8   22.41    3.04
   0   2  -8   22.21    2.43
   0   2   8   18.41    1.97
   0   2   8   21.13    2.77
   1  -2   8   58.06    4.94
   1  -2   8   66.49    3.43
  -1  -2  -8   64.25    4.57
  -1   2  -8   68.79    4.37
   1   2   8   66.03    3.90
   1   2   8   67.75    4.90
   2  -2   8   17.60    1.85
  -2  -2  -8   17.23    2.61
   2  -2   8   16.13    2.89
   2   2   8   19.16    2.17
  -2   2  -8   20.78    2.28
   2   2   8   16.57    2.50
  -3  -2  -8   16.43    2.79
   3  -2   8   16.10    3.02
   3  -2   8   16.45    2.01
   3   2   8   16.74    2.19
   3   2   8   16.91    2.71
  -4  -2  -8   -0.65    1.70
   4  -2   8    0.80    1.96
   4  -2   8    1.45    1.39
   4   2   8    3.89    1.77
   4   2   8    2.30    1.40
   5  -2   8    1.10    1.48
   5  -2   8    3.78    2.33
  -5  -2  -8    0.88    1.87
   5   2   8    0.43    1.83
   5   2   8    3.27    1.61
   6  -2   8   -0.44    1.60
   6  -2   8    0.73    2.17
  -6  -2  -8   -4.44    1.71
   6   2   8    0.75    1.63
   6   2   8   -0.82    1.66
   7  -2   8    1.91    2.01
  -7   2  -8    4.37    2.15
   7   2   8    1.48    2.03
  11  -3  -8   -2.58    2.30
 -11  -3   8   -0.47    2.60
 -11   3   8    3.02    2.93
  11   3  -8   -3.64    1.70
 -10  -3   8   -0.42    2.54
  10  -3  -8   -2.77    1.90
 -10   3   8   -0.64    2.32
  10   3  -8   -0.40    1.68
  -9  -3   8    6.00    2.95
   9  -3  -8    6.29    2.10
  -9   3   8    8.50    3.02
   9   3  -8    1.21    1.57
   8  -3  -8    8.05    2.23
  -8  -3   8    8.60    2.72
  -8   3   8    7.11    2.72
   8   3  -8    9.39    2.03
  -7  -3   8   11.97    3.04
   7  -3  -8   12.15    2.31
  -7   3   8    9.03    2.53
  -7   3   8   11.96    2.03
   7   3  -8    8.41    1.81
  -6  -3   8    8.80    2.61
   6  -3  -8   20.15    2.69
  -6  -3   8   11.37    1.74
  -6   3   8   16.58    2.91
   6   3  -8   12.27    1.91
  -6   3   8   15.06    2.05
   5  -3  -8    6.88    1.84
  -5  -3   8    7.83    2.25
  -5  -3   8    5.86    1.15
  -5   3   8    8.08    1.94
  -5   3   8    8.52    1.60
   5   3  -8    6.97    1.42
  -4  -3   8   21.34    1.58
  -4  -3   8   28.97    3.44
   4  -3  -8   22.45    2.87
  -4   3   8   18.76    2.09
   4   3  -8   22.90    1.98
  -4   3   8   18.72    2.85
   3  -3  -8   28.15    3.11
  -3  -3   8   20.91    1.49
  -3  -3   8   26.28    1.44
  -3  -3   8   26.11    3.27
  -3  -3   8   30.03    2.96
   3   3  -8   25.31    2.14
  -3   3   8   27.92    2.28
  -3   3   8   27.99    2.95
  -2  -3   8   17.88    1.02
   2  -3  -8   17.84    2.57
  -2  -3   8   20.12    2.91
  -2  -3   8   18.69    1.99
  -2   3   8   19.30    2.07
   2   3  -8   17.59    1.67
   2   3  -8   15.66    2.17
  -2   3   8   16.26    2.48
   1  -3  -8   45.25    3.78
  -1  -3   8   47.73    2.26
  -1  -3   8   48.47    4.26
  -1  -3   8   48.90    3.17
  -1   3   8   46.66    3.14
  -1   3   8   48.03    3.91
   1   3  -8   49.20    3.00
   1   3  -8   50.18    3.49
   0  -3   8   43.48    3.01
   0  -3  -8   35.40    3.39
   0  -3   8   35.86    2.12
   0  -3   8   37.61    1.90
   0  -3   8   40.83    3.94
   0   3   8   42.67    3.64
   0   3   8   44.36    2.98
   0   3  -8   39.94    3.06
  -1  -3  -8   34.22    3.32
   1  -3   8   30.87    2.21
   1  -3   8   30.90    3.97
   1   3   8   36.93    3.35
   1   3   8   31.32    2.67
  -1   3  -8   36.40    2.80
   2  -3   8   44.91    3.10
   2  -3   8   53.56    4.79
  -2  -3  -8   43.60    4.07
   2   3   8   53.59    4.27
   2   3   8   54.38    3.72
   3  -3   8   17.86    3.43
   3  -3   8   20.37    2.36
  -3  -3  -8   24.73    3.43
   3   3   8   27.28    2.92
   3   3   8   30.44    3.16
   4  -3   8   24.37    4.07
   4  -3   8   27.40    2.99
  -4  -3  -8   28.63    3.91
   4   3   8   31.16    3.21
   4   3   8   26.88    3.38
   5  -3   8   22.39    4.11
  -5  -3  -8   16.57    3.58
   5  -3   8   26.57    3.16
   5   3   8   31.04    3.51
   5   3   8   29.10    3.67
   6  -3   8   30.26    3.50
  -6  -3  -8   18.38    3.72
  -6   3  -8   21.96    3.73
 -11  -4   8   15.14    4.09
  11   4  -8    8.63    2.74
 -11   4   8   18.10    4.56
 -10  -4   8   18.04    4.44
 -10   4   8   14.38    3.99
  10   4  -8   15.86    2.95
  -9  -4   8   24.59    4.87
   9   4  -8   19.09    2.92
  -9   4   8   23.31    4.15
  -8  -4   8   32.85    5.14
  -8  -4   8   34.59    3.89
  -8   4   8   34.46    4.80
   8   4  -8   30.63    3.48
  -7  -4   8   33.55    4.82
  -7   4   8   43.50    4.29
   7   4  -8   39.15    3.40
   6  -4  -8   66.79    4.94
  -6  -4   8   54.89    5.34
   6   4  -8   59.37    4.19
  -6   4   8   58.73    5.11
  -5  -4   8   52.92    4.84
   5  -4  -8   53.88    4.33
  -5   4   8   53.86    3.62
   5   4  -8   50.22    3.57
  -5   4   8   48.22    4.25
   4  -4  -8   39.36    3.71
  -4  -4   8   47.07    4.12
   4   4  -8   45.67    3.34
  -4   4   8   49.86    3.36
  -4   4   8   46.72    4.16
  -3  -4   8   13.60    0.87
  -3  -4   8   18.23    2.71
  -3  -4   8   12.24    1.87
  -3  -4   8   12.75    2.45
   3  -4  -8   13.82    2.49
   3   4  -8   13.66    1.76
  -3   4   8   14.34    1.98
  -3   4   8   16.85    2.63
  -2  -4   8   12.22    2.25
  -2  -4   8   13.48    2.60
   2  -4  -8   12.86    2.38
  -2  -4   8   13.74    1.87
  -2   4   8   15.07    2.00
   2   4  -8   14.51    1.79
  -2   4   8   14.23    2.46
  -1  -4   8   23.01    3.63
  -1  -4   8   22.61    2.45
   1  -4  -8   28.42    3.40
   1   4  -8   25.94    2.23
   1   4  -8   27.80    2.47
  -1   4   8   24.11    2.52
  -1   4   8   27.67    3.25
   0  -4   8   13.75    2.92
   0  -4   8   13.45    1.82
   0  -4  -8   12.38    2.55
   0   4   8   17.05    2.11
   0   4   8   14.16    2.40
   0   4  -8   14.08    1.94
   1  -4   8   42.57    2.28
   1  -4   8   44.52    4.68
   1  -4   8   48.41    3.25
  -1  -4  -8   42.54    4.06
   1   4   8   48.26    3.41
   1   4   8   44.03    3.84
   2  -4   8   16.89    1.66
   2  -4   8   14.47    3.26
  -2  -4  -8   16.57    3.03
   2   4   8   14.43    2.57
   2   4   8   17.71    2.30
  -3  -4  -8    8.77    2.78
   3  -4   8   13.56    1.87
   3  -4   8   13.34    3.47
   3   4   8   10.16    2.11
   4  -4   8    0.62    1.40
  -4  -4  -8   -0.83    2.26
   4  -4   8    1.03    2.34
  -4   4  -8    3.32    2.05
   5  -4   8    2.64    1.66
  -5  -4  -8   -1.73    2.24
  -5   4  -8    1.74    2.00
  -6  -4  -8   -2.33    2.23
   6  -4   8    0.11    1.87
  -6   4  -8   -0.39    2.10
 -10  -5   8    1.60    3.07
 -10  -5   8    2.22    2.17
  10   5  -8   -2.00    1.67
 -10   5   8    1.17    3.02
  -9  -5   8   -1.58    2.58
  -9  -5   8    2.88    2.11
  -9   5   8    2.91    2.79
   9   5  -8    3.43    1.88
  -8  -5   8    5.85    3.20
  -8  -5   8    8.29    2.45
  -8   5   8    6.37    2.70
   8   5  -8    6.30    2.00
  -7  -5   8   13.86    2.50
  -7  -5   8    9.83    3.30
   7   5  -8   10.74    2.08
  -7   5   8    8.34    2.72
  -6  -5   8    3.57    1.60
  -6  -5   8    6.67    2.72
  -6   5   8    6.91    2.19
   6   5  -8    5.46    1.63
   5  -5  -8   11.31    2.70
  -5  -5   8   11.85    2.91
  -5  -5   8    9.42    1.66
   5   5  -8    7.48    1.71
  -5   5   8   11.79    2.73
  -4  -5   8    9.30    2.40
   4  -5  -8   16.26    2.86
  -4   5   8   12.00    2.60
   4   5  -8   14.41    2.02
  -3  -5   8   16.21    2.79
  -3  -5   8   13.99    0.78
  -3  -5   8   10.58    1.98
   3  -5  -8   17.19    2.92
   3   5  -8   12.53    1.85
  -3   5   8   15.11    2.66
   2  -5  -8   22.75    3.37
  -2  -5   8   19.11    2.98
  -2  -5   8   19.03    2.43
   2   5  -8   19.53    2.23
  -2   5   8   21.21    3.00
  -1  -5   8   25.14    4.15
   1  -5  -8   28.03    3.79
  -1  -5   8   27.55    2.65
   1   5  -8   31.91    2.74
  -1   5   8   27.32    3.38
   1   5  -8   29.01    2.51
   0  -5   8   32.40    4.73
   0  -5  -8   23.97    3.63
   0  -5   8   26.79    2.89
   0   5   8   27.74    3.41
   1  -5   8   35.44    2.95
   1  -5   8   29.95    1.48
  -1  -5  -8   30.01    3.98
   1  -5   8   24.66    4.25
   1   5   8   27.69    3.29
   2  -5   8   28.59    1.76
   2  -5   8   28.32    3.06
  -2  -5  -8   27.54    3.98
   2  -5   8   26.23    4.61
  -2   5  -8   19.39    3.62
   2   5   8   31.76    3.09
  -3  -5  -8   21.80    3.87
   3  -5   8   23.18    1.95
  -3   5  -8   22.87    3.87
  -4  -5  -8   19.05    3.89
   4  -5   8   20.21    2.20
  -4   5  -8   20.27    3.78
   5  -5   8   17.85    2.43
  -5  -5  -8    9.76    3.46
  -5   5  -8   17.96    3.93
  -8  -6   8   24.71    3.35
  -8  -6   8   24.28    4.88
   8   6  -8   19.87    3.06
  -8   6   8   27.04    4.45
  -7  -6   8   27.56    5.03
   7   6  -8   21.36    3.00
  -7   6   8   24.14    4.02
  -6  -6   8   31.49    4.87
  -6  -6   8   30.76    3.11
  -6   6   8   30.30    4.38
   6   6  -8   38.14    3.48
  -5  -6   8   38.10    4.90
  -5  -6   8   40.12    3.17
   5   6  -8   42.75    3.64
  -5   6   8   46.32    4.53
  -4  -6   8   23.37    2.03
  -4  -6   8   19.41    3.61
   4  -6  -8   19.97    3.55
  -4  -6   8   15.13    2.53
   4   6  -8   19.89    2.62
  -4   6   8   23.91    3.47
  -3  -6   8   10.91    2.45
   3  -6  -8   10.24    2.94
  -3  -6   8   14.37    2.31
  -3   6   8   11.54    2.58
   3   6  -8   12.02    2.04
   2  -6  -8   10.48    2.83
  -2  -6   8   11.73    2.15
   2   6  -8   11.12    1.93
  -2   6   8    8.61    2.16
  -1  -6   8   16.24    2.43
   1  -6  -8    7.49    2.68
   1   6  -8   10.09    1.96
  -1   6   8   11.68    2.43
   0  -6  -8    9.01    2.97
   0  -6   8   12.90    2.16
   0   6   8   17.14    2.70
   0   6  -8   19.06    2.39
  -1  -6  -8   23.22    4.07
   1  -6   8   33.29    3.14
   2  -6   8   10.98    1.00
   2  -6   8    9.51    2.11
  -2  -6  -8    8.13    3.11
  -2   6  -8    7.35    2.81
   3  -6   8    9.47    1.18
  -3  -6  -8    8.65    3.24
  -3   6  -8   10.68    3.21
   4  -6   8    0.83    0.97
  -4  -6  -8   -2.67    2.42
  -4   6  -8    2.47    2.65
  -6  -7   8    3.17    1.76
  -6  -7   8    7.45    3.21
  -6   7   8    3.01    2.33
   6   7  -8    3.79    1.84
  -5  -7   8    5.69    2.68
  -5  -7   8    3.32    1.50
   5   7  -8    4.35    1.78
  -5   7   8    3.17    2.20
  -4  -7   8   11.36    2.33
  -4  -7   8    7.31    1.49
  -4  -7   8    8.83    2.73
   4   7  -8    7.85    1.93
  -4   7   8    8.05    2.44
   3  -7  -8    1.15    2.95
  -3  -7   8    4.18    1.82
  -3  -7   8    8.23    1.10
   3   7  -8    6.33    1.84
  -3   7   8   11.30    2.66
   2  -7  -8    7.68    3.03
  -2  -7   8   12.64    2.40
   2   7  -8   12.99    2.34
  -2   7   8    9.86    2.51
   1  -7  -8   11.86    3.44
  -1  -7   8   19.61    2.84
   1   7  -8   18.75    2.57
   0  -7  -8   10.72    3.43
   0  -7   8   14.99    2.61
   0   7  -8   12.63    2.16
  -1  -7  -8   20.72    4.13
   1  -7   8   21.84    3.03
   2  -7   8   18.53    1.22
  -2  -7  -8   11.44    3.67
   2  -7   8   18.98    2.88
  12   0  -9   13.46    3.47
 -12   0   9   16.95    3.64
  11   0  -9   12.37    3.30
  11   0  -9   19.56    3.30
 -11   0   9   15.97    3.42
  10   0  -9   27.71    3.85
 -10   0   9   22.45    3.49
  10   0  -9   24.47    3.82
   9   0  -9   52.39    4.63
  -9   0   9   43.70    4.45
   9   0  -9   46.85    4.92
  -9   0   9   43.43    4.37
  -8   0   9   60.19    5.17
   8   0  -9   63.62    5.09
  -8   0   9   67.68    4.48
   8   0  -9   63.76    5.15
  -7   0   9   50.78    3.63
  -7   0   9   50.48    4.39
   7   0  -9   49.32    4.26
  -6   0   9   43.59    2.93
   6   0  -9   39.75    3.61
  -6   0   9   37.77    3.72
  -5   0   9   53.39    4.37
  -5   0   9   53.60    3.27
   5   0  -9   56.60    4.07
  -4   0   9   19.75    1.77
  -4   0   9   22.93    3.01
   4   0  -9   20.59    2.62
   3   0  -9   69.55    4.67
  -3   0   9   70.83    5.07
  -3   0   9   65.87    3.66
  -2   0   9   74.65    3.91
   2   0  -9   71.32    4.89
  -2   0   9   78.83    5.43
  -1   0   9   74.86    3.81
   1   0  -9   68.66    4.72
  -1   0   9   67.07    5.02
   0   0   9   73.29    4.00
   0   0   9   73.78    5.44
   0   0  -9   76.72    4.99
  -1   0  -9   34.82    3.17
   1   0   9   39.51    2.62
   1   0   9   33.70    3.59
   2   0   9   24.44    2.41
   2   0   9   21.55    3.29
  -2   0  -9   27.27    3.20
  -3   0  -9   12.21    2.26
   3   0   9   10.88    2.59
   3   0   9   14.10    2.03
  -4   0  -9    4.89    2.08
   4   0   9    4.86    1.64
   4   0   9    9.03    2.51
   5   0   9    6.70    2.60
   5   0   9   10.57    2.23
   6   0   9    9.53    2.90
   6   0   9    9.86    2.30
  12  -1  -9   -2.39    2.34
 -12  -1   9   -1.31    2.67
 -12  -1   9    3.07    2.49
  12   1  -9   -6.53    1.99
 -11  -1   9   -3.27    1.84
 -11  -1   9   -3.97    2.25
  11  -1  -9   -5.95    1.84
 -11   1   9    2.57    2.28
  11   1  -9   -1.00    2.24
  10  -1  -9    2.74    2.00
  10  -1  -9   -2.31    1.95
 -10  -1   9   -0.71    2.43
 -10  -1   9    0.19    1.84
  10   1  -9   -2.58    1.74
 -10   1   9   -0.85    1.72
 -10   1   9   -0.18    1.92
  -9  -1   9    1.03    1.79
  -9  -1   9    1.66    2.55
   9  -1  -9    2.69    1.68
  -9   1   9    2.91    1.81
   9   1  -9   -3.95    1.36
  -9   1   9    0.51    1.78
  -8  -1   9   -0.69    1.94
  -8  -1   9   -1.01    1.29
   8  -1  -9    3.87    1.80
  -8   1   9    0.35    1.73
   8   1  -9   -0.54    1.76
  -8   1   9    0.92    1.30
  -7  -1   9    1.26    1.37
  -7  -1   9    0.89    1.86
   7  -1  -9    1.32    1.45
  -7  -1   9    0.51    1.08
   7   1  -9    1.79    1.24
   7   1  -9    0.51    1.33
  -7   1   9    0.47    1.18
  -7   1   9    0.48    1.61
  -6  -1   9    0.69    1.34
   6  -1  -9    2.03    1.41
  -6  -1   9    0.27    0.90
  -6   1   9    0.49    1.47
  -6   1   9    0.26    1.00
   6   1  -9    1.21    1.31
  -5  -1   9    3.11    1.51
  -5  -1   9    3.97    0.99
   5  -1  -9    2.90    1.50
  -5   1   9    3.89    1.61
   5   1  -9    3.48    1.44
  -5   1   9    2.22    1.01
  -4  -1   9   16.02    2.52
  -4  -1   9   12.25    1.39
   4  -1  -9   12.04    2.13
  -4   1   9   10.35    2.17
  -4   1   9   14.46    1.72
   4   1  -9   10.67    2.02
  -3  -1   9    6.34    1.89
   3  -1  -9    4.66    1.55
  -3  -1   9    5.94    0.96
  -3   1   9    6.31    1.79
   3   1  -9    5.44    1.54
  -3   1   9    4.68    1.04
  -2  -1   9   28.32    3.39
  -2  -1   9   25.28    1.76
   2  -1  -9   24.57    2.90
  -2   1   9   26.54    2.07
   2   1  -9   25.39    2.85
  -2   1   9   21.40    3.01
   1  -1  -9   19.98    2.62
  -1  -1   9   20.84    1.57
  -1  -1   9   20.02    3.01
  -1   1   9   19.47    1.94
   1   1  -9   16.95    2.38
  -1   1   9   17.29    2.68
   0  -1   9   11.84    2.32
   0  -1  -9   13.61    2.27
   0  -1   9   14.10    1.46
   0   1   9   16.28    1.77
   0   1  -9   14.83    2.18
   0   1   9   14.50    2.52
   1  -1   9   13.89    1.60
  -1  -1  -9   16.49    2.53
   1  -1   9   15.92    2.77
  -1   1  -9   17.38    2.43
   1   1   9   19.96    2.06
   1   1   9   14.52    2.69
   2  -1   9    9.90    1.60
  -2  -1  -9   14.00    2.47
   2  -1   9   13.74    2.58
   2   1   9   13.29    1.86
   2   1   9   14.02    2.61
  -2   1  -9   16.60    2.41
   3  -1   9   25.06    3.70
  -3  -1  -9   33.98    3.75
   3  -1   9   26.14    2.64
  -3   1  -9   26.34    2.73
   3   1   9   24.29    3.46
   3   1   9   27.68    2.76
  -4  -1  -9   30.42    3.64
   4  -1   9   27.11    3.88
   4  -1   9   27.76    2.97
   4   1   9   30.00    4.02
   4   1   9   33.06    3.34
  -5  -1  -9   34.46    4.16
   5  -1   9   32.56    4.59
   5  -1   9   31.00    3.37
   5   1   9   31.42    4.21
   5   1   9   30.48    3.39
   6  -1   9   28.53    3.47
   6  -1   9   21.11    4.04
   6   1   9   17.17    2.84
   6   1   9   21.95    3.65
 -11  -2   9   17.08    4.18
 -11  -2   9   10.71    2.91
 -11   2   9    7.71    3.25
  11   2  -9   11.03    2.83
 -10  -2   9   26.38    4.74
 -10  -2   9   21.27    3.44
  10   2  -9   19.67    3.22
 -10   2   9   23.65    4.27
  -9  -2   9   38.81    4.11
  -9  -2   9   47.09    5.96
   9  -2  -9   46.10    4.29
  -9   2   9   57.92    4.51
  -9   2   9   45.37    5.58
   9   2  -9   37.97    4.22
  -8  -2   9   43.51    5.48
   8  -2  -9   51.30    4.51
  -8  -2   9   46.94    3.88
  -8   2   9   56.62    5.09
   8   2  -9   38.67    4.12
  -8   2   9   46.52    3.80
  -7  -2   9   63.52    5.60
  -7  -2   9   61.66    4.07
   7  -2  -9   65.66    5.07
  -7   2   9   54.26    3.81
   7   2  -9   51.93    3.94
  -7   2   9   50.45    4.59
   6  -2  -9   39.88    3.53
  -6  -2   9   31.43    2.56
  -6  -2   9   38.04    4.57
   6   2  -9   30.33    2.83
  -6   2   9   35.56    3.77
  -6   2   9   37.87    2.90
  -5  -2   9   40.75    3.77
  -5  -2   9   39.93    2.59
   5  -2  -9   38.05    3.53
  -5  -2   9   46.99    3.89
   5   2  -9   46.05    3.25
   5   2  -9   38.95    3.48
  -5   2   9   49.74    3.24
  -5   2   9   43.32    4.06
   4  -2  -9   29.61    2.98
  -4  -2   9   29.72    1.93
  -4  -2   9   26.81    3.33
  -4   2   9   30.27    3.54
  -4   2   9   28.59    2.35
   4   2  -9   26.53    2.77
  -3  -2   9   44.34    2.46
   3  -2  -9   47.31    3.76
  -3  -2   9   46.76    4.04
  -3   2   9   50.17    3.14
   3   2  -9   43.56    3.54
  -3   2   9   44.26    3.93
  -2  -2   9   79.32    3.88
  -2  -2   9   89.36    5.98
   2  -2  -9   77.61    5.38
   2   2  -9   74.98    4.97
  -2   2   9   79.91    4.33
  -2   2   9   73.23    5.30
   1  -2  -9   73.14    5.06
  -1  -2   9   69.80    5.58
  -1  -2   9   80.20    3.73
  -1   2   9   70.43    4.07
   1   2  -9   78.32    4.82
  -1   2   9   67.00    5.16
   0  -2  -9   45.74    3.99
   0  -2   9   53.37    2.83
   0  -2   9   51.91    4.59
   0   2  -9   57.54    3.96
   0   2   9   57.53    4.43
   0   2   9   46.25    3.29
   1  -2   9   41.76    2.62
   1  -2   9   40.18    4.11
  -1  -2  -9   38.58    3.66
  -1   2  -9   42.34    3.30
   1   2   9   35.19    3.44
   1   2   9   40.82    2.96
  -2  -2  -9   17.49    2.86
   2  -2   9   18.07    3.03
   2  -2   9   19.79    2.05
   2   2   9   18.44    2.28
  -2   2  -9   18.92    2.44
   2   2   9   22.22    3.15
   3  -2   9   11.01    1.84
  -3  -2  -9    7.99    2.39
   3  -2   9    4.76    2.39
   3   2   9    8.61    1.87
   3   2   9    7.74    2.15
   4  -2   9   10.52    3.00
   4  -2   9   14.33    2.26
  -4  -2  -9    6.19    2.47
   4   2   9    9.42    2.04
   4   2   9   10.23    2.53
  -5  -2  -9    5.36    2.48
   5  -2   9    9.19    2.16
   5  -2   9    4.42    2.63
   5   2   9    2.67    1.98
   5   2   9    5.23    1.91
   6  -2   9    6.21    2.27
   6  -2   9    9.25    3.22
  -6  -2  -9    4.17    2.95
   6   2   9    7.93    2.38
   6   2   9    6.95    2.57
 -11  -3   9    0.98    2.15
 -11  -3   9    1.53    2.93
  11   3  -9   -2.37    1.81
 -11   3   9    0.09    2.79
 -10  -3   9   -0.83    3.05
 -10  -3   9   -0.19    1.68
 -10   3   9    0.17    2.63
  10   3  -9    0.30    1.76
  -9  -3   9   -1.36    2.52
  -9  -3   9   -2.40    1.48
  -9   3   9    1.28    2.49
   9   3  -9   -0.04    1.53
  -8  -3   9    0.03    1.42
   8  -3  -9    0.47    1.74
  -8  -3   9    3.65    2.73
  -8   3   9    0.33    2.11
  -8   3   9   -0.54    1.40
   8   3  -9   -0.59    1.23
  -7  -3   9    3.37    2.40
   7  -3  -9    0.54    1.44
  -7  -3   9    0.55    1.22
   7   3  -9   -0.23    1.12
  -7   3   9    1.70    1.99
  -7   3   9    0.03    1.14
  -6  -3   9    2.67    1.13
   6  -3  -9    1.88    1.60
  -6  -3   9    0.03    1.93
  -6   3   9    1.99    1.78
   6   3  -9    1.61    1.20
  -6   3   9    0.80    1.20
  -5  -3   9    1.93    0.84
  -5  -3   9   -0.89    1.54
   5  -3  -9   -2.31    1.32
   5   3  -9    0.81    0.94
  -5   3   9    2.07    1.39
  -5   3   9   -0.14    1.03
  -4  -3   9   15.20    2.63
  -4  -3   9   12.10    2.57
  -4  -3   9   12.43    1.21
   4  -3  -9   13.20    2.41
   4   3  -9    8.33    1.51
  -4   3   9   11.31    2.44
  -4   3   9   12.88    1.85
  -3  -3   9    8.96    2.29
   3  -3  -9    8.98    2.11
  -3  -3   9    8.11    0.82
   3   3  -9    7.21    1.74
  -3   3   9    8.65    2.10
  -3   3   9    7.88    1.49
   2  -3  -9   16.66    2.64
  -2  -3   9   13.37    0.95
  -2  -3   9   15.90    2.85
  -2   3   9   14.55    2.56
  -2   3   9   13.77    1.87
   2   3  -9   10.83    1.96
   1  -3  -9   20.69    2.92
  -1  -3   9   11.54    0.82
  -1  -3   9   21.16    3.25
  -1   3   9   24.18    2.52
  -1   3   9   21.98    3.11
   1   3  -9   26.17    2.52
   0  -3   9    7.85    2.54
   0  -3  -9    7.94    2.16
   0  -3   9    9.32    1.12
   0   3   9    7.86    2.11
   0   3  -9   12.91    2.01
   0   3   9   12.65    1.85
  -1  -3  -9    9.14    2.30
   1  -3   9    8.47    1.33
   1  -3   9    6.05    2.35
   1   3   9    9.67    2.24
  -1   3  -9   10.96    2.07
   1   3   9    9.68    1.76
  -2  -3  -9   14.71    2.96
   2  -3   9   18.69    2.10
   2  -3   9   15.46    3.29
   2   3   9   15.51    2.71
   2   3   9   15.58    2.22
   3  -3   9   19.35    3.71
  -3  -3  -9   15.37    3.09
   3  -3   9   15.61    2.25
   3   3   9   19.37    3.01
   3   3   9   18.96    2.55
   4  -3   9   20.10    3.77
   4  -3   9   23.90    2.93
  -4  -3  -9   22.38    3.78
   4   3   9   26.18    3.14
   4   3   9   23.85    3.33
   5  -3   9   20.45    4.21
  -5  -3  -9   31.05    4.34
   5  -3   9   32.45    3.64
   5   3   9   29.90    3.45
   5   3   9   20.83    3.36
 -10  -4   9   15.97    4.30
  10   4  -9    9.29    2.45
 -10   4   9   13.09    4.01
  -9  -4   9   38.88    5.84
   9   4  -9   31.61    3.87
  -9   4   9   46.77    6.01
  -8  -4   9   27.39    4.74
   8   4  -9   29.51    3.53
  -8   4   9   38.65    5.19
  -7  -4   9   44.74    5.59
   7  -4  -9   48.01    4.24
  -7  -4   9   32.40    3.28
  -7   4   9   39.99    5.04
   7   4  -9   37.48    3.35
  -6  -4   9   32.74    4.55
   6  -4  -9   35.35    4.08
  -6  -4   9   32.70    2.64
  -6   4   9   30.27    4.33
   6   4  -9   32.74    2.92
   5  -4  -9   29.59    3.69
  -5  -4   9   27.30    2.00
  -5  -4   9   24.29    3.72
  -5   4   9   29.99    3.03
  -5   4   9   29.65    3.83
   5   4  -9   29.58    2.79
  -4  -4   9   20.61    3.26
  -4  -4   9   22.97    1.46
   4  -4  -9   22.90    3.20
   4   4  -9   20.93    2.43
  -4   4   9   26.09    2.72
  -4   4   9   22.38    3.33
  -3  -4   9   39.02    4.50
   3  -4  -9   31.15    3.84
  -3  -4   9   34.41    3.97
  -3  -4   9   32.42    1.53
  -3  -4   9   36.86    1.56
   3   4  -9   34.74    2.78
  -3   4   9   35.16    2.92
  -3   4   9   37.31    3.72
  -2  -4   9   58.43    5.10
   2  -4  -9   52.78    4.56
   2   4  -9   58.58    4.19
  -2   4   9   58.90    4.57
  -2   4   9   54.65    3.77
   1  -4  -9   59.38    4.84
  -1  -4   9   60.41    5.42
  -1   4   9   60.69    3.91
   1   4  -9   56.65    4.09
  -1   4   9   57.70    4.67
   0  -4   9   41.06    5.01
   0  -4  -9   38.29    3.98
   0   4   9   42.18    3.25
   0   4   9   37.51    3.72
   1  -4   9   32.64    1.87
  -1  -4  -9   31.38    4.05
   1  -4   9   31.68    4.50
   1   4   9   31.44    3.16
   1   4   9   32.43    3.43
   2  -4   9   15.18    1.68
   2  -4   9   14.10    3.65
  -2  -4  -9   16.67    3.24
   2   4   9   19.24    2.95
   2   4   9   18.89    2.57
   3  -4   9    0.13    2.37
  -3  -4  -9    3.90    2.42
   3  -4   9    5.01    1.46
   3   4   9    7.19    2.08
  -4  -4  -9    3.57    2.66
   4  -4   9    7.68    1.89
   4  -4   9    4.75    2.91
   5  -4   9    4.27    1.98
  -5  -4  -9    0.47    2.68
  -5   4  -9    3.40    2.33
  -9  -5   9    3.13    3.06
  -9   5   9   -1.36    2.48
   9   5  -9    0.72    1.63
  -8  -5   9    0.35    2.53
   8   5  -9   -0.86    1.32
  -8   5   9    0.71    2.38
  -7  -5   9   -3.30    1.94
   7   5  -9   -0.39    1.23
  -7   5   9    1.42    2.17
  -6  -5   9   -0.24    2.17
  -6   5   9    1.28    1.90
   6   5  -9   -1.12    1.28
  -5  -5   9    4.27    2.38
  -5  -5   9    1.56    0.86
   5  -5  -9    1.60    2.25
   5   5  -9    0.18    1.13
  -5   5   9    1.01    1.88
   4  -5  -9    6.42    2.53
  -4  -5   9    5.00    0.63
  -4  -5   9    5.12    2.20
  -4   5   9    6.35    2.22
   4   5  -9    3.44    1.36
  -3  -5   9    6.03    2.07
   3  -5  -9    4.95    2.31
  -3  -5   9    2.61    1.35
   3   5  -9    5.71    1.53
  -3   5   9    4.21    1.95
   2  -5  -9   13.63    2.92
  -2  -5   9   16.11    2.42
   2   5  -9   16.12    2.35
  -2   5   9   12.64    2.59
   2   5  -9   12.05    1.95
   1  -5  -9   10.89    2.87
  -1  -5   9   10.51    3.13
   1   5  -9   10.06    1.77
  -1   5   9   12.27    2.47
   0  -5   9    7.06    2.98
   0  -5  -9    9.44    2.81
   0   5   9    8.92    2.24
  -1  -5  -9    4.04    2.53
   1  -5   9    0.97    2.54
   1   5   9    8.55    2.20
  -2  -5  -9    7.11    2.94
   2  -5   9    6.92    0.82
   2  -5   9    8.08    3.30
   2   5   9    6.69    1.98
   3  -5   9   13.48    1.50
  -3  -5  -9   15.00    3.59
  -3   5  -9   11.05    3.04
   4  -5   9   15.19    1.95
  -4  -5  -9   12.11    3.62
  -4   5  -9   18.05    3.80
  -7  -6   9   20.29    4.45
  -7   6   9   17.36    3.70
   7   6  -9   15.41    2.67
  -6  -6   9   23.18    4.25
  -6   6   9   27.49    4.24
   6   6  -9   17.75    2.85
  -5  -6   9   23.57    3.95
  -5   6   9   20.25    3.51
   5   6  -9   21.76    2.84
  -4  -6   9   12.54    3.02
   4  -6  -9    8.05    2.96
  -4   6   9    8.62    2.62
   4   6  -9   11.52    2.17
  -3  -6   9   20.54    2.82
   3  -6  -9   25.48    4.12
  -3  -6   9   29.26    3.95
   3   6  -9   31.83    2.90
  -3   6   9   23.15    3.57
  -2  -6   9   36.42    3.81
   2  -6  -9   33.89    4.65
  -2   6   9   35.80    4.27
   2   6  -9   37.33    3.32
   1  -6  -9   23.18    3.95
   1   6  -9   31.69    2.93
  -1   6   9   30.45    3.84
   0  -6  -9   32.70    4.82
   0   6   9   29.16    3.70
  -1  -6  -9   13.05    3.51
  -1   6  -9   19.23    3.65
  -2  -6  -9    5.64    3.09
  -2   6  -9   12.99    3.28
  -5  -7   9    2.62    2.40
   5   7  -9    0.98    1.47
  -5   7   9   -0.29    1.88
   4   7  -9    3.64    1.60
  -4   7   9    3.79    2.21
   3  -7  -9   -2.04    2.89
  -3  -7   9    1.18    1.52
  -3   7   9    0.92    2.07
   3   7  -9    2.86    1.56
   2  -7  -9    0.88    3.19
  -2  -7   9    6.77    2.04
   2   7  -9   10.62    2.11
  -2   7   9    6.62    2.29
  -1  -7   9    8.98    2.35
   1  -7  -9    2.62    3.15
   1   7  -9    8.33    2.13
  11   0 -10   24.50    3.97
 -11   0  10   22.18    3.78
  10   0 -10   37.91    4.66
 -10   0  10   27.49    3.76
  -9   0  10   31.38    4.43
   9   0 -10   37.41    4.54
  -9   0  10   33.93    3.70
   8   0 -10   25.11    3.63
  -8   0  10   24.16    2.96
  -8   0  10   31.05    4.05
  -7   0  10   31.88    2.86
  -7   0  10   28.15    3.81
   7   0 -10   37.31    3.71
  -6   0  10   33.21    2.74
   6   0 -10   35.92    3.55
  -6   0  10   35.35    3.72
  -5   0  10   44.57    3.02
   5   0 -10   49.20    3.99
  -5   0  10   44.85    4.18
   4   0 -10   56.16    4.22
  -4   0  10   51.99    3.22
  -4   0  10   51.59    4.50
  -3   0  10   88.26    6.36
  -3   0  10   95.64    4.76
   3   0 -10   86.47    5.78
  -2   0  10   62.96    4.94
   2   0 -10   65.24    4.68
  -2   0  10   65.47    3.64
  -1   0  10   53.16    4.59
   1   0 -10   57.06    4.15
  -1   0  10   48.39    3.12
   0   0 -10   50.40    3.99
   0   0  10   50.40    3.11
   0   0  10   42.64    4.07
   1   0  10   17.62    2.98
  -1   0 -10   16.86    2.68
   1   0  10   19.44    2.07
   2   0  10   26.39    2.73
  -2   0 -10   33.03    3.64
   2   0  10   28.52    3.93
   3   0  10   20.07    2.55
   3   0  10   22.17    3.64
  -3   0 -10   24.84    3.33
   4   0  10   17.33    2.57
   4   0  10   15.34    3.31
   5   0  10   18.72    2.73
   5   0  10   18.49    3.64
 -11  -1  10   -0.43    2.93
 -11  -1  10    4.61    2.51
 -11   1  10    3.98    2.46
  11   1 -10    6.29    2.46
  10  -1 -10    5.12    2.21
 -10  -1  10    4.73    3.18
 -10  -1  10    3.80    2.03
 -10   1  10    3.14    2.41
  10   1 -10    5.17    2.32
 -10   1  10    5.80    2.19
  -9  -1  10    6.83    2.14
  -9  -1  10    7.25    3.06
   9  -1 -10    9.27    2.72
  -9   1  10    5.05    1.96
  -9   1  10    6.91    2.75
   9   1 -10    7.31    2.49
   8  -1 -10    8.83    2.41
  -8  -1  10    9.56    2.02
  -8   1  10    9.91    2.15
   8   1 -10    5.58    2.26
  -8   1  10    9.62    2.71
  -7  -1  10   -0.30    0.94
   7  -1 -10    1.40    1.67
  -7  -1  10    5.06    2.00
  -7   1  10    2.96    1.96
   7   1 -10    4.60    1.92
  -7   1  10    2.30    1.36
  -6  -1  10   -0.87    0.82
   6  -1 -10   -0.68    1.44
  -6  -1  10   -1.11    1.29
  -6   1  10    2.16    1.85
   6   1 -10    2.34    1.57
  -6   1  10    0.84    1.01
   5  -1 -10   -0.17    1.28
  -5  -1  10    1.04    0.85
  -5  -1  10    1.93    1.63
  -5   1  10   -0.57    1.47
  -5   1  10    1.35    1.00
   5   1 -10    2.59    1.48
   4  -1 -10   -0.84    1.22
  -4  -1  10    0.21    1.58
  -4  -1  10    0.03    0.68
   4   1 -10    0.80    1.07
  -4   1  10   -0.98    1.31
  -4   1  10   -0.38    0.91
  -3  -1  10    2.65    1.66
   3  -1 -10    0.88    1.32
  -3  -1  10    1.44    0.78
  -3   1  10    1.76    1.56
   3   1 -10    3.01    1.53
  -3   1  10    2.08    1.05
  -2  -1  10    0.13    1.53
   2  -1 -10    1.64    1.39
  -2  -1  10    1.55    0.78
   2   1 -10    3.00    1.45
  -2   1  10    1.64    1.60
  -2   1  10    1.29    0.92
  -1  -1  10   -1.58    1.47
   1  -1 -10   -0.82    1.21
  -1  -1  10    0.81    0.75
   1   1 -10    0.73    1.28
  -1   1  10    0.64    0.98
  -1   1  10    2.02    1.37
   0  -1  10    3.20    0.98
   0  -1  10    4.87    2.01
   0  -1 -10    4.51    1.81
   0   1  10    1.84    1.73
   0   1 -10    2.12    1.40
   0   1  10    4.06    1.19
   1  -1  10   12.08    2.78
   1  -1  10   15.37    1.82
  -1  -1 -10   12.37    2.50
   1   1  10   12.04    2.68
   1   1  10   14.47    1.95
  -1   1 -10   12.68    2.30
   2  -1  10    7.57    2.50
  -2  -1 -10    7.95    2.37
   2  -1  10    7.86    1.62
   2   1  10   12.36    2.01
  -2   1 -10   11.19    2.34
   2   1  10   11.41    2.69
   3  -1  10   17.29    2.31
   3  -1  10   20.42    3.40
  -3  -1 -10   18.88    3.27
   3   1  10   19.48    2.48
   3   1  10   15.53    3.09
   4  -1  10    8.08    1.95
   4  -1  10    7.70    2.83
  -4  -1 -10    5.15    2.66
   4   1  10    4.50    2.37
   4   1  10    8.93    2.17
   5  -1  10    5.38    1.99
   5  -1  10    9.00    3.02
   5   1  10    3.48    2.13
   5   1  10    5.03    2.51
 -11  -2  10   12.59    3.02
 -11  -2  10   18.95    4.61
  11   2 -10   11.61    3.01
 -11   2  10   16.40    4.00
 -10  -2  10   28.79    3.82
 -10  -2  10   28.82    5.33
 -10   2  10   34.46    5.05
  10   2 -10   17.09    3.20
 -10   2  10   31.20    3.90
  -9  -2  10   25.71    3.31
   9  -2 -10   29.28    4.08
  -9  -2  10   22.97    4.51
  -9   2  10   33.64    4.93
  -9   2  10   36.37    3.98
  -8  -2  10   20.94    2.71
   8  -2 -10   23.78    3.54
  -8  -2  10   25.47    4.47
  -8   2  10   16.12    3.52
  -8   2  10   20.78    2.75
  -7  -2  10   43.16    5.34
  -7  -2  10   42.77    3.25
   7  -2 -10   50.65    4.40
  -7   2  10   41.07    3.42
  -7   2  10   44.91    4.59
   6  -2 -10   19.19    3.06
  -6  -2  10   19.81    3.26
  -6  -2  10   24.09    2.07
  -6   2  10   24.49    3.70
   6   2 -10   23.15    3.24
  -6   2  10   25.02    2.67
   5  -2 -10   39.53    3.83
  -5  -2  10   44.06    4.33
  -5  -2  10   45.88    2.75
  -5   2  10   45.29    3.13
   5   2 -10   34.51    3.56
  -5   2  10   38.70    4.04
   4  -2 -10   61.03    4.73
  -4  -2  10   62.03    3.31
  -4  -2  10   60.53    5.05
  -4   2  10   59.88    3.78
   4   2 -10   56.99    4.52
  -4   2  10   64.00    5.03
  -3  -2  10   73.99    5.55
   3  -2 -10   64.39    4.95
  -3  -2  10   65.95    3.45
   3   2 -10   67.30    4.70
  -3   2  10   62.45    3.86
  -3   2  10   60.35    5.02
  -2  -2  10   70.96    5.57
   2  -2 -10   60.42    4.91
  -2  -2  10   71.47    3.50
  -2   2  10   67.85    4.08
   2   2 -10   67.27    4.74
  -2   2  10   64.72    5.19
  -1  -2  10   46.79    2.66
  -1  -2  10   45.97    4.49
   1  -2 -10   48.02    4.08
   1   2 -10   51.47    3.82
  -1   2  10   40.31    4.10
  -1   2  10   48.38    3.33
   0  -2  10   40.37    4.19
   0  -2 -10   36.93    3.67
   0  -2  10   35.14    2.39
   0   2  10   37.69    3.80
   0   2 -10   37.17    3.34
   0   2  10   32.96    2.86
   1  -2  10   23.99    2.16
   1  -2  10   27.84    4.06
  -1  -2 -10   24.40    3.41
   1   2  10   24.44    2.62
   1   2  10   27.57    3.68
  -1   2 -10   26.50    2.75
   2  -2  10   15.96    3.47
   2  -2  10   22.31    2.36
  -2  -2 -10   22.07    3.32
   2   2  10   21.71    3.43
   2   2  10   22.60    2.62
   3  -2  10   15.71    3.46
   3  -2  10   18.85    2.41
  -3  -2 -10   15.67    3.16
   3   2  10   19.22    3.23
   3   2  10   19.12    2.69
   4  -2  10   18.07    3.67
  -4  -2 -10   17.90    3.43
   4  -2  10   16.47    2.57
   4   2  10   18.15    2.79
   4   2  10   18.71    3.38
  -5  -2 -10   10.11    3.06
   5  -2  10   15.51    2.71
   5  -2  10   14.30    3.47
   5   2  10   18.56    2.91
   5   2  10   17.55    3.47
 -10  -3  10    9.94    3.75
 -10  -3  10    5.73    2.37
  10   3 -10    4.15    2.16
 -10   3  10    4.63    3.18
  -9  -3  10    4.15    1.96
  -9  -3  10   -2.22    2.66
  -9   3  10   -0.09    2.27
   9   3 -10   -2.57    1.54
  -8  -3  10   10.57    3.46
  -8  -3  10   12.60    2.24
   8  -3 -10   10.05    2.59
  -8   3  10    7.28    2.96
   8   3 -10    8.30    2.00
  -8   3  10   11.58    2.33
  -7  -3  10    3.98    2.22
  -7  -3  10    2.04    1.24
   7  -3 -10    3.34    2.00
  -7   3  10    0.85    1.34
  -7   3  10    1.35    2.02
   6  -3 -10    1.05    1.65
  -6  -3  10    0.00    0.88
  -6  -3  10   -2.39    1.73
  -6   3  10   -0.43    1.28
  -6   3  10   -2.05    0.94
  -5  -3  10    4.56    2.10
  -5  -3  10   -0.04    0.69
   5  -3 -10   -0.84    1.43
  -5   3  10   -0.92    1.57
   5   3 -10   -0.56    1.31
  -5   3  10    0.69    1.09
  -4  -3  10    0.10    1.55
   4  -3 -10    1.12    1.58
  -4  -3  10    0.59    0.61
  -4   3  10    1.50    1.72
  -4   3  10    1.51    1.21
   4   3 -10    0.55    1.24
  -3  -3  10    2.37    0.60
  -3  -3  10    0.26    1.78
   3  -3 -10    1.54    1.65
   3   3 -10    2.59    1.52
  -3   3  10    1.70    1.23
  -3   3  10    1.38    1.23
   2  -3 -10   -0.13    1.51
  -2  -3  10   -1.21    1.72
  -2  -3  10    0.50    0.50
  -2   3  10    1.10    1.61
   2   3 -10   -1.18    1.33
  -2   3  10   -1.37    1.04
  -1  -3  10    2.36    0.72
  -1  -3  10    3.51    2.22
   1  -3 -10    3.05    1.86
  -1   3  10    3.11    1.36
   1   3 -10    1.21    1.38
  -1   3  10    2.14    1.70
   0  -3  10    0.89    2.09
   0  -3  10    1.75    0.88
   0  -3 -10   -0.30    1.24
   0   3  10    2.23    1.45
   0   3 -10    1.29    1.36
   0   3  10    0.91    1.31
  -1  -3 -10    7.77    2.52
   1  -3  10    7.85    1.46
   1  -3  10    6.64    2.73
   1   3  10   11.63    2.55
   1   3  10    8.84    1.87
   2  -3  10   15.12    3.54
  -2  -3 -10    9.08    2.79
   2  -3  10    8.61    1.74
   2   3  10   11.25    2.56
   2   3  10   11.00    2.12
   3  -3  10   13.86    3.46
   3  -3  10   12.53    2.12
  -3  -3 -10    7.60    2.83
   3   3  10   14.52    2.53
   3   3  10   11.22    2.80
   4  -3  10    8.70    2.12
   4  -3  10   10.68    3.26
  -4  -3 -10    3.17    2.80
   4   3  10    9.89    2.72
   4   3  10    5.63    2.15
  -9  -4  10   19.11    2.97
  -9  -4  10   17.89    4.33
  -9   4  10   21.48    4.49
   9   4 -10   21.38    3.29
  -8  -4  10   11.82    2.17
  -8  -4  10   11.01    3.44
   8   4 -10   12.94    2.40
  -8   4  10   15.01    3.83
  -7  -4  10   25.07    4.39
  -7  -4  10   32.30    2.82
   7  -4 -10   33.32    4.33
  -7   4  10   27.63    4.36
   7   4 -10   30.09    3.32
  -6  -4  10   24.66    2.09
  -6  -4  10   18.57    3.63
   6  -4 -10   21.42    3.46
  -6   4  10   18.46    3.32
   5  -4 -10   31.18    4.06
  -5  -4  10   36.04    4.66
  -5  -4  10   33.64    2.09
  -5   4  10   28.66    4.03
  -5   4  10   31.56    3.22
   4  -4 -10   45.89    4.48
  -4  -4  10   49.53    2.42
  -4  -4  10   50.33    4.57
  -4   4  10   45.33    4.47
   4   4 -10   46.48    4.01
  -4   4  10   45.92    3.56
   3  -4 -10   47.07    4.47
  -3   4  10   54.93    3.84
   3   4 -10   58.59    4.30
  -3   4  10   44.09    4.50
   2  -4 -10   42.88    4.33
  -2  -4  10   46.61    4.89
  -2   4  10   54.64    3.81
  -2   4  10   54.46    4.72
   2   4 -10   50.63    4.06
  -1  -4  10   39.16    5.14
   1  -4 -10   45.45    4.84
   1   4 -10   42.36    3.55
  -1   4  10   40.99    3.42
  -1   4  10   47.29    4.29
   0  -4 -10   27.24    3.90
   0  -4  10   29.28    4.60
   0   4  10   30.09    3.86
   0   4  10   29.44    3.15
   1  -4  10   17.96    1.34
   1  -4  10   20.39    3.94
  -1  -4 -10   18.53    3.48
   1   4  10   17.72    3.05
   1   4  10   21.73    2.76
  -2  -4 -10   16.55    3.47
   2  -4  10   18.28    1.83
   2  -4  10   17.45    4.06
   2   4  10   14.91    2.55
   2   4  10   18.89    3.13
  -3  -4 -10   13.77    3.50
   3  -4  10   18.49    4.13
   3  -4  10   12.72    1.95
   3   4  10   13.10    2.97
  -8  -5  10    5.37    1.83
  -8  -5  10    4.16    3.11
  -8   5  10    8.08    3.08
   8   5 -10    5.03    1.82
  -7  -5  10    2.02    1.30
  -7  -5  10    2.60    2.74
  -7   5  10    2.97    2.50
   7   5 -10    4.51    1.64
   6  -5 -10   -0.29    2.36
  -6  -5  10   -0.26    0.85
  -6  -5  10    1.25    2.38
  -6   5  10    3.40    2.35
   6   5 -10    0.32    1.51
   5  -5 -10   -1.15    2.22
  -5  -5  10    0.53    0.59
  -5  -5  10    1.11    2.07
  -5   5  10   -0.44    1.74
   5   5 -10    1.86    1.34
  -4  -5  10   -1.11    1.76
   4  -5 -10   -0.52    2.20
  -4   5  10    1.49    1.94
   3  -5 -10    0.78    2.22
  -3   5  10    3.11    2.00
   3   5 -10    2.87    1.57
   2  -5 -10   -2.70    1.87
  -2   5  10    1.17    1.71
   2   5 -10    0.08    1.37
   1  -5 -10   -2.96    2.02
  -1  -5  10   -1.35    2.71
  -1   5  10    0.26    1.66
   0  -5 -10    2.08    2.43
   0  -5  10    4.95    3.31
   0   5  10    1.18    1.64
  -1  -5 -10    4.27    2.79
   1  -5  10    6.10    3.25
   1   5  10    6.57    2.25
   2  -5  10    6.25    3.36
  -2  -5 -10   -0.98    2.60
  -6  -6  10   13.56    1.54
  -6  -6  10   17.07    4.10
  -6   6  10   12.18    3.32
   6   6 -10   13.81    2.63
  -5  -6  10   17.08    3.56
  -5   6  10   17.83    3.41
   5   6 -10   13.76    2.43
  -4  -6  10   21.98    3.86
   4  -6 -10   28.58    4.70
  -4   6  10   33.37    4.49
   3  -6 -10   40.67    5.46
  -3   6  10   44.40    4.54
   2  -6 -10   29.06    4.65
  -2   6  10   33.37    4.18
   1  -6 -10   19.32    3.97
  -1   6  10   26.11    3.72
   0  -6 -10   16.06    3.84
   0   6  10   23.49    3.61
 -10   0  11   10.26    2.61
  10   0 -11   16.00    3.37
  -9   0  11   15.75    3.32
  -9   0  11   13.29    2.43
   9   0 -11   10.60    2.83
  -8   0  11   24.60    2.87
  -8   0  11   19.84    3.54
   8   0 -11   24.82    3.79
  -7   0  11   22.39    3.60
  -7   0  11   16.88    2.28
   7   0 -11   17.84    3.14
  -6   0  11   52.02    3.46
  -6   0  11   49.13    4.71
   6   0 -11   46.74    4.39
   5   0 -11   38.81    3.90
  -5   0  11   47.25    3.11
  -5   0  11   44.60    4.37
  -4   0  11   48.77    4.51
  -4   0  11   43.04    2.99
   4   0 -11   43.49    3.93
   3   0 -11   41.29    3.91
  -3   0  11   47.07    4.48
  -3   0  11   48.03    3.02
  -2   0  11   26.08    2.23
   2   0 -11   29.71    3.49
  -2   0  11   26.96    3.79
  -1   0  11   19.31    2.10
  -1   0  11   16.62    3.00
   1   0 -11   20.27    2.99
   0   0  11   35.28    4.50
   0   0 -11   42.98    4.06
   0   0  11   43.57    3.04
   1   0  11   21.97    3.66
   1   0  11   26.71    2.67
  -1   0 -11   28.98    3.55
   2   0  11   37.20    4.85
   2   0  11   41.43    3.30
  -2   0 -11   38.30    4.22
   3   0  11   31.73    3.29
   3   0  11   28.69    4.36
  -3   0 -11   31.52    3.98
   4   0  11   22.14    4.06
   4   0  11   27.71    3.27
 -10  -1  11    6.42    2.42
  10  -1 -11   14.10    3.20
 -10   1  11   10.64    2.61
  10   1 -11   12.22    3.12
 -10   1  11    8.74    3.17
  -9  -1  11    5.78    1.97
   9  -1 -11    9.72    2.75
   9   1 -11   15.73    3.47
  -9   1  11   10.27    2.48
  -9   1  11    5.88    2.99
   8  -1 -11    4.86    2.24
  -8  -1  11    4.35    1.69
   8   1 -11    3.99    2.20
  -8   1  11    4.21    2.53
  -8   1  11    1.55    1.47
   7  -1 -11    7.50    2.37
  -7  -1  11    1.28    1.17
  -7  -1  11    1.23    1.74
   7   1 -11    2.86    1.91
  -7   1  11    2.12    2.14
  -7   1  11    3.34    1.43
  -6  -1  11   12.60    2.78
   6  -1 -11    5.73    2.08
  -6  -1  11    3.88    1.27
   6   1 -11    5.70    2.03
  -6   1  11    4.73    1.41
  -6   1  11    7.17    2.40
   5  -1 -11    2.06    1.71
  -5  -1  11    0.25    0.89
  -5  -1  11    0.79    1.72
  -5   1  11    2.09    1.83
   5   1 -11    1.18    1.62
  -5   1  11    3.14    1.20
  -4  -1  11   12.35    1.56
   4  -1 -11   12.08    2.46
  -4  -1  11   12.04    2.79
  -4   1  11   12.85    1.85
  -4   1  11    7.45    2.31
   4   1 -11    8.09    2.17
   3  -1 -11    4.66    1.81
  -3  -1  11    3.41    2.08
  -3  -1  11    3.74    1.02
   3   1 -11    2.50    1.62
  -3   1  11    5.12    1.36
  -3   1  11    4.54    1.78
  -2  -1  11    0.08    0.81
   2  -1 -11    1.54    1.62
  -2  -1  11   -0.35    1.75
  -2   1  11   -0.51    1.57
  -2   1  11   -0.24    1.04
   2   1 -11    1.21    1.46
  -1  -1  11   -0.11    0.87
  -1  -1  11   -0.32    1.72
   1  -1 -11    2.12    1.64
   1   1 -11   -0.98    1.25
  -1   1  11   -1.03    1.00
  -1   1  11   -0.07    1.76
   0  -1 -11    0.34    1.69
   0  -1  11    2.51    1.12
   0  -1  11    0.47    1.87
   0   1  11    1.77    1.49
   0   1 -11    2.39    1.56
   0   1  11    4.44    1.35
   1  -1  11    5.11    1.42
   1  -1  11    3.52    2.24
  -1  -1 -11    3.81    2.20
  -1   1 -11    5.76    2.04
   1   1  11    3.96    1.50
   1   1  11    2.31    1.98
  -2  -1 -11    2.68    2.02
   2  -1  11    1.86    2.16
   2  -1  11   -0.11    1.24
  -2   1 -11   -1.11    1.56
   2   1  11   -1.11    1.37
   2   1  11    3.04    1.99
   3  -1  11   -1.32    1.36
  -3  -1 -11   -2.20    1.88
   3  -1  11    3.08    2.35
   3   1  11    1.71    2.10
   3   1  11   -1.71    1.28
   4  -1  11    1.91    2.46
   4  -1  11    1.16    1.64
  -4  -1 -11   -3.25    2.05
   4   1  11   -0.44    1.68
   4   1  11   -1.29    1.92
 -10  -2  11   12.41    2.77
 -10  -2  11    9.53    3.91
 -10   2  11   10.20    2.65
  10   2 -11   16.38    3.47
 -10   2  11   13.63    3.81
   9  -2 -11    7.67    2.67
  -9  -2  11   13.80    4.01
  -9  -2  11    7.77    2.15
  -9   2  11   10.90    2.45
   9   2 -11   12.26    3.00
  -9   2  11   16.10    3.73
   8  -2 -11   25.87    3.96
  -8  -2  11   21.09    2.62
  -8   2  11   19.36    2.83
   8   2 -11   17.54    3.30
  -8   2  11   19.88    3.86
  -7  -2  11   24.00    2.54
   7  -2 -11   30.33    4.01
   7   2 -11   21.51    3.45
  -7   2  11   24.70    4.09
  -7   2  11   27.52    3.09
  -6  -2  11   35.21    2.67
  -6  -2  11   40.20    4.83
   6  -2 -11   38.70    4.46
  -6   2  11   39.42    4.08
   6   2 -11   33.17    4.11
  -6   2  11   41.20    3.22
  -5  -2  11   47.23    2.90
  -5  -2  11   48.17    4.65
   5  -2 -11   42.97    4.23
  -5   2  11   44.00    4.50
  -5   2  11   46.85    3.45
   5   2 -11   44.50    4.12
  -4  -2  11   47.80    4.75
  -4  -2  11   49.11    2.91
   4  -2 -11   54.13    4.52
  -4   2  11   48.49    4.51
   4   2 -11   43.05    3.96
  -4   2  11   42.20    3.20
  -3  -2  11   42.67    4.89
  -3  -2  11   33.68    2.26
   3  -2 -11   36.12    3.74
  -3   2  11   35.65    2.89
   3   2 -11   36.74    3.49
  -3   2  11   38.79    4.05
   2  -2 -11   29.32    3.72
  -2  -2  11   32.30    2.14
  -2  -2  11   32.06    4.27
  -2   2  11   29.67    2.75
   2   2 -11   32.53    3.27
  -2   2  11   34.90    4.24
  -1  -2  11   14.92    1.60
  -1  -2  11   19.96    3.58
   1  -2 -11   17.40    3.00
  -1   2  11   15.32    3.01
  -1   2  11   15.35    2.21
   1   2 -11   19.51    2.83
   0  -2  11   37.31    2.60
   0  -2 -11   37.49    4.30
   0  -2  11   31.15    4.54
   0   2  11   37.20    3.02
   0   2 -11   35.84    3.56
   0   2  11   33.42    4.35
  -1  -2 -11   27.18    3.83
   1  -2  11   32.63    4.60
   1  -2  11   31.21    2.63
   1   2  11   29.38    4.01
  -1   2 -11   26.63    3.33
   1   2  11   33.48    3.19
   2  -2  11   24.11    2.66
  -2  -2 -11   26.93    3.88
   2  -2  11   24.46    4.13
   2   2  11   27.09    2.99
   2   2  11   28.25    3.91
   3  -2  11   30.72    3.28
   3  -2  11   29.43    4.55
  -3  -2 -11   32.54    4.46
   3   2  11   28.66    4.20
   3   2  11   36.88    3.73
  -9  -3  11    1.99    3.33
  -9  -3  11    0.34    1.62
  -9   3  11    4.43    2.97
  -8  -3  11    6.62    3.14
  -8  -3  11    4.78    1.66
   8  -3 -11    4.92    2.31
  -8   3  11    4.22    1.93
  -8   3  11    3.92    2.65
   7  -3 -11    1.04    1.91
  -7  -3  11    3.62    2.70
  -7  -3  11   -0.49    0.98
  -7   3  11    2.65    2.23
   7   3 -11    2.59    2.01
  -7   3  11    0.62    1.38
   6  -3 -11    4.72    2.18
  -6  -3  11    2.45    1.05
  -6   3  11    2.39    1.48
   6   3 -11    4.48    2.04
  -6   3  11   -0.43    1.86
  -5  -3  11    4.89    1.02
   5  -3 -11    0.47    1.82
  -5   3  11    4.62    2.29
   5   3 -11    5.06    1.95
  -5   3  11    4.60    1.68
   4  -3 -11    5.51    2.19
  -4  -3  11    5.16    0.89
  -4  -3  11    0.78    2.00
   4   3 -11    5.09    1.88
  -4   3  11    4.08    1.49
  -4   3  11    4.93    2.15
  -3  -3  11    5.38    0.83
  -3  -3  11    9.54    2.85
   3  -3 -11    4.66    2.23
   3   3 -11    4.46    2.00
  -3   3  11    4.16    1.53
  -3   3  11    3.90    2.12
  -2  -3  11    2.02    2.13
   2  -3 -11    1.29    1.93
  -2  -3  11    0.31    0.60
   2   3 -11   -0.70    1.30
  -2   3  11    1.99    1.91
  -2   3  11    2.10    1.44
   1  -3 -11    0.80    1.93
  -1  -3  11    0.09    0.73
  -1  -3  11    0.24    2.09
  -1   3  11    0.78    1.68
  -1   3  11    1.71    1.38
   1   3 -11    1.34    1.37
   0  -3 -11   -1.59    1.87
   0  -3  11    0.32    0.95
   0  -3  11    2.61    2.43
   0   3  11   -1.51    1.20
   0   3  11    3.26    2.02
   1  -3  11    2.14    2.50
   1  -3  11    2.43    1.25
  -1  -3 -11    0.65    2.17
   1   3  11    3.54    1.62
   1   3  11    1.25    2.08
  -2  -3 -11    2.71    2.50
   2  -3  11    3.82    2.66
   2  -3  11    1.44    1.38
   2   3  11    0.84    1.64
   2   3  11    1.97    1.98
   3  -3  11   -0.86    2.53
  -3  -3 -11   -4.10    2.15
   3  -3  11    0.44    1.64
   3   3  11    0.58    1.88
   3   3  11    1.80    1.87
  -8  -4  11    6.73    3.31
  -8  -4  11   11.85    2.06
  -8   4  11   16.40    3.74
  -7  -4  11   17.44    2.02
  -7  -4  11   16.62    3.99
   7  -4 -11   22.43    3.76
  -7   4  11   22.83    4.25
  -6  -4  11   30.35    2.16
   6  -4 -11   23.82    3.87
  -6  -4  11   24.75    4.27
   6   4 -11   27.70    3.81
   5  -4 -11   34.18    4.52
  -5  -4  11   34.92    2.07
  -5   4  11   32.77    4.54
  -5   4  11   36.29    3.57
   5   4 -11   33.01    4.03
   4  -4 -11   38.02    4.64
  -4  -4  11   37.44    1.81
  -4   4  11   36.42    3.35
   4   4 -11   41.46    3.87
  -4   4  11   39.05    4.81
   3  -4 -11   27.71    4.08
   3   4 -11   30.91    3.71
  -3   4  11   32.96    3.39
  -3   4  11   31.76    4.24
  -2  -4  11   18.29    3.84
   2  -4 -11   26.36    3.81
  -2   4  11   24.74    3.74
  -2   4  11   27.45    3.11
   2   4 -11   29.73    3.52
  -1  -4  11   16.88    3.97
   1  -4 -11    7.37    2.71
  -1   4  11   12.93    2.28
  -1   4  11   13.38    2.85
   0  -4 -11   20.76    3.78
   0  -4  11   24.16    4.57
   0   4  11   21.57    3.47
   0   4  11   26.00    3.09
  -1  -4 -11   22.75    4.06
   1  -4  11   26.36    1.56
   1  -4  11   18.93    4.24
   1   4  11   25.09    3.13
   1   4  11   24.81    3.80
   2  -4  11   13.82    3.95
   2  -4  11   22.58    1.95
  -2  -4 -11   15.86    3.74
   2   4  11   22.40    3.71
  -7  -5  11    0.26    1.02
  -7  -5  11    0.48    2.60
  -7   5  11    3.49    2.62
  -6  -5  11    3.22    0.87
   6  -5 -11   -0.44    2.28
  -6  -5  11    2.54    2.55
  -6   5  11    1.98    2.26
   5  -5 -11   -0.87    2.29
  -5  -5  11    3.34    2.30
  -5   5  11    0.30    2.02
   5   5 -11    4.22    1.90
   4  -5 -11    4.19    2.58
   4   5 -11    4.20    1.89
  -4   5  11    4.10    2.27
   3  -5 -11   -0.71    2.24
  -3   5  11    0.34    1.76
   3   5 -11    3.48    1.76
   2  -5 -11   -1.58    2.06
  -2   5  11    0.33    1.74
   1  -5 -11   -2.62    2.35
  -1   5  11    1.05    1.87
   0  -5  11   -1.37    3.00
   0  -5 -11   -0.92    2.49
   0   5  11   -1.08    1.67
   9   0 -12    6.94    2.63
  -9   0  12    8.45    2.17
  -8   0  12   18.65    3.84
   8   0 -12   22.15    3.68
  -8   0  12   19.89    2.68
  -7   0  12    8.17    2.81
  -7   0  12   18.15    2.35
   7   0 -12   17.47    3.22
  -6   0  12   25.20    2.64
   6   0 -12   22.49    3.49
  -6   0  12   28.46    4.15
  -5   0  12   17.11    2.10
   5   0 -12   20.02    3.17
  -5   0  12   15.23    3.18
  -4   0  12   20.85    2.22
   4   0 -12   14.62    2.82
  -4   0  12   19.56    3.48
   3   0 -12   23.75    3.47
  -3   0  12   28.61    2.64
  -3   0  12   28.60    4.12
  -2   0  12   15.10    3.30
   2   0 -12   15.85    2.93
  -2   0  12   20.67    2.23
   1   0 -12   39.78    4.44
  -1   0  12   40.36    5.08
  -1   0  12   43.87    3.18
   0   0  12   25.90    4.10
   0   0  12   30.69    2.96
   0   0 -12   35.40    4.11
   1   0  12   23.12    3.87
  -1   0 -12   23.18    3.60
   1   0  12   24.79    2.77
   2   0  12   20.14    3.74
   2   0  12   22.13    2.76
  -2   0 -12   29.96    4.00
   9  -1 -12   13.52    3.26
  -9  -1  12    9.67    2.23
  -9   1  12    6.57    3.00
  -9   1  12    9.89    2.36
   9   1 -12    8.97    2.76
   8  -1 -12    9.14    2.91
  -8  -1  12    8.36    1.93
  -8   1  12    5.94    1.85
  -8   1  12    6.95    2.73
   8   1 -12   11.76    2.88
  -7  -1  12    9.52    1.81
   7  -1 -12    9.17    2.59
  -7  -1  12    9.15    2.79
   7   1 -12    5.77    2.35
  -7   1  12    8.76    1.91
  -7   1  12   12.26    3.04
  -6  -1  12   20.14    3.60
   6  -1 -12   13.29    2.88
  -6  -1  12   15.82    2.03
  -6   1  12   13.50    2.17
   6   1 -12   14.62    2.76
  -6   1  12   16.49    3.36
  -5  -1  12   14.35    1.81
  -5  -1  12   13.73    3.19
   5  -1 -12   12.20    2.64
  -5   1  12   14.49    3.14
   5   1 -12   14.87    2.87
  -5   1  12   13.00    2.07
  -4  -1  12   14.07    3.18
  -4  -1  12   13.71    1.76
   4  -1 -12   14.31    2.85
  -4   1  12   16.10    2.16
   4   1 -12   13.24    2.65
  -4   1  12    8.33    2.66
  -3  -1  12    7.87    1.42
   3  -1 -12    8.58    2.39
  -3  -1  12    6.40    2.49
   3   1 -12    7.49    2.07
  -3   1  12    8.34    2.53
  -3   1  12    7.39    1.60
  -2  -1  12    2.71    2.25
   2  -1 -12    5.09    2.11
  -2  -1  12    2.14    1.15
  -2   1  12    3.81    1.88
   2   1 -12   -1.55    1.39
  -2   1  12    2.26    1.31
  -1  -1  12    6.15    2.54
   1  -1 -12    2.57    2.06
  -1  -1  12    3.92    1.24
  -1   1  12    1.49    1.97
   1   1 -12    2.93    1.79
  -1   1  12    2.84    1.41
   0  -1 -12    1.95    2.02
   0  -1  12   -0.21    1.05
   0  -1  12    0.09    1.99
   0   1 -12   -0.57    1.43
   0   1  12   -1.36    1.79
   0   1  12    1.16    1.39
   1  -1  12    4.99    1.58
  -1  -1 -12    0.85    2.41
   1  -1  12    6.68    2.51
   1   1  12    2.64    2.27
  -1   1 -12    6.44    2.26
   1   1  12    2.82    1.58
  -2  -1 -12    0.74    2.20
   2  -1  12    3.90    2.51
   2  -1  12    2.93    1.55
   2   1  12    0.24    2.09
   2   1  12    1.40    1.50
   9  -2 -12    7.89    2.87
  -9  -2  12    4.30    1.88
   9   2 -12    7.20    2.89
  -9   2  12    6.09    2.13
  -9   2  12    3.83    2.82
   8  -2 -12   13.20    3.10
  -8  -2  12   14.96    2.25
  -8   2  12   17.50    2.71
   8   2 -12   12.22    3.10
  -8   2  12   15.55    3.65
   7  -2 -12   24.03    3.81
  -7  -2  12   18.19    2.19
  -7   2  12   17.90    2.57
   7   2 -12   19.58    3.37
  -7   2  12   15.87    3.28
  -6  -2  12   20.42    2.11
   6  -2 -12   15.35    3.22
  -6   2  12   10.68    3.09
   6   2 -12   16.20    2.97
  -6   2  12   18.21    2.46
  -5  -2  12   19.61    1.95
  -5  -2  12   16.01    3.63
   5  -2 -12   17.30    3.19
   5   2 -12   21.44    3.27
  -5   2  12   19.39    3.59
  -5   2  12   20.92    2.58
   4  -2 -12   15.71    3.00
  -4  -2  12   15.57    3.41
  -4  -2  12   17.80    1.76
  -4   2  12   20.09    2.50
   4   2 -12   14.83    2.80
  -4   2  12   13.81    2.86
   3  -2 -12   19.79    3.35
  -3  -2  12   23.87    4.03
  -3  -2  12   21.02    1.92
   3   2 -12   18.36    2.99
  -3   2  12   20.37    2.50
  -3   2  12   16.92    3.12
  -2  -2  12   22.25    1.97
   2  -2 -12   20.62    3.44
  -2  -2  12   20.54    3.86
  -2   2  12   28.99    2.91
  -2   2  12   18.72    3.51
   2   2 -12   22.41    3.23
   1  -2 -12   29.52    4.11
  -1  -2  12   36.82    2.58
  -1  -2  12   38.65    4.97
  -1   2  12   33.85    4.58
  -1   2  12   39.16    3.30
   1   2 -12   33.36    3.91
   0  -2  12   29.57    4.60
   0  -2  12   27.12    2.46
   0  -2 -12   30.07    4.07
   0   2  12   27.10    4.17
   0   2  12   31.81    3.29
   0   2 -12   35.89    3.52
   1  -2  12   25.21    2.60
   1  -2  12   24.90    4.32
  -1  -2 -12   25.86    3.92
   1   2  12   19.02    3.61
   1   2  12   29.42    3.18
  -2  -2 -12   25.98    4.03
   2  -2  12   18.78    2.55
   2  -2  12   19.38    4.23
   2   2  12   19.96    3.68
   2   2  12   26.23    3.20
   8  -3 -12   12.27    3.23
  -8  -3  12   11.66    2.03
  -8   3  12    8.54    3.44
   8   3 -12   11.22    3.02
  -8   3  12    7.97    2.17
  -7  -3  12    7.20    1.51
   7  -3 -12    3.57    2.31
   7   3 -12    4.47    2.22
  -7   3  12    6.37    1.95
  -7   3  12    7.97    3.00
   6  -3 -12   12.86    3.05
  -6  -3  12   11.86    1.59
   6   3 -12   15.00    2.89
  -6   3  12   12.65    3.02
  -6   3  12   12.00    2.28
  -5  -3  12   18.10    1.69
   5  -3 -12   15.61    3.26
   5   3 -12   16.64    2.96
  -5   3  12   14.21    2.44
  -5   3  12   18.01    3.55
   4  -3 -12    6.89    2.59
  -4  -3  12    7.88    1.09
  -4  -3  12    8.84    3.00
  -4   3  12    6.77    1.80
  -4   3  12    6.84    2.54
   4   3 -12    8.77    2.32
  -3  -3  12    5.76    2.78
  -3  -3  12    6.37    0.94
   3  -3 -12    6.28    2.52
  -3   3  12    5.08    2.49
   3   3 -12    9.45    2.36
  -3   3  12    8.74    1.94
  -2  -3  12    3.71    2.67
   2  -3 -12   -1.01    1.97
  -2  -3  12    1.39    0.79
   2   3 -12    6.69    2.07
  -2   3  12    2.48    1.55
  -2   3  12    0.94    1.98
  -1  -3  12    1.23    0.96
   1  -3 -12    0.47    2.15
  -1  -3  12    5.52    2.69
  -1   3  12    4.19    1.75
  -1   3  12    4.00    2.18
   1   3 -12    3.70    1.77
   0  -3 -12    0.74    2.31
   0  -3  12    0.82    2.40
   0  -3  12    0.86    1.08
   0   3  12   -0.45    1.55
   0   3  12   -0.32    2.00
   1  -3  12    1.66    2.56
  -1  -3 -12   -1.71    2.25
   1  -3  12    1.77    1.34
   1   3  12    3.86    1.87
   1   3  12    5.34    2.56
   6  -4 -12   12.16    3.38
  -6  -4  12   11.92    1.36
  -6   4  12   15.14    3.56
   6   4 -12   17.32    3.09
  -5  -4  12   16.93    1.28
   5  -4 -12   10.50    3.21
   5   4 -12   13.62    2.90
  -5   4  12   15.34    3.37
  -5   4  12   15.17    2.57
   4  -4 -12   11.09    3.19
   4   4 -12   16.44    3.08
  -4   4  12   17.98    2.73
  -4   4  12   11.44    3.01
   3  -4 -12   12.22    3.14
  -3   4  12   10.58    2.29
   3   4 -12   16.33    2.89
  -3   4  12   15.85    3.40
   2  -4 -12   17.51    3.62
  -2  -4  12   21.88    4.47
  -2   4  12   17.06    3.34
   2   4 -12   22.60    3.23
  -2   4  12   14.15    2.62
   1  -4 -12   27.03    4.49
  -1  -4  12   28.00    5.01
  -1   4  12   29.76    3.44
  -1   4  12   33.27    4.59
  -8   0  13    5.45    2.80
   8   0 -13    4.07    2.58
  -8   0  13    4.14    1.72
   7   0 -13    1.59    2.13
  -7   0  13    1.92    1.45
  -7   0  13    4.42    2.65
   6   0 -13    5.09    2.38
  -6   0  13    6.28    2.69
  -6   0  13    6.09    1.66
  -5   0  13    5.77    1.53
   5   0 -13    7.02    2.40
  -5   0  13    2.33    2.35
   4   0 -13   18.51    3.26
  -4   0  13   12.47    3.27
  -4   0  13   22.83    2.48
  -3   0  13   19.76    2.35
  -3   0  13   14.52    3.41
   3   0 -13   17.76    3.19
  -2   0  13   19.70    2.38
   2   0 -13   17.72    3.24
  -2   0  13   15.67    3.59
   1   0 -13   24.29    3.67
  -1   0  13   21.75    3.86
  -1   0  13   27.70    2.78
   0   0 -13   16.04    3.13
   0   0  13   15.63    3.65
   0   0  13   20.30    2.53
  -7  -1  13   29.79    2.97
  -7  -1  13   27.89    4.54
   7  -1 -13   31.24    4.30
  -7   1  13   30.42    4.74
   7   1 -13   31.69    4.34
  -7   1  13   27.50    3.13
  -6  -1  13   23.80    4.09
  -6  -1  13   17.92    2.27
   6  -1 -13   21.42    3.63
  -6   1  13   22.21    2.77
   6   1 -13   23.33    3.65
  -6   1  13   18.50    3.71
  -5  -1  13   18.62    2.19
  -5  -1  13   15.26    3.59
   5  -1 -13   14.85    3.20
   5   1 -13   15.69    3.09
  -5   1  13   14.19    2.22
  -5   1  13   16.67    3.52
  -4  -1  13    4.19    2.57
  -4  -1  13   11.12    1.72
   4  -1 -13    7.05    2.38
  -4   1  13    5.25    1.62
  -4   1  13    8.67    2.84
   4   1 -13    7.16    2.26
   3  -1 -13    5.81    2.33
  -3  -1  13    5.80    1.45
  -3  -1  13   -0.97    2.15
  -3   1  13    4.05    2.45
  -3   1  13    6.33    1.75
   3   1 -13    2.66    1.93
  -2  -1  13    9.59    1.67
  -2  -1  13    9.30    3.11
   2  -1 -13    5.71    2.49
  -2   1  13   10.16    2.95
  -2   1  13    7.51    1.83
   2   1 -13    9.53    2.54
  -1  -1  13   11.95    3.29
   1  -1 -13    8.79    2.75
  -1  -1  13    9.89    1.76
   1   1 -13    7.91    2.46
  -1   1  13    5.98    2.56
  -1   1  13   10.56    2.03
   0  -1 -13   10.60    2.94
   0  -1  13   10.74    1.97
   0  -1  13   11.76    3.08
   0   1  13    5.20    2.65
   0   1  13   11.02    2.19
   0   1 -13   10.93    2.86
  -7  -2  13    1.07    1.30
   7  -2 -13    1.90    2.35
   7   2 -13    1.75    2.01
  -7   2  13    2.25    1.67
  -7   2  13    0.59    2.34
  -6  -2  13    3.86    1.28
   6  -2 -13   -1.54    1.86
  -6   2  13    5.28    2.70
   6   2 -13    3.72    2.20
  -6   2  13    4.60    1.81
   5  -2 -13    8.76    2.91
  -5  -2  13    9.41    1.50
  -5  -2  13    7.07    2.91
  -5   2  13    5.56    1.88
  -5   2  13    5.06    2.69
   5   2 -13   10.55    2.72
   4  -2 -13   12.17    3.00
  -4  -2  13   16.38    1.79
  -4  -2  13   13.50    3.46
   4   2 -13   15.76    3.01
  -4   2  13   10.56    2.99
  -4   2  13   17.99    2.59
  -3  -2  13   11.96    3.34
  -3  -2  13   11.98    1.55
   3  -2 -13    9.99    2.95
  -3   2  13   16.23    2.43
  -3   2  13   13.58    3.02
   3   2 -13   13.77    2.83
   2  -2 -13   20.91    3.61
  -2  -2  13   15.96    3.97
  -2  -2  13   16.18    1.86
   2   2 -13   18.01    3.09
  -2   2  13   25.39    2.93
  -2   2  13   18.81    3.47
  -1  -2  13   19.89    2.12
   1  -2 -13   19.60    3.60
  -1  -2  13   19.53    3.94
   1   2 -13   19.58    3.31
  -1   2  13   18.66    2.69
  -1   2  13   23.80    4.01
   5  -3 -13   18.65    3.66
  -5  -3  13   18.57    1.74
  -5   3  13   18.31    2.73
  -5   3  13   13.97    3.45
   5   3 -13   21.96    3.64
   4  -3 -13    0.57    2.30
  -4  -3  13    2.70    0.88
   4   3 -13    4.00    2.07
  -4   3  13    2.34    2.33
  -4   3  13    3.61    1.85
  -3  -3  13    4.93    0.99
   3  -3 -13    4.98    2.64
  -3  -3  13    2.17    2.64
  -3   3  13    5.26    2.59
  -3   3  13    2.24    1.65
   3   3 -13    4.37    2.03
   2  -3 -13    1.82    2.48
  -2  -3  13    7.94    3.34
  -2  -3  13    6.56    1.15
  -2   3  13    6.60    2.01
   2   3 -13    6.15    2.48
  -2   3  13    7.12    2.81
   0   0   0    0.00    0.00
;
_shelx_hkl_checksum              47138
_olex2_submission_special_instructions 'No special instructions were received'
loop_
_space_group_symop_operation_xyz
'x, y, z'
'-x, y+1/2, -z'
'-x, -y, -z'
'x, -y-1/2, z'
loop_
_atom_site_label
_atom_site_type_symbol
_atom_site_fract_x
_atom_site_fract_y
_atom_site_fract_z
_atom_site_U_iso_or_equiv
_atom_site_adp_type
_atom_site_occupancy
_atom_site_site_symmetry_order
_atom_site_calc_flag
_atom_site_refinement_flags_posn
_atom_site_refinement_flags_adp
_atom_site_refinement_flags_occupancy
Au1 Au 0.98848(3) 0.2500 0.54488(2) 0.01389(7) Uani 1 2 d S T P
Cl1 Cl 1.13266(18) 0.2500 0.78736(14) 0.0178(3) Uani 1 2 d S T P
C1 C 0.8665(7) 0.2500 0.3329(6) 0.0157(11) Uani 1 2 d S T P
C2 C 0.6059(7) 0.2500 0.3538(6) 0.0207(12) Uani 1 2 d S T P
N1 N 0.7091(6) 0.2500 0.2687(5) 0.0143(9) Uani 1 2 d S T P
F2 F 0.4599(5) 0.2500 0.2675(4) 0.0295(9) Uani 1 2 d S T P
F1 F 0.6258(3) 0.0873(4) 0.4396(3) 0.0306(6) Uani 1 1 d . . .
C5 C 0.5430(8) 0.2500 -0.1426(7) 0.0242(13) Uani 1 2 d S T P
H5 H 0.4505 0.2500 -0.2246 0.029 Uiso 1 2 calc R U P
C4 C 0.5307(7) 0.2500 -0.0011(6) 0.0187(12) Uani 1 2 d S T P
H4 H 0.4324 0.2500 0.0155 0.022 Uiso 1 2 calc R U P
C3 C 0.6702(7) 0.2500 0.1144(6) 0.0154(11) Uani 1 2 d S T P
N2 N 0.9291(6) 0.2500 0.2226(5) 0.0153(9) Uani 1 2 d S T P
C8 C 0.8122(7) 0.2500 0.0882(6) 0.0166(11) Uani 1 2 d S T P
C7 C 0.8244(8) 0.2500 -0.0543(6) 0.0194(12) Uani 1 2 d S T P
H7 H 0.9223 0.2500 -0.0717 0.023 Uiso 1 2 calc R U P
C9 C 1.0954(7) 0.2500 0.2411(7) 0.0233(13) Uani 1 2 d S T P
H9A H 1.1305 0.3902 0.2350 0.035 Uiso 0.5 1 calc R U P
H9B H 1.1151 0.1675 0.1634 0.035 Uiso 0.5 1 calc R U P
H9C H 1.1526 0.1923 0.3374 0.035 Uiso 0.5 1 calc R U P
C6 C 0.6859(9) 0.2500 -0.1669(7) 0.0264(14) Uani 1 2 d S T P
H6 H 0.6883 0.2500 -0.2653 0.032 Uiso 1 2 calc R U P
loop_
_atom_site_aniso_label
_atom_site_aniso_U_11
_atom_site_aniso_U_22
_atom_site_aniso_U_33
_atom_site_aniso_U_23
_atom_site_aniso_U_13
_atom_site_aniso_U_12
Au1 0.01447(12) 0.01159(10) 0.01526(10) 0.000 0.00415(8) 0.000
Cl1 0.0179(7) 0.0168(6) 0.0172(6) 0.000 0.0033(5) 0.000
C1 0.020(3) 0.010(2) 0.018(2) 0.000 0.007(2) 0.000
C2 0.015(3) 0.027(3) 0.022(3) 0.000 0.009(2) 0.000
N1 0.017(3) 0.014(2) 0.015(2) 0.000 0.0083(19) 0.000
F2 0.019(2) 0.045(2) 0.0236(18) 0.000 0.0055(16) 0.000
F1 0.0281(16) 0.0377(15) 0.0290(13) 0.0128(12) 0.0134(12) -0.0014(13)
C5 0.028(4) 0.025(3) 0.016(3) 0.000 0.002(2) 0.000
C4 0.017(3) 0.018(3) 0.019(2) 0.000 0.003(2) 0.000
C3 0.020(3) 0.012(2) 0.014(2) 0.000 0.005(2) 0.000
N2 0.015(3) 0.0103(19) 0.021(2) 0.000 0.0064(19) 0.000
C8 0.018(3) 0.012(2) 0.017(2) 0.000 0.002(2) 0.000
C7 0.024(3) 0.019(3) 0.020(3) 0.000 0.014(2) 0.000
C9 0.017(3) 0.028(3) 0.025(3) 0.000 0.007(3) 0.000
C6 0.043(4) 0.020(3) 0.018(3) 0.000 0.013(3) 0.000
loop_
_atom_type_symbol
_atom_type_description
_atom_type_scat_dispersion_real
_atom_type_scat_dispersion_imag
_atom_type_scat_source
C C 0.0033 0.0016 'International Tables Vol C Tables 4.2.6.8 and 6.1.1.4'
H H 0.0000 0.0000 'International Tables Vol C Tables 4.2.6.8 and 6.1.1.4'
N N 0.0061 0.0033 'International Tables Vol C Tables 4.2.6.8 and 6.1.1.4'
F F 0.0171 0.0103 'International Tables Vol C Tables 4.2.6.8 and 6.1.1.4'
Cl Cl 0.1484 0.1585 'International Tables Vol C Tables 4.2.6.8 and 6.1.1.4'
Au Au -2.0133 8.8022 'International Tables Vol C Tables 4.2.6.8 and 6.1.1.4'
loop_
_geom_angle_atom_site_label_1
_geom_angle_atom_site_label_2
_geom_angle_atom_site_label_3
_geom_angle
_geom_angle_site_symmetry_1
_geom_angle_site_symmetry_3
C1 Au1 Cl1 178.98(17) . .
N1 C1 Au1 129.0(4) . .
N2 C1 Au1 124.7(4) . .
N2 C1 N1 106.4(5) . .
F2 C2 N1 110.4(5) . .
F2 C2 F1 107.6(4) . 4_565
F2 C2 F1 107.6(4) . .
F1 C2 N1 111.8(3) 4_565 .
F1 C2 N1 111.8(3) . .
F1 C2 F1 107.3(5) 4_565 .
C1 N1 C2 121.5(5) . .
C1 N1 C3 110.8(5) . .
C3 N1 C2 127.7(5) . .
C6 C5 C4 121.8(6) . .
C3 C4 C5 116.4(6) . .
C4 C3 N1 134.4(6) . .
C8 C3 N1 104.5(5) . .
C8 C3 C4 121.0(5) . .
C1 N2 C8 110.1(5) . .
C1 N2 C9 125.2(5) . .
C8 N2 C9 124.7(5) . .
C3 C8 N2 108.2(5) . .
C3 C8 C7 122.5(6) . .
N2 C8 C7 129.3(6) . .
C6 C7 C8 115.7(6) . .
C7 C6 C5 122.5(6) . .
loop_
_geom_bond_atom_site_label_1
_geom_bond_atom_site_label_2
_geom_bond_distance
_geom_bond_site_symmetry_2
Au1 Cl1 2.2777(14) .
Au1 C1 1.982(6) .
C1 N1 1.360(8) .
C1 N2 1.346(7) .
C2 N1 1.417(7) .
C2 F2 1.318(7) .
C2 F1 1.324(4) .
C2 F1 1.324(4) 4_565
N1 C3 1.407(7) .
C5 C4 1.393(9) .
C5 C6 1.381(10) .
C4 C3 1.391(8) .
C3 C8 1.382(8) .
N2 C8 1.384(7) .
N2 C9 1.456(8) .
C8 C7 1.403(8) .
C7 C6 1.370(9) .
loop_
_geom_torsion_atom_site_label_1
_geom_torsion_atom_site_label_2
_geom_torsion_atom_site_label_3
_geom_torsion_atom_site_label_4
_geom_torsion
_geom_torsion_site_symmetry_1
Au1 C1 N1 C2 0.000(1) .
Au1 C1 N1 C3 180.000(1) .
Au1 C1 N2 C8 180.000(1) .
Au1 C1 N2 C9 0.000(1) .
C1 N1 C3 C4 180.000(1) .
C1 N1 C3 C8 0.000(1) .
C1 N2 C8 C3 0.000(1) .
C1 N2 C8 C7 180.000(1) .
C2 N1 C3 C4 0.000(1) .
C2 N1 C3 C8 180.000(1) .
N1 C1 N2 C8 0.000(1) .
N1 C1 N2 C9 180.000(1) .
N1 C3 C8 N2 0.000(1) .
N1 C3 C8 C7 180.000(1) .
F2 C2 N1 C1 180.000(1) .
F2 C2 N1 C3 0.000(1) .
F1 C2 N1 C1 -60.2(4) .
F1 C2 N1 C1 60.2(4) 4_565
F1 C2 N1 C3 119.8(4) .
F1 C2 N1 C3 -119.8(4) 4_565
C5 C4 C3 N1 180.000(1) .
C5 C4 C3 C8 0.000(0) .
C4 C5 C6 C7 0.000(1) .
C4 C3 C8 N2 180.000(1) .
C4 C3 C8 C7 0.000(1) .
C3 C8 C7 C6 0.000(0) .
N2 C1 N1 C2 180.000(1) .
N2 C1 N1 C3 0.000(1) .
N2 C8 C7 C6 180.000(1) .
C8 C7 C6 C5 0.000(1) .
C9 N2 C8 C3 180.000(1) .
C9 N2 C8 C7 0.000(1) .
C6 C5 C4 C3 0.000(1) .
