#------------------------------------------------------------------------------
#$Date: 2019-11-24 11:30:18 +0200 (Sun, 24 Nov 2019) $
#$Revision: 237801 $
#$URL: file:///home/coder/svn-repositories/cod/cif/4/08/87/4088749.cif $
#------------------------------------------------------------------------------
#
# This file is available in the Crystallography Open Database (COD),
# http://www.crystallography.net/
#
# All data on this site have been placed in the public domain by the
# contributors.
#
data_4088749
loop_
_publ_author_name
'Hering, Florian'
'Berthel, Johannes H. J.'
'Lubitz, Katharina'
'Paul, Ursula S. D.'
'Schneider, Heidi'
'H\"arterich, Marcel'
'Radius, Udo'
_publ_section_title
;
 Synthesis and Thermal Properties of Novel NHC-Stabilized Cobalt Carbonyl
 Nitrosyl Complexes
;
_journal_issue                   17
_journal_name_full               Organometallics
_journal_page_first              2806
_journal_paper_doi               10.1021/acs.organomet.6b00374
_journal_volume                  35
_journal_year                    2016
_chemical_formula_sum            'C13 H20 Co N3 O3'
_chemical_formula_weight         325.25
_space_group_crystal_system      triclinic
_space_group_IT_number           2
_space_group_name_Hall           '-P 1'
_space_group_name_H-M_alt        'P -1'
_atom_sites_solution_hydrogens   geom
_audit_creation_method           SHELXL-2014/6
_cell_angle_alpha                70.2090(10)
_cell_angle_beta                 78.0480(10)
_cell_angle_gamma                64.9950(10)
_cell_formula_units_Z            2
_cell_length_a                   8.6254(3)
_cell_length_b                   9.1840(3)
_cell_length_c                   11.3260(4)
_cell_measurement_reflns_used    9499
_cell_measurement_temperature    100(2)
_cell_measurement_theta_max      26.08
_cell_measurement_theta_min      2.55
_cell_volume                     762.92(5)
_computing_cell_refinement       'Saint-NT v. 7.23'
_computing_data_collection       'APEX2 ver. 2014.1 (Bruker AXS)'
_computing_data_reduction        'Saint-NT v. 7.23'
_computing_molecular_graphics    'XP ver. 5.1 (Bruker AXS, 1998)'
_computing_publication_material  'SHELXL-2014 (Sheldrick, 2014)'
_computing_structure_refinement  'SHELXL-2014/6 (Sheldrick, 2014)'
_computing_structure_solution    'SHELXL-2014 (Sheldrick, 2014)'
_diffrn_ambient_temperature      100(2)
_diffrn_measured_fraction_theta_full 0.999
_diffrn_measured_fraction_theta_max 0.999
_diffrn_measurement_device_type  'Bruker X8-APEX II'
_diffrn_measurement_method       '\f and \w scans'
_diffrn_radiation_monochromator  mirror
_diffrn_radiation_source         'rotating anode'
_diffrn_radiation_type           MoK\a
_diffrn_radiation_wavelength     0.71073
_diffrn_reflns_av_R_equivalents  0.0139
_diffrn_reflns_av_unetI/netI     0.0129
_diffrn_reflns_Laue_measured_fraction_full 0.999
_diffrn_reflns_Laue_measured_fraction_max 0.999
_diffrn_reflns_limit_h_max       10
_diffrn_reflns_limit_h_min       -10
_diffrn_reflns_limit_k_max       11
_diffrn_reflns_limit_k_min       -11
_diffrn_reflns_limit_l_max       13
_diffrn_reflns_limit_l_min       -14
_diffrn_reflns_number            9941
_diffrn_reflns_point_group_measured_fraction_full 0.999
_diffrn_reflns_point_group_measured_fraction_max 0.999
_diffrn_reflns_theta_full        26.000
_diffrn_reflns_theta_max         26.086
_diffrn_reflns_theta_min         2.552
_exptl_absorpt_coefficient_mu    1.135
_exptl_absorpt_correction_T_max  0.75
_exptl_absorpt_correction_T_min  0.67
_exptl_absorpt_correction_type   analytical
_exptl_absorpt_process_details   'Sadabs 2014/3 (Bruker 2014)'
_exptl_crystal_colour            red
_exptl_crystal_density_diffrn    1.416
_exptl_crystal_description       block
_exptl_crystal_F_000             340
_exptl_crystal_size_max          0.253
_exptl_crystal_size_mid          0.222
_exptl_crystal_size_min          0.150
_refine_diff_density_max         0.831
_refine_diff_density_min         -0.690
_refine_diff_density_rms         0.056
_refine_ls_extinction_method     none
_refine_ls_goodness_of_fit_ref   1.086
_refine_ls_hydrogen_treatment    constr
_refine_ls_matrix_type           full
_refine_ls_number_parameters     187
_refine_ls_number_reflns         3025
_refine_ls_number_restraints     0
_refine_ls_restrained_S_all      1.086
_refine_ls_R_factor_all          0.0315
_refine_ls_R_factor_gt           0.0300
_refine_ls_shift/su_max          0.001
_refine_ls_shift/su_mean         0.000
_refine_ls_structure_factor_coef Fsqd
_refine_ls_weighting_details
'w=1/[\s^2^(Fo^2^)+(0.0299P)^2^+0.7837P] where P=(Fo^2^+2Fc^2^)/3'
_refine_ls_weighting_scheme      calc
_refine_ls_wR_factor_gt          0.0738
_refine_ls_wR_factor_ref         0.0749
_reflns_Friedel_coverage         0.000
_reflns_number_gt                2874
_reflns_number_total             3025
_reflns_threshold_expression     'I > 2\s(I)'
_cod_data_source_file            om6b00374_si_002.cif
_cod_data_source_block           compound_16
_cod_database_code               4088749
_shelx_space_group_comment
;
The symmetry employed for this shelxl refinement is uniquely defined
by the following loop, which should always be used as a source of
symmetry information in preference to the above space-group names.
They are only intended as comments.
;
_shelx_estimated_absorpt_t_min   0.762
_shelx_estimated_absorpt_t_max   0.848
_shelxl_version_number           2014/6
_shelx_res_file
;
TITL UP114_a.res in P-1
REM Old TITL UP114 in P-1
REM SHELXT solution in P-1
REM R1 0.099,  Rweak 0.009,  Alpha 0.042,  Orientation as input
REM Formula found by SHELXT:  C14 N2 O3 Co
CELL  0.71073   8.6254   9.1840  11.3260   70.209   78.048   64.995
ZERR    2.000   0.0003   0.0003   0.0004    0.001    0.001    0.001
LATT  1
SFAC C H N O CO
UNIT 26 40 6 6 2
TEMP -173
L.S. 10
SIZE 0.253 0.222 0.150
LIST 4
FMAP 2
Bond $H
ACTA 52
OMIT 1 0 2
PLAN 5
WGHT    0.029900    0.783700
FVAR       0.92141
CO01  5    0.669658    0.754174    0.706879    11.00000    0.02421    0.02110 =
         0.03270   -0.00752   -0.00033   -0.01464
O1    4    0.838307    0.707013    0.919190    11.00000    0.03062    0.05109 =
         0.02935   -0.01487   -0.00847   -0.01442
N1    3    0.416938    0.609620    0.694217    11.00000    0.01244    0.01130 =
         0.01287   -0.00342   -0.00133   -0.00361
C1    1    0.566822    0.585495    0.734071    11.00000    0.01280    0.01367 =
         0.01147   -0.00475    0.00032   -0.00341
N2    3    0.623559    0.424025    0.807709    11.00000    0.01215    0.01228 =
         0.01331   -0.00370   -0.00148   -0.00302
O2    4    0.906370    0.694955    0.488170    11.00000    0.03205    0.04287 =
         0.03091   -0.01223    0.00188   -0.01693
C2    1    0.376938    0.467233    0.746932    11.00000    0.01535    0.01324 =
         0.01493   -0.00641    0.00106   -0.00574
C3    1    0.507210    0.350561    0.818126    11.00000    0.01528    0.01411 =
         0.01380   -0.00639    0.00158   -0.00547
O3    4    0.403697    1.084281    0.671305    11.00000    0.03920    0.02655 =
         0.06139   -0.01795   -0.02342   -0.00084
C4    1    0.218069    0.452614    0.728853    11.00000    0.01764    0.01674 =
         0.03167   -0.00623   -0.00511   -0.00717
AFIX 137
H4A   2    0.226821    0.439966    0.644925    11.00000   -1.50000
H4B   2    0.118365    0.553736    0.736971    11.00000   -1.50000
H4C   2    0.204716    0.354542    0.792792    11.00000   -1.50000
AFIX   0
C5    1    0.527741    0.175695    0.893559    11.00000    0.02302    0.01412 =
         0.02179   -0.00221   -0.00348   -0.00752
AFIX 137
H5A   2    0.418485    0.162731    0.902265    11.00000   -1.50000
H5B   2    0.562393    0.153196    0.977128    11.00000   -1.50000
H5C   2    0.615810    0.096492    0.850749    11.00000   -1.50000
AFIX   0
C6    1    0.320926    0.764551    0.599738    11.00000    0.01466    0.01200 =
         0.01457   -0.00127   -0.00432   -0.00361
AFIX  13
H6    2    0.391561    0.834611    0.573049    11.00000   -1.20000
AFIX   0
C9    1    0.788192    0.344088    0.867316    11.00000    0.01236    0.01575 =
         0.01632   -0.00326   -0.00417   -0.00265
AFIX  13
H9    2    0.847537    0.424307    0.831313    11.00000   -1.20000
AFIX   0
C8    1    0.149384    0.868171    0.655105    11.00000    0.01948    0.01696 =
         0.02002   -0.00391   -0.00211    0.00078
AFIX 137
H8A   2    0.097552    0.975432    0.592370    11.00000   -1.50000
H8B   2    0.167401    0.888629    0.729728    11.00000   -1.50000
H8C   2    0.072770    0.807155    0.678860    11.00000   -1.50000
AFIX   0
C7    1    0.305341    0.729199    0.481618    11.00000    0.02653    0.02265 =
         0.01568   -0.00520   -0.00518   -0.00772
AFIX 137
H7A   2    0.261189    0.835113    0.415790    11.00000   -1.50000
H7B   2    0.226374    0.671318    0.500759    11.00000   -1.50000
H7C   2    0.418430    0.658416    0.452287    11.00000   -1.50000
AFIX   0
C10   1    0.907074    0.183021    0.833507    11.00000    0.01697    0.01980 =
         0.02689   -0.00798   -0.00368    0.00008
AFIX 137
H10A  2    0.910667    0.201792    0.742668    11.00000   -1.50000
H10B  2    0.864197    0.094046    0.878714    11.00000   -1.50000
H10C  2    1.022769    0.149704    0.857410    11.00000   -1.50000
AFIX   0
C11   1    0.759457    0.322715    1.008141    11.00000    0.02224    0.03056 =
         0.01802   -0.00692   -0.00589   -0.00744
AFIX 137
H11A  2    0.869651    0.284459    1.042860    11.00000   -1.50000
H11B  2    0.707415    0.239707    1.048687    11.00000   -1.50000
H11C  2    0.682773    0.430195    1.023691    11.00000   -1.50000
AFIX   0
C21   1    0.505561    0.951153    0.682429    11.00000    0.01947    0.01572 =
         0.02338   -0.00666   -0.00782   -0.00601
N26   3    0.771467    0.717091    0.836555    11.00000    0.02203    0.02625 =
         0.03219   -0.00902   -0.00027   -0.00868
C27   1    0.812001    0.719599    0.572744    11.00000    0.01695    0.01954 =
         0.01883   -0.00345   -0.00207   -0.00975
HKLF 4

REM  UP114_a.res in P-1
REM R1 =  0.0300 for    2874 Fo > 4sig(Fo)  and  0.0315 for all    3025 data
REM    187 parameters refined using      0 restraints

END

WGHT      0.0299      0.7837

REM Highest difference peak  0.831,  deepest hole -0.690,  1-sigma level  0.056
Q1    1   0.7230  0.7285  0.6491  11.00000  0.05    0.83
Q2    1   0.3637  1.0463  0.7407  11.00000  0.05    0.41
Q3    1   0.5946  0.8682  0.6877  11.00000  0.05    0.38
Q4    1   0.7043  0.3748  0.8339  11.00000  0.05    0.33
Q5    1   0.3075  0.7519  0.5429  11.00000  0.05    0.32
;
_shelx_res_checksum              74497
_shelx_hkl_file
;
  -1   0   0 3802.32   59.09
   1   0   0 3823.42   59.69
  -2   0   0 1226.48   19.50
  -2   0   0 1265.27   19.50
  -2   0   0 1268.57   19.00
   2   0   0 1197.98   19.60
   2   0   0 1253.07   19.20
  -3   0   0    7.80    0.70
   3   0   0    8.30    0.60
   3   0   0   10.10    0.30
  -4   0   0  637.64   10.90
   4   0   0  644.94   11.60
  -5   0   0   35.40    1.70
   5   0   0   32.20    2.00
  -6   0   0  282.47    6.10
   6   0   0  273.87    6.90
  -7   0   0  220.58    5.50
  -9   0   0  109.49    4.30
   9   0   0  120.99    5.40
   9  -1   0   44.80    4.00
  -9   1   0   26.30    2.40
   8  -1   0   48.20    3.40
  -8   1   0   41.50    2.70
   7  -1   0  289.37    7.80
  -7   1   0  289.87    6.70
   6  -1   0  146.99    2.90
   6  -1   0  143.89    4.80
  -6   1   0  151.58    4.20
   5  -1   0 1295.27   19.90
   5  -1   0 1247.58   22.00
   5  -1   0 1285.37   19.90
  -5   1   0 1298.67   21.10
  -5   1   0 1297.97   20.10
   4  -1   0  223.88    3.90
   4  -1   0  226.48    3.90
   4  -1   0  219.48    5.20
  -4   1   0  220.18    4.60
  -4   1   0  219.38    4.00
   3  -1   0   15.00    0.70
   3  -1   0   15.90    1.20
   3  -1   0   16.30    1.20
   3  -1   0   15.20    0.90
  -3   1   0   13.50    1.00
  -3   1   0   14.40    0.70
   2  -1   0  116.99    2.30
   2  -1   0  114.69    2.20
  -2   1   0  120.49    2.60
  -2   1   0  111.79    2.20
  -2   1   0  108.09    2.30
  -2   1   0  115.59    2.50
   1  -1   0 1073.99   17.30
   1  -1   0 1089.59   16.90
   1  -1   0 1106.89   17.00
   1  -1   0 1116.89   17.30
  -1   1   0 1082.59   16.90
  -1   1   0 1077.09   16.80
  -1   1   0 1062.99   17.40
   0  -1   0 1355.46   21.70
   0   1   0 1328.27   21.70
  -1  -1   0  232.18    4.50
  -1  -1   0  224.18    4.20
  -1  -1   0  266.87    4.20
   1   1   0  265.17    4.30
   1   1   0  265.37    4.20
   1   1   0  253.37    4.50
  -2  -1   0 1211.28   19.40
  -2  -1   0 1210.48   19.00
  -2  -1   0 1237.18   19.10
  -2  -1   0 1234.48   19.10
   2   1   0 1252.27   19.40
   2   1   0 1195.18   18.90
   2   1   0 1268.07   19.00
  -4  -1   0  155.78    3.50
   4   1   0  153.38    4.00
   5   1   0   48.00    2.30
  -6  -1   0    8.80    1.10
   6   1   0    5.80    1.20
  -7  -1   0  113.99    3.70
   7   1   0  122.09    4.50
  -8  -1   0   84.59    3.50
   8   1   0   84.89    4.20
  -9  -1   0    1.50    1.20
   9   1   0    0.80    1.40
   8  -2   0  256.87    8.10
  -8   2   0  264.57    6.70
   7  -2   0    1.70    1.30
  -7   2   0    1.00    1.00
   6  -2   0  151.28    5.20
  -6   2   0  158.38    3.50
  -6   2   0  154.78    4.30
   5  -2   0  674.03   13.10
   5  -2   0  698.53   11.30
   5  -2   0  697.43   11.30
   5  -2   0  683.03   13.30
  -5   2   0  686.73   12.20
  -5   2   0  683.43   11.50
   4  -2   0    7.10    0.70
   4  -2   0    7.40    1.20
   4  -2   0    6.60    1.10
   4  -2   0    7.70    0.70
  -4   2   0    6.50    0.80
  -4   2   0    6.90    0.70
   3  -2   0  534.75    8.70
   3  -2   0  506.55    9.60
   3  -2   0  525.15    8.80
  -3   2   0  516.95    8.90
  -3   2   0  520.95    8.80
   2  -2   0   27.40    0.90
   2  -2   0   27.00    1.00
   2  -2   0   34.50    1.40
  -2   2   0   28.40    1.10
  -2   2   0   26.30    1.10
  -2   2   0   29.50    1.20
   1  -2   0  308.97    4.80
   1  -2   0  294.97    5.10
   1  -2   0  294.67    5.30
  -1   2   0  295.27    4.90
  -1   2   0  283.57    5.20
  -1   2   0  298.27    5.20
   0  -2   0 6652.83  102.99
   0  -2   0 6604.64  102.89
   0   2   0 6568.74  102.99
   0   2   0 6615.24  103.69
  -1  -2   0   49.20    1.40
  -1  -2   0   46.50    1.30
  -1  -2   0   49.40    1.00
   1   2   0   45.70    1.40
   1   2   0   49.40    1.00
   1   2   0   48.30    1.30
  -2  -2   0 9236.58  146.59
  -2  -2   0 9527.05  146.49
  -2  -2   0 9999.00  149.99
   2   2   0 9571.44  146.29
   2   2   0 9485.55  149.59
  -3  -2   0  415.46    7.20
  -3  -2   0  422.56    6.80
  -3  -2   0  412.26    7.70
  -3  -2   0  423.26    6.80
   3   2   0  414.76    6.80
   3   2   0  423.96    7.70
   3   2   0  422.86    7.10
  -4  -2   0   55.09    1.20
  -4  -2   0   57.79    1.90
   4   2   0   58.59    2.30
   4   2   0   55.99    1.20
  -5  -2   0  857.31   14.40
   5   2   0  859.61   15.30
  -6  -2   0 1500.15   24.40
   6   2   0 1494.35   25.60
  -7  -2   0  163.28    4.50
   7   2   0  167.98    5.30
  -8  -2   0  220.58    5.80
   8   2   0  237.08    7.00
  -9  -2   0  307.37    7.50
   9   2   0  313.17    8.80
 -10  -2   0    0.60    1.30
  10   2   0   -1.30    1.20
   8  -3   0   11.40    2.30
  -8   3   0   14.20    1.80
   7  -3   0  123.99    5.30
  -7   3   0  128.39    4.10
   6  -3   0   14.70    2.20
  -6   3   0   15.50    1.30
  -6   3   0   13.30    1.50
   5  -3   0  501.35   10.80
   5  -3   0  511.25   10.70
  -5   3   0  517.05    9.40
  -5   3   0  519.85    9.60
   4  -3   0    1.40    0.90
   4  -3   0    2.10    1.00
  -4   3   0    2.50    0.70
  -4   3   0    1.70    0.70
   3  -3   0  178.88    4.40
   3  -3   0  181.18    4.60
  -3   3   0  179.28    4.00
  -3   3   0  175.48    3.80
   2  -3   0   12.00    1.10
   2  -3   0   12.20    1.10
   2  -3   0   14.50    0.70
   2  -3   0   16.30    1.10
  -2   3   0   14.60    0.90
  -2   3   0   14.40    1.10
   1  -3   0 1028.80   16.40
   1  -3   0 1008.40   16.50
   1  -3   0 1038.60   15.70
  -1   3   0 1004.90   15.80
  -1   3   0 1024.50   16.50
   0  -3   0  232.78    4.40
   0  -3   0  221.38    4.30
  -1  -3   0 1878.21   29.40
  -1  -3   0 1895.61   29.40
   1   3   0 1951.70   29.50
   1   3   0 1873.21   30.30
  -2  -3   0  195.78    4.20
  -2  -3   0  203.08    3.50
  -2  -3   0  197.78    3.80
  -2  -3   0  202.08    4.10
   2   3   0  204.48    3.90
   2   3   0  208.18    3.40
  -3  -3   0  498.65    9.20
  -3  -3   0  499.55    8.40
  -3  -3   0  505.85    8.40
  -3  -3   0  506.15    8.40
   3   3   0  511.75    9.20
   3   3   0  509.05    8.40
   3   3   0  520.55    8.30
  -4  -3   0 1096.89   17.00
  -4  -3   0 1084.39   17.00
  -4  -3   0 1102.59   17.40
   4   3   0 1091.29   17.00
   4   3   0 1057.89   18.30
  -5  -3   0  971.90   16.30
  -5  -3   0 1001.40   15.50
   5   3   0  990.10   15.50
   5   3   0  995.10   17.30
  -6  -3   0    4.70    0.90
   6   3   0    6.00    1.20
  -7  -3   0  145.49    4.20
   7   3   0  153.28    5.00
  -8  -3   0  105.09    3.70
   8   3   0  102.79    4.40
  -9  -3   0   -0.50    1.10
   9   3   0    0.00    1.20
 -10  -3   0  112.69    4.50
  10   3   0  110.19    5.30
   7  -4   0   83.89    4.50
  -7   4   0   77.59    3.30
   6  -4   0  223.98    7.00
   6  -4   0  219.58    6.80
  -6   4   0  228.78    5.50
  -6   4   0  229.48    5.50
   5  -4   0  310.67    7.80
   5  -4   0  292.87    7.80
  -5   4   0  306.97    6.60
  -5   4   0  311.47    6.50
   4  -4   0   39.00    2.40
   4  -4   0   41.60    2.40
  -4   4   0   38.60    1.90
  -4   4   0   39.70    1.80
   3  -4   0 2224.48   36.10
   3  -4   0 2246.18   36.20
  -3   4   0 2249.38   34.80
  -3   4   0 2237.68   35.50
   2  -4   0  469.65    7.60
   2  -4   0  451.95    8.80
  -2   4   0  461.05    7.80
  -2   4   0  466.75    8.60
   1  -4   0   51.89    1.20
   1  -4   0   49.10    1.90
  -1   4   0   53.69    1.30
  -1   4   0   60.59    2.00
   0  -4   0  631.04   10.80
   0   4   0  647.54   11.00
  -1  -4   0  164.48    3.60
  -2  -4   0 2741.53   43.10
  -2  -4   0 2749.52   42.30
   2   4   0 2878.31   42.70
  -3  -4   0  262.37    4.60
  -3  -4   0  254.97    5.30
  -3  -4   0  250.27    4.90
  -3  -4   0  259.07    4.90
   3   4   0  264.37    4.50
  -4  -4   0   80.29    2.20
  -4  -4   0   80.69    2.10
  -4  -4   0   80.69    2.10
   4   4   0   82.69    2.20
   4   4   0   81.09    2.80
   4   4   0   82.89    2.00
  -5  -4   0  403.06    7.00
  -5  -4   0  415.16    7.50
  -5  -4   0  408.46    7.10
   5   4   0  386.66    8.30
   5   4   0  401.66    7.00
  -6  -4   0 1370.76   22.10
  -6  -4   0 1359.46   21.20
   6   4   0 1344.77   21.20
   6   4   0 1338.57   23.30
  -7  -4   0  102.19    2.30
  -7  -4   0  104.19    3.40
   7   4   0  109.39    4.10
   7   4   0  107.39    2.30
  -8  -4   0  262.87    6.30
   8   4   0  249.88    7.20
  -9  -4   0  304.97    7.30
   9   4   0  294.77    8.40
 -10  -4   0   39.90    2.90
  10   4   0   36.50    3.50
   6  -5   0    0.80    1.40
   6  -5   0    0.60    1.30
  -6   5   0    0.20    0.90
   5  -5   0   60.79    3.50
   5  -5   0   55.09    3.30
  -5   5   0   63.79    2.90
  -5   5   0   63.89    2.50
   4  -5   0   12.20    1.80
   4  -5   0   12.50    1.80
  -4   5   0   13.40    1.30
  -4   5   0   14.20    1.60
   3  -5   0   55.19    2.70
   3  -5   0   52.49    2.70
  -3   5   0   49.99    2.30
  -3   5   0   53.09    1.80
   2  -5   0    3.50    0.40
   2  -5   0    3.50    0.90
  -2   5   0    3.60    0.60
  -2   5   0    4.30    0.50
  -2   5   0    4.80    1.00
   1  -5   0  450.35    8.50
  -1   5   0  446.66    8.60
  -1   5   0  441.56    7.10
  -1   5   0  437.86    7.20
  -1   5   0  444.06    7.00
   0   5   0   52.89    2.10
  -1  -5   0 3722.33   56.29
   1   5   0 3582.64   56.49
  -2  -5   0 1339.07   21.40
   2   5   0 1299.67   21.40
  -3  -5   0  258.17    4.50
  -3  -5   0  256.27    5.50
   3   5   0  257.77    5.30
   3   5   0  258.97    4.40
  -4  -5   0    3.10    0.80
  -4  -5   0    2.30    0.50
   4   5   0    3.30    0.70
   4   5   0    3.20    0.40
  -5  -5   0    9.80    1.00
   5   5   0   10.70    1.30
   5   5   0   11.30    1.00
  -6  -5   0   30.80    1.70
   6   5   0   31.20    2.20
   6   5   0   31.20    1.40
  -7  -5   0  185.48    4.70
   7   5   0  186.18    5.60
   7   5   0  190.88    4.00
  -8  -5   0  218.28    5.50
   8   5   0  216.68    6.50
  -9  -5   0   16.40    1.80
   9   5   0   17.40    2.30
 -10  -5   0  157.18    5.20
  10   5   0  149.39    6.10
   5  -6   0   22.70    2.70
   5  -6   0   25.80    2.90
  -5   6   0   24.80    2.30
   4  -6   0  353.96    8.60
   4  -6   0  351.26    8.80
  -4   6   0  349.47    8.00
   3  -6   0  700.33   13.80
   3  -6   0  716.53   13.70
  -3   6   0  686.43   13.20
  -3   6   0  692.23   11.90
   2  -6   0   47.80    2.50
  -2   6   0   49.30    1.50
  -2   6   0   47.40    2.50
  -2   6   0   50.79    1.60
   1  -6   0   95.09    3.20
  -1   6   0   97.59    3.40
   0  -6   0  775.72   13.60
   0   6   0  781.32   14.00
  -1  -6   0 1324.57   21.90
   1   6   0 1347.77   22.20
  -2  -6   0  636.94   11.40
   2   6   0  628.04   11.50
  -3  -6   0 1180.98   18.40
  -3  -6   0 1207.38   18.50
  -3  -6   0 1201.38   20.00
  -3  -6   0 1198.48   18.40
   3   6   0 1221.48   20.00
  -4  -6   0  110.99    2.30
  -4  -6   0  108.99    2.40
   4   6   0  109.29    2.30
   4   6   0  104.69    3.10
  -5  -6   0  133.89    3.10
  -5  -6   0  131.09    4.00
   5   6   0  135.49    3.60
  -6  -6   0  175.88    4.20
  -6  -6   0  183.98    5.10
   6   6   0  187.68    5.30
   6   6   0  176.78    4.30
  -7  -6   0   54.29    2.40
   7   6   0   50.69    3.00
   7   6   0   50.69    2.00
  -8  -6   0  170.58    4.70
   8   6   0  171.08    5.80
  -9  -6   0  377.26    8.40
   9   6   0  387.26    9.90
 -10  -6   0    9.20    1.70
  10   6   0    9.50    2.10
   4  -7   0  105.19    4.70
   4  -7   0  104.79    4.50
  -4   7   0  108.59    4.30
   3  -7   0    5.00    1.40
   3  -7   0    3.10    1.40
  -3   7   0    3.40    1.30
   2  -7   0    7.70    1.40
  -2   7   0    6.00    1.40
   1  -7   0    7.40    1.30
  -1   7   0    7.00    1.40
   0  -7   0   38.20    2.10
   0   7   0   35.00    2.30
  -1  -7   0  474.35    9.30
   1   7   0  473.25    9.60
  -2  -7   0  398.16    8.10
   2   7   0  398.66    8.30
  -3  -7   0  125.49    3.80
   3   7   0  120.79    3.80
  -4  -7   0  108.39    2.30
  -4  -7   0  103.59    3.50
  -4  -7   0  110.29    2.20
  -4  -7   0  105.89    2.30
   4   7   0  105.29    3.40
  -5  -7   0    1.80    0.90
  -5  -7   0    2.30    0.60
   5   7   0    2.70    0.90
  -6  -7   0   75.29    3.20
  -6  -7   0   72.09    2.40
   6   7   0   77.69    2.80
  -7  -7   0  496.05   10.50
  -7  -7   0  488.95    9.20
   7   7   0  488.25    9.40
  -8  -7   0  339.67    7.20
  -8  -7   0  337.37    8.40
   8   7   0  333.37    8.60
  -9  -7   0    0.40    1.10
   9   7   0   -0.20    1.30
   3  -8   0   28.90    2.80
   3  -8   0   31.80    3.00
  -3   8   0   27.30    2.60
   2  -8   0   -0.30    1.10
   2  -8   0    0.40    1.10
  -2   8   0   -0.40    1.00
   1  -8   0   43.50    2.60
  -1   8   0   46.90    2.90
   0  -8   0   41.00    2.50
   0   8   0   53.19    2.90
  -1  -8   0   45.20    2.50
   1   8   0   45.30    2.70
  -2  -8   0  714.83   13.20
   2   8   0  691.93   13.50
  -3  -8   0 1046.50   18.20
   3   8   0 1016.70   18.40
  -4  -8   0    2.50    1.10
   4   8   0    4.90    1.20
  -5  -8   0  293.67    5.40
  -5  -8   0  303.87    7.10
  -5  -8   0  307.57    5.50
   5   8   0  303.47    7.00
  -6  -8   0  551.64   11.20
  -6  -8   0  540.85    9.50
   6   8   0  542.35   10.70
  -7  -8   0    1.10    1.10
  -7  -8   0    0.00    0.70
   7   8   0    0.10    0.80
  -8  -8   0  150.78    5.20
  -8  -8   0  147.39    4.10
  -9  -8   0  193.58    6.30
  -9  -8   0  183.48    5.10
   1  -9   0   65.49    3.40
  -1   9   0   69.29    3.80
   0  -9   0    2.30    1.10
   0   9   0    1.30    1.20
  -1  -9   0   59.29    3.00
   1   9   0   57.29    3.20
  -2  -9   0   59.89    2.90
   2   9   0   58.39    3.20
  -3  -9   0   87.59    3.50
   3   9   0   84.09    3.70
  -4  -9   0  363.56    8.30
   4   9   0  374.96    8.60
  -5  -9   0  179.68    5.40
   5   9   0  186.88    5.50
  -6  -9   0    3.30    1.20
   6   9   0    1.40    1.10
  -7  -9   0  180.68    5.70
   7   9   0  178.98    5.20
  -8  -9   0  210.88    6.40
  -1 -10   0  158.48    5.20
   1  10   0  169.28    5.90
  -2 -10   0  115.29    4.30
   2  10   0  113.39    4.70
  -3 -10   0  224.98    6.20
   3  10   0  228.38    6.80
  -4 -10   0   50.79    3.00
   4  10   0   55.89    3.30
  -5 -10   0   56.09    3.20
   5  10   0   55.59    3.20
  -6 -10   0  105.39    4.30
   6  10   0  112.39    4.40
  -7 -10   0   41.80    3.10
   7  10   0   46.80    2.90
   6  10  -1  213.58    6.40
  -6 -10   1  199.78    6.20
   5  10  -1    1.80    1.20
  -5 -10   1    1.10    1.30
   4  10  -1  151.48    5.50
  -4 -10   1  142.89    5.00
   3  10  -1   13.30    2.10
  -3 -10   1   17.80    2.10
   2  10  -1   47.40    3.40
  -2 -10   1   48.80    3.00
  -8  -9   1   41.80    3.00
   7   9  -1    0.60    1.00
  -7  -9   1   -0.20    1.20
   6   9  -1  219.88    6.30
  -6  -9   1  229.08    6.40
   5   9  -1  205.68    6.00
  -5  -9   1  202.68    5.90
   4   9  -1   32.40    2.60
  -4  -9   1   26.00    2.30
   3   9  -1  209.68    6.20
  -3  -9   1  209.28    5.90
   2   9  -1  273.77    7.40
  -2  -9   1  277.07    6.90
   1   9  -1   49.70    3.20
  -1  -9   1   52.39    2.90
   0   9  -1  146.59    5.50
   0  -9   1  155.98    5.00
  -1   9  -1    3.30    1.50
   1  -9   1    0.00    1.10
  -9  -8   1   69.79    3.90
  -9  -8   1   76.39    3.20
  -8  -8   1   47.10    2.40
  -8  -8   1   52.99    3.30
   7   8  -1  153.58    4.60
  -7  -8   1  145.19    5.00
  -7  -8   1  150.68    3.90
   6   8  -1  163.58    4.80
  -6  -8   1  159.38    5.00
  -6  -8   1  157.48    3.70
   5   8  -1    0.90    0.90
  -5  -8   1   -0.10    1.00
   4   8  -1  576.84   11.60
  -4  -8   1  575.84   11.40
   3   8  -1  478.95   10.20
  -3  -8   1  472.95    9.70
   2   8  -1    9.00    1.60
  -2  -8   1   12.30    1.60
   1   8  -1   17.00    2.00
  -1  -8   1   13.50    1.60
   0   8  -1    1.40    1.20
   0  -8   1    4.30    1.20
  -1   8  -1   25.90    2.50
   1  -8   1   29.40    2.40
  -2   8  -1  175.18    5.80
   2  -8   1  177.28    5.60
  -3   8  -1   34.00    2.90
   3  -8   1   36.90    3.00
   3  -8   1   41.00    3.00
   9   7  -1  301.37    8.60
  -9  -7   1  291.87    7.00
   8   7  -1  271.07    7.60
  -8  -7   1  255.37    6.10
  -8  -7   1  269.57    7.30
   7   7  -1    0.40    0.70
  -7  -7   1   -0.70    0.70
  -7  -7   1   -1.00    1.00
   6   7  -1  147.69    4.20
  -6  -7   1  148.49    4.70
  -6  -7   1  147.39    3.60
   5   7  -1  370.16    8.00
  -5  -7   1  380.86    8.30
  -5  -7   1  378.36    6.80
   4   7  -1    1.50    0.90
  -4  -7   1    0.50    0.80
  -4  -7   1   -0.60    0.40
   3   7  -1   88.99    3.30
  -3  -7   1   83.59    3.10
   2   7  -1  136.89    4.30
  -2  -7   1  138.89    4.00
   1   7  -1  137.79    4.40
  -1  -7   1  138.49    4.00
   0   7  -1  931.01   17.00
   0  -7   1  932.41   16.40
  -1   7  -1    1.80    1.10
   1  -7   1    2.80    1.00
  -2   7  -1  135.19    4.60
   2  -7   1  134.79    4.50
  -3   7  -1  103.89    4.20
   3  -7   1  100.39    4.20
   3  -7   1   91.19    4.20
  -4   7  -1   55.89    3.30
   4  -7   1   58.89    3.70
   4  -7   1   63.49    3.60
   9   6  -1  107.09    4.80
  -9  -6   1   95.39    3.70
   8   6  -1   16.40    2.10
  -8  -6   1   20.30    1.90
   7   6  -1  249.58    6.90
   7   6  -1  257.97    5.60
  -7  -6   1  255.77    5.70
   6   6  -1   15.30    1.80
   6   6  -1   15.40    1.40
  -6  -6   1   15.60    1.80
  -6  -6   1   14.00    1.30
   5   6  -1  260.67    5.80
  -5  -6   1  265.57    5.20
  -5  -6   1  268.77    6.40
   4   6  -1  450.45    8.80
  -4  -6   1  459.35    7.60
  -4  -6   1  447.66    9.00
  -4  -6   1  453.75    7.70
   3   6  -1  187.18    4.70
  -3  -6   1  189.48    4.70
  -3  -6   1  192.38    3.40
  -3  -6   1  190.78    3.30
   2   6  -1  342.27    7.20
  -2  -6   1  335.37    7.00
   1   6  -1 1551.54   25.60
  -1  -6   1 1536.25   25.20
   0   6  -1  540.45   10.50
   0  -6   1  532.65   10.00
  -1   6  -1   33.50    2.20
   1  -6   1   33.10    2.00
  -2   6  -1  322.47    7.50
  -2   6  -1  326.17    6.30
  -2   6  -1  326.07    6.20
   2  -6   1  336.17    7.40
  -3   6  -1  125.69    4.30
   3  -6   1  121.49    4.40
   3  -6   1  125.99    4.30
  -4   6  -1  135.49    4.60
   4  -6   1  123.09    4.80
   4  -6   1  133.99    4.80
  -5   6  -1   93.79    3.90
   5  -6   1   89.49    4.30
   5  -6   1   88.99    4.40
  10   5  -1    2.10    1.60
 -10  -5   1    3.40    1.50
   9   5  -1  282.37    8.20
  -9  -5   1  276.57    6.90
   8   5  -1  220.68    6.70
  -8  -5   1  212.28    5.50
   7   5  -1  144.79    4.90
   7   5  -1  141.79    3.40
  -7  -5   1  149.69    4.10
   6   5  -1  724.63   14.00
   6   5  -1  740.03   12.50
  -6  -5   1  730.73   12.70
   5   5  -1 2266.17   35.40
   5   5  -1 2245.28   36.60
  -5  -5   1 2289.47   35.20
  -5  -5   1 2208.58   36.20
   4   5  -1   41.60    1.80
  -4  -5   1   40.70    1.30
  -4  -5   1   39.90    2.00
  -4  -5   1   41.00    1.40
   3   5  -1 1118.69   18.50
  -3  -5   1 1126.59   17.40
  -3  -5   1 1112.89   18.60
  -3  -5   1 1109.29   17.30
   2   5  -1  197.48    4.60
  -2  -5   1  200.48    4.50
   1   5  -1   81.79    2.70
  -1  -5   1   81.69    2.50
   0   5  -1 1083.19   18.20
   0  -5   1 1070.39   17.80
  -1   5  -1  266.57    6.00
   1  -5   1  261.47    5.70
   1  -5   1  265.07    4.30
  -2   5  -1  134.59    4.00
  -2   5  -1  136.79    2.90
  -2   5  -1  137.19    3.00
   2  -5   1  136.59    2.70
   2  -5   1  131.69    3.90
  -3   5  -1   33.90    1.50
  -3   5  -1   31.50    1.50
  -3   5  -1   31.20    2.00
   3  -5   1   30.90    2.10
   3  -5   1   33.70    2.20
  -4   5  -1    2.20    1.00
  -4   5  -1    0.60    0.70
  -4   5  -1    0.70    0.80
   4  -5   1   -0.10    1.00
   4  -5   1    0.10    1.00
  -5   5  -1  121.19    3.50
  -5   5  -1  127.39    3.80
  -5   5  -1  129.79    4.20
   5  -5   1  127.49    4.90
   5  -5   1  119.89    4.80
  -6   5  -1  132.29    4.60
   6  -5   1  141.49    5.60
   6  -5   1  146.39    5.70
  10   4  -1  133.89    5.80
 -10  -4   1  139.49    5.00
   9   4  -1  262.17    7.90
  -9  -4   1  271.47    6.80
   8   4  -1   41.60    3.00
  -8  -4   1   40.30    2.40
   7   4  -1   70.09    3.40
   7   4  -1   68.29    1.80
  -7  -4   1   75.59    2.90
   6   4  -1   95.89    3.60
   6   4  -1   96.49    2.40
  -6  -4   1   95.49    2.30
  -6  -4   1   91.69    2.20
  -6  -4   1   95.99    2.90
   5   4  -1    9.90    0.90
   5   4  -1    8.80    1.30
  -5  -4   1   10.00    1.00
  -5  -4   1    9.60    0.80
  -5  -4   1    9.20    0.80
   4   4  -1  328.37    7.10
   4   4  -1  341.67    6.30
  -4  -4   1  339.97    6.10
  -4  -4   1  336.37    6.10
   3   4  -1  385.86    7.20
  -3  -4   1  403.46    6.70
  -3  -4   1  393.16    7.60
  -3  -4   1  401.56    6.60
   2   4  -1  126.09    3.10
  -2  -4   1  129.69    2.30
  -2  -4   1  123.19    2.30
  -2  -4   1  123.19    3.10
   1   4  -1 2230.98   35.00
  -1  -4   1 2226.08   34.80
   0   4  -1   56.59    2.10
   0  -4   1   56.59    2.00
  -1   4  -1  239.38    4.10
  -1   4  -1  221.08    5.10
  -1   4  -1  236.18    4.10
   1  -4   1  239.18    5.00
   1  -4   1  248.88    4.00
  -2   4  -1  230.08    5.20
  -2   4  -1  229.38    4.40
  -2   4  -1  223.98    4.30
   2  -4   1  236.38    4.20
   2  -4   1  230.58    5.20
  -3   4  -1  199.18    4.10
  -3   4  -1  198.68    4.80
   3  -4   1  195.08    5.00
   3  -4   1  194.28    5.10
  -4   4  -1  108.49    3.00
  -4   4  -1  111.89    3.50
   4  -4   1  106.59    3.80
   4  -4   1  109.59    3.90
  -5   4  -1  240.58    5.40
  -5   4  -1  234.68    5.70
   5  -4   1  242.68    6.70
   5  -4   1  236.48    6.50
  -6   4  -1   25.90    2.00
  -6   4  -1   25.50    2.00
   6  -4   1   22.70    2.60
   6  -4   1   18.10    2.40
  -7   4  -1   66.89    3.10
   7  -4   1   63.99    4.00
  10   3  -1    9.60    2.20
 -10  -3   1    9.70    1.80
   9   3  -1   59.69    3.80
  -9  -3   1   55.99    3.10
   8   3  -1  176.58    5.90
  -8  -3   1  170.78    4.90
   7   3  -1  297.07    7.60
  -7  -3   1  292.87    6.60
   6   3  -1  134.99    4.50
  -6  -3   1  149.99    3.80
  -6  -3   1  143.79    2.60
   5   3  -1  139.39    2.80
   5   3  -1  135.79    4.10
  -5  -3   1  139.39    2.70
  -5  -3   1  139.79    2.70
  -5  -3   1  140.69    3.40
   4   3  -1   65.59    1.80
   4   3  -1   67.89    2.50
  -4  -3   1   64.29    1.70
  -4  -3   1   63.39    1.90
   3   3  -1 4057.29   65.59
   3   3  -1 4168.58   64.59
   3   3  -1 4218.28   65.19
  -3  -3   1 4212.88   64.79
  -3  -3   1 4244.78   65.49
   2   3  -1  311.47    5.70
  -2  -3   1  311.27    6.00
  -2  -3   1  313.97    5.20
  -2  -3   1  304.57    5.10
  -2  -3   1  307.07    5.60
  -2  -3   1  315.77    5.90
   1   3  -1 1766.22   26.70
   1   3  -1 1654.13   26.70
  -1  -3   1 1696.63   26.10
  -1  -3   1 1670.13   26.60
  -1  -3   1 1747.83   26.60
  -1  -3   1 1698.23   26.00
   0   3  -1 2988.60   46.20
   0   3  -1 2934.91   46.60
   0  -3   1 3023.00   46.10
   0  -3   1 2843.42   46.80
   0  -3   1 2973.20   44.90
  -1   3  -1    4.90    0.50
  -1   3  -1    3.70    0.70
  -1   3  -1    4.20    0.50
   1  -3   1    5.30    0.70
   1  -3   1    3.90    0.40
  -2   3  -1  306.47    5.40
  -2   3  -1  302.17    6.00
   2  -3   1  309.77    6.10
   2  -3   1  311.57    5.30
  -3   3  -1  527.15    9.10
  -3   3  -1  538.35    9.60
   3  -3   1  527.65    9.90
   3  -3   1  517.35   10.00
  -4   3  -1  736.93   12.80
  -4   3  -1  717.83   12.40
   4  -3   1  722.63   13.60
   4  -3   1  734.33   13.50
  -5   3  -1   75.19    2.60
  -5   3  -1   78.89    2.70
   5  -3   1   76.39    3.40
   5  -3   1   80.29    3.40
  -6   3  -1  347.57    7.30
  -6   3  -1  340.77    7.10
   6  -3   1  340.97    8.70
   6  -3   1  344.67    8.50
  -7   3  -1  127.49    4.10
   7  -3   1  128.59    5.30
  -8   3  -1    4.50    1.40
   8  -3   1    3.80    1.80
  10   2  -1   29.90    3.20
 -10  -2   1   31.70    2.80
   9   2  -1    7.00    1.70
  -9  -2   1    3.70    1.40
   8   2  -1  295.77    8.10
  -8  -2   1  284.87    6.90
   7   2  -1  568.74   12.20
  -7  -2   1  601.14   11.20
   6   2  -1  228.68    6.10
  -6  -2   1  233.18    5.30
   5   2  -1    2.20    0.80
  -5  -2   1    1.90    0.70
   4   2  -1  688.33   11.00
   4   2  -1  688.83   12.50
  -4  -2   1  710.33   10.90
  -4  -2   1  712.23   10.90
  -4  -2   1  694.53   11.70
   3   2  -1 1677.33   26.90
   3   2  -1 1676.13   26.00
   3   2  -1 1719.23   26.10
  -3  -2   1 1696.33   27.00
  -3  -2   1 1701.13   26.20
  -3  -2   1 1678.83   26.20
   2   2  -1  445.56    7.20
   2   2  -1  423.16    7.80
   2   2  -1  443.36    7.40
  -2  -2   1  450.85    7.20
  -2  -2   1  456.45    7.90
   1   2  -1 4706.83   73.59
   1   2  -1 4520.05   73.89
  -1  -2   1 4642.84   71.29
  -1  -2   1 4541.25   72.89
  -1  -2   1 4566.54   73.29
  -1  -2   1 4660.63   73.19
  -1  -2   1 4887.91   71.49
   0   2  -1  101.59    2.30
   0   2  -1   98.09    1.80
   0  -2   1   97.59    1.80
   0  -2   1   97.19    1.70
   0  -2   1  106.89    2.20
  -1   2  -1 4682.63   72.39
  -1   2  -1 4609.44   72.09
  -1   2  -1 4715.53   72.19
  -1   2  -1 4665.53   74.79
   1  -2   1 4650.73   72.19
   1  -2   1 4802.22   74.19
   1  -2   1 4652.83   74.19
  -2   2  -1  855.71   13.50
  -2   2  -1  851.51   13.90
  -2   2  -1  848.92   13.80
   2  -2   1  867.21   13.50
   2  -2   1  836.82   14.10
   2  -2   1  859.61   13.70
   2  -2   1  834.72   14.00
  -3   2  -1   78.99    2.20
  -3   2  -1   76.59    2.10
   3  -2   1   80.69    2.60
   3  -2   1   78.49    2.00
   3  -2   1   80.59    2.00
   3  -2   1   78.89    2.50
  -4   2  -1  109.99    2.90
  -4   2  -1  104.79    2.80
   4  -2   1  111.49    3.50
   4  -2   1  110.29    2.60
   4  -2   1  109.19    3.40
  -5   2  -1  713.93   12.20
  -5   2  -1  701.93   12.40
   5  -2   1  724.83   13.60
   5  -2   1  689.73   13.40
  -6   2  -1  732.43   13.20
  -6   2  -1  733.73   12.60
   6  -2   1  743.33   14.60
  -7   2  -1    7.10    1.30
   7  -2   1    7.80    1.80
  -8   2  -1  169.38    5.10
   8  -2   1  173.68    6.40
   9   1  -1  179.38    6.60
  -9  -1   1  177.58    5.50
   8   1  -1 1146.29   21.50
  -8  -1   1 1107.09   19.80
   7   1  -1    1.00    1.00
  -7  -1   1    1.30    1.00
   6   1  -1  554.24   11.40
  -6  -1   1  564.74   10.40
   5   1  -1   19.60    1.80
  -5  -1   1   21.50    1.40
   4   1  -1   46.20    2.10
  -4  -1   1   46.70    1.70
   3   1  -1 1493.15   24.30
   3   1  -1 1528.95   23.60
  -3  -1   1 1526.35   23.00
  -3  -1   1 1536.35   24.20
  -3  -1   1 1499.35   23.70
  -3  -1   1 1525.25   23.10
   2   1  -1  447.96    7.80
   2   1  -1  446.46    7.20
   2   1  -1  444.46    7.10
  -2  -1   1  446.06    7.30
  -2  -1   1  446.16    7.70
  -2  -1   1  446.66    7.00
   1   1  -1   -2.00    0.20
   1   1  -1   -2.30    0.30
   1   1  -1   -1.80    0.20
  -1  -1   1   -1.20    0.20
  -1  -1   1   -2.30    0.10
  -1  -1   1   -1.10    0.30
  -1  -1   1   -2.30    0.20
   0   1  -1  969.70   14.80
   0   1  -1  961.30   15.00
   0   1  -1  950.10   15.10
   0  -1   1  959.80   14.80
   0  -1   1  958.30   14.90
  -1   1  -1  252.07    4.30
  -1   1  -1  254.47    4.20
  -1   1  -1  257.77    4.40
  -1   1  -1  257.17    4.50
   1  -1   1  254.87    4.20
   1  -1   1  251.47    4.40
   1  -1   1  253.07    4.40
  -2   1  -1 1328.57   20.30
  -2   1  -1 1287.77   20.20
  -2   1  -1 1293.37   20.10
   2  -1   1 1304.57   20.10
   2  -1   1 1259.57   20.40
   2  -1   1 1330.87   20.10
   2  -1   1 1262.97   20.50
  -3   1  -1  843.42   13.60
  -3   1  -1  836.12   13.50
   3  -1   1  853.71   13.30
   3  -1   1  814.62   14.10
   3  -1   1  818.52   14.10
   3  -1   1  866.11   13.60
  -4   1  -1  483.45    8.50
  -4   1  -1  470.15    8.10
   4  -1   1  475.25    9.10
   4  -1   1  479.35    9.20
   4  -1   1  470.95    7.90
  -5   1  -1  395.16    7.70
  -5   1  -1  398.86    7.10
   5  -1   1  395.76    8.50
   5  -1   1  397.06    7.00
   5  -1   1  406.56    6.80
  -6   1  -1  184.98    4.70
   6  -1   1  182.98    3.70
   6  -1   1  179.18    5.40
  -7   1  -1   63.09    2.80
   7  -1   1   62.79    3.50
  -8   1  -1    3.50    1.20
   8  -1   1    4.50    1.60
  -9   1  -1  171.98    5.40
   9  -1   1  173.98    6.70
   9   0  -1   10.00    2.20
  -9   0   1    7.60    1.60
   8   0  -1   60.99    3.80
  -8   0   1   65.89    3.20
  -7   0   1  246.28    6.00
   6   0  -1  110.99    4.00
  -6   0   1  100.49    3.30
   5   0  -1    6.20    1.10
  -5   0   1    6.00    0.90
   4   0  -1 1583.14   25.90
  -4   0   1 1578.44   25.10
   3   0  -1 1171.78   19.50
  -3   0   1 1216.48   19.30
  -3   0   1 1165.58   18.90
  -3   0   1 1223.48   19.40
   2   0  -1  247.98    4.70
   2   0  -1  242.28    4.30
   2   0  -1  249.88    4.00
  -2   0   1  240.28    4.30
  -2   0   1  252.47    4.70
  -2   0   1  253.17    3.90
   1   0  -1 2145.79   33.90
   1   0  -1 2217.78   34.80
   1   0  -1 2221.88   35.10
  -1   0   1 2169.48   33.90
  -1   0   1 2186.18   35.00
  -1   0   1 2192.48   34.80
  -1   0  -1 1171.88   18.90
  -1   0  -1 1121.49   18.80
  -1   0  -1 1148.59   18.50
  -1   0  -1 1167.98   18.70
   1   0   1 1152.18   18.40
   1   0   1 1154.48   18.10
   1   0   1 1184.88   18.80
   1   0   1 1188.58   17.80
   1   0   1 1135.99   18.10
  -2   0  -1  398.36    6.70
  -2   0  -1  377.66    6.60
  -2   0  -1  403.36    6.70
   2   0   1  392.86    6.40
   2   0   1  390.46    6.80
   2   0   1  400.56    6.40
   2   0   1  386.16    6.80
   2   0   1  399.96    6.60
  -3   0  -1  336.77    6.00
  -3   0  -1  335.17    6.20
   3   0   1  336.27    5.50
   3   0   1  326.17    5.60
   3   0   1  341.87    5.90
  -4   0  -1   45.30    1.70
   4   0   1   44.20    1.20
   4   0   1   40.60    1.90
   4   0   1   45.10    1.10
  -5   0  -1  642.54   11.50
   5   0   1  670.13   10.30
   5   0   1  654.13   12.30
   5   0   1  653.93   10.50
  -6   0  -1    0.50    0.70
   6   0   1    0.10    0.90
   6   0   1    0.50    0.20
  -7   0  -1  551.84   10.70
   7   0   1  551.44   11.80
  -8   0  -1  810.92   15.10
   8   0   1  816.32   16.60
  -9   0  -1    4.20    1.40
   9   0   1    2.20    1.50
  -9   1   1   81.79    3.80
   8  -1  -1  241.88    7.50
  -8   1   1  223.28    6.10
   7  -1  -1    0.10    1.10
  -7   1   1    0.40    0.90
   6  -1  -1  685.03   13.50
  -6   1   1  657.03   12.20
   5  -1  -1   15.40    1.60
   5  -1  -1   17.50    0.70
  -5   1   1   17.60    1.40
   4  -1  -1  212.68    3.70
   4  -1  -1  204.98    5.10
  -4   1   1  215.18    3.70
  -4   1   1  203.08    4.40
   3  -1  -1 1597.14   26.20
   3  -1  -1 1637.44   25.00
   3  -1  -1 1626.74   25.30
   3  -1  -1 1657.03   25.00
  -3   1   1 1627.64   25.50
   2  -1  -1 1770.42   26.90
   2  -1  -1 1758.62   26.90
   2  -1  -1 1753.62   27.30
   2  -1  -1 1666.93   27.40
   2  -1  -1 1700.03   27.30
  -2   1   1 1741.13   27.40
  -2   1   1 1790.52   27.20
  -2   1   1 1844.62   27.30
  -2   1   1 1722.93   26.90
   1  -1  -1   19.80    0.80
   1  -1  -1   19.20    0.80
   1  -1  -1   20.30    0.60
   1  -1  -1   20.70    0.70
   1  -1  -1   20.00    0.70
  -1   1   1   21.60    0.70
  -1   1   1   21.20    0.70
  -1   1   1   19.80    0.60
  -1   1   1   19.20    0.60
  -1   1   1   20.10    0.80
  -1   1   1   19.30    0.80
   0  -1  -1 3383.46   52.39
   0  -1  -1 3497.45   52.09
   0   1   1 3307.07   52.09
   0   1   1 3438.56   53.29
   0   1   1 3316.77   52.79
  -1  -1  -1 1367.46   21.00
  -1  -1  -1 1350.56   20.40
  -1  -1  -1 1193.48   21.20
  -1  -1  -1 1347.77   21.10
   1   1   1 1297.47   20.70
   1   1   1 1332.27   21.10
   1   1   1 1322.77   20.90
   1   1   1 1303.47   20.90
  -2  -1  -1 2714.53   42.40
  -2  -1  -1 2688.13   43.50
  -2  -1  -1 2704.03   43.10
   2   1   1 2633.44   42.70
   2   1   1 2779.22   42.90
   2   1   1 2755.12   42.40
  -3  -1  -1  114.79    2.60
  -3  -1  -1  116.89    2.20
  -3  -1  -1  115.39    2.80
   3   1   1  116.09    2.10
   3   1   1  117.39    2.50
   4   1   1  135.49    2.40
   4   1   1  127.09    3.50
   4   1   1  133.29    2.40
  -5  -1  -1   86.79    2.60
  -6  -1  -1  661.23   11.90
  -7  -1  -1    3.20    1.00
   7   1   1    3.50    1.20
  -8  -1  -1   14.40    1.70
   8   1   1   13.50    2.00
  -9  -1  -1  116.79    4.30
   9   1   1  116.19    5.20
 -10  -1  -1   28.50    2.60
  10   1   1   35.30    3.60
   8  -2  -1   30.10    3.20
  -8   2   1   32.80    2.50
   7  -2  -1    1.40    1.30
  -7   2   1    0.80    1.00
   6  -2  -1   37.40    2.70
  -6   2   1   38.10    2.20
  -6   2   1   37.60    1.40
   5  -2  -1   70.09    3.10
   5  -2  -1   71.09    1.90
   5  -2  -1   73.29    1.90
  -5   2   1   72.49    2.60
  -5   2   1   76.99    2.00
   4  -2  -1  669.73   12.50
   4  -2  -1  684.53   12.60
   4  -2  -1  675.53   11.10
   4  -2  -1  683.43   11.10
  -4   2   1  673.73   11.60
  -4   2   1  679.63   11.10
   3  -2  -1  629.64   10.30
   3  -2  -1  632.34   11.40
   3  -2  -1  638.94   10.30
   3  -2  -1  638.94   11.30
  -3   2   1  625.34   10.60
   2  -2  -1 1128.69   17.00
   2  -2  -1 1077.69   17.70
   2  -2  -1 1057.09   17.70
   2  -2  -1 1060.59   17.10
   2  -2  -1 1100.79   17.10
  -2   2   1 1093.99   17.10
  -2   2   1 1096.39   17.10
  -2   2   1 1098.59   17.40
   1  -2  -1 2846.62   44.10
   1  -2  -1 2889.61   44.50
   1  -2  -1 2908.81   46.20
   1  -2  -1 2817.42   45.70
  -1   2   1 2869.01   44.80
  -1   2   1 2984.40   45.60
  -1   2   1 2915.71   44.40
  -1   2   1 2806.92   45.30
   0  -2  -1   61.29    1.50
   0  -2  -1   60.79    1.20
   0  -2  -1   62.49    1.50
   0   2   1   62.99    1.20
   0   2   1   60.49    1.50
   0   2   1   63.79    1.50
   0   2   1   62.19    1.50
  -1  -2  -1 2242.98   35.80
  -1  -2  -1 2337.17   35.10
  -1  -2  -1 2181.68   36.00
  -1  -2  -1 2267.87   35.30
  -1  -2  -1 2289.27   35.00
   1   2   1 2305.87   34.90
   1   2   1 2277.87   34.90
   1   2   1 2213.88   35.80
   1   2   1 2315.87   34.90
   1   2   1 2209.68   36.40
  -2  -2  -1 1147.69   18.30
  -2  -2  -1 1127.59   17.80
  -2  -2  -1 1178.88   17.90
  -2  -2  -1 1176.88   17.90
   2   2   1 1147.99   17.90
   2   2   1 1137.49   17.90
   2   2   1 1156.88   18.20
   2   2   1 1160.08   17.80
  -3  -2  -1 2015.30   30.80
  -3  -2  -1 1984.00   30.40
  -3  -2  -1 1933.51   30.20
   3   2   1 1975.70   30.20
   3   2   1 1931.41   30.70
   3   2   1 1943.71   30.40
   3   2   1 1931.61   30.50
  -4  -2  -1  161.98    3.50
  -4  -2  -1  161.38    3.00
   4   2   1  159.18    4.00
   4   2   1  163.88    2.90
   4   2   1  164.58    2.90
  -5  -2  -1  672.93   11.60
  -5  -2  -1  676.43   10.50
   5   2   1  677.73   10.40
   5   2   1  651.03   12.30
  -6  -2  -1   70.29    2.50
   6   2   1   65.49    3.00
  -7  -2  -1  844.82   15.10
   7   2   1  861.81   16.30
  -8  -2  -1  908.01   16.60
   8   2   1  950.20   18.20
  -9  -2  -1   15.60    1.90
   9   2   1   14.30    2.20
 -10  -2  -1  115.09    4.60
  10   2   1  113.19    5.50
   8  -3  -1   -0.50    1.40
  -8   3   1    1.40    1.20
   7  -3  -1   93.59    4.60
  -7   3   1  100.39    3.70
   6  -3  -1  531.05   11.70
  -6   3   1  520.25   10.10
  -6   3   1  520.25    9.40
   5  -3  -1    3.80    1.20
   5  -3  -1    3.40    1.10
  -5   3   1    5.20    0.80
  -5   3   1    5.40    1.00
   4  -3  -1  174.18    4.90
   4  -3  -1  172.58    4.80
  -4   3   1  173.28    3.80
  -4   3   1  171.98    4.00
   3  -3  -1  532.85   10.40
   3  -3  -1  538.85   10.30
   3  -3  -1  560.84    9.90
   3  -3  -1  569.24    9.90
  -3   3   1  559.34    9.50
  -3   3   1  542.25    9.40
   2  -3  -1 1617.44   24.30
   2  -3  -1 1569.44   25.40
   2  -3  -1 1550.14   25.20
   2  -3  -1 1575.24   24.70
   2  -3  -1 1543.45   24.70
  -2   3   1 1605.24   24.50
  -2   3   1 1553.54   24.70
   1  -3  -1   19.50    1.00
   1  -3  -1   18.50    1.00
  -1   3   1   18.60    0.70
  -1   3   1   20.80    0.80
  -1   3   1   18.80    1.10
  -1   3   1   17.80    1.00
   0  -3  -1 3332.97   51.99
   0  -3  -1 3264.67   52.59
   0  -3  -1 3259.77   51.19
   0   3   1 3300.27   50.09
   0   3   1 3230.98   52.89
   0   3   1 3301.07   50.19
   0   3   1 3257.57   50.09
  -1  -3  -1  899.61   13.40
  -1  -3  -1  872.61   14.10
   1   3   1  869.41   13.40
  -2  -3  -1 8732.43  136.59
  -2  -3  -1 8887.61  133.69
  -2  -3  -1 8426.46  135.99
  -2  -3  -1 9013.60  138.29
  -2  -3  -1 8704.03  136.39
   2   3   1 8334.77  135.59
   2   3   1 9098.89  133.69
  -3  -3  -1 2676.23   39.90
  -3  -3  -1 2612.44   40.30
  -3  -3  -1 2687.03   40.60
  -3  -3  -1 2514.15   40.30
   3   3   1 2564.34   41.80
   3   3   1 2640.54   40.50
   3   3   1 2540.65   41.10
  -4  -3  -1   15.20    0.80
  -4  -3  -1   14.20    1.10
   4   3   1   14.80    1.10
   4   3   1   14.20    1.30
   4   3   1   15.20    0.80
  -5  -3  -1  230.98    4.90
  -5  -3  -1  239.88    4.30
   5   3   1  239.18    4.20
  -6  -3  -1  556.94    8.80
  -6  -3  -1  555.94   10.00
   6   3   1  526.15   10.90
  -7  -3  -1  453.65    8.90
   7   3   1  451.55   10.00
  -8  -3  -1    4.00    1.20
   8   3   1    3.40    1.40
  -9  -3  -1  119.19    4.20
   9   3   1  115.09    5.00
 -10  -3  -1   50.39    3.20
  10   3   1   47.60    3.70
   7  -4  -1  509.95   12.50
  -7   4   1  513.05   10.40
   6  -4  -1  183.88    6.30
   6  -4  -1  183.38    6.20
  -6   4   1  185.28    4.80
  -6   4   1  186.28    4.90
   5  -4  -1   49.80    2.90
   5  -4  -1   47.20    3.00
  -5   4   1   48.90    2.20
  -5   4   1   45.80    2.10
   4  -4  -1   62.99    3.00
   4  -4  -1   60.19    2.90
  -4   4   1   58.09    2.20
  -4   4   1   57.29    2.20
   3  -4  -1   18.30    1.70
   3  -4  -1   17.80    1.70
  -3   4   1   17.60    1.20
  -3   4   1   18.40    1.30
   2  -4  -1   59.89    2.30
   2  -4  -1   56.59    2.20
  -2   4   1   51.89    1.60
  -2   4   1   53.09    1.40
   1  -4  -1  553.14    9.90
  -1   4   1  562.44    9.80
  -1   4   1  569.84    9.00
  -1   4   1  553.04    8.90
   0  -4  -1  986.20   16.20
   0   4   1  982.60   16.20
   0   4   1  993.70   15.20
   0   4   1 1018.70   15.20
  -1  -4  -1  743.83   12.30
   1   4   1  737.43   12.30
  -2  -4  -1 1701.63   27.10
  -2  -4  -1 1729.03   26.30
  -2  -4  -1 1756.12   26.30
  -2  -4  -1 1684.63   27.10
  -2  -4  -1 1707.23   27.10
   2   4   1 1733.43   27.70
   2   4   1 1715.93   27.10
   2   4   1 1793.62   26.30
  -3  -4  -1    1.20    0.50
  -3  -4  -1    1.30    0.50
  -3  -4  -1    0.90    0.50
  -3  -4  -1    0.80    0.60
   3   4   1    0.60    0.50
   3   4   1    1.80    0.40
  -4  -4  -1  595.14   10.00
  -4  -4  -1  605.54   10.10
  -4  -4  -1  599.24   10.10
   4   4   1  589.84   10.80
   4   4   1  591.34    9.90
   4   4   1  598.14   10.00
  -5  -4  -1 1579.04   24.60
  -5  -4  -1 1573.44   25.00
   5   4   1 1544.35   25.90
   5   4   1 1583.94   24.50
  -6  -4  -1   40.90    1.40
  -6  -4  -1   45.00    2.00
   6   4   1   41.00    2.40
  -7  -4  -1   21.30    1.00
  -7  -4  -1   22.30    1.80
   7   4   1   24.80    2.30
   7   4   1   21.60    0.90
  -8  -4  -1    3.80    1.10
   8   4   1    2.30    1.20
  -9  -4  -1    2.00    1.20
   9   4   1    0.40    1.20
 -10  -4  -1  269.67    7.10
  10   4   1  260.47    8.20
   6  -5  -1  232.88    7.50
   6  -5  -1  237.88    7.40
  -6   5   1  238.68    5.80
   5  -5  -1  261.77    7.50
   5  -5  -1  258.27    7.30
  -5   5   1  268.47    6.20
  -5   5   1  269.57    5.90
   4  -5  -1   38.50    2.60
   4  -5  -1   41.80    2.70
  -4   5   1   43.60    2.20
  -4   5   1   45.40    2.00
   3  -5  -1   11.90    1.50
   3  -5  -1   11.10    1.50
  -3   5   1   13.40    1.40
  -3   5   1   12.90    1.00
   2  -5  -1   73.79    2.90
   2  -5  -1   75.99    2.80
  -2   5   1   81.59    2.70
  -2   5   1   75.19    1.80
  -2   5   1   77.29    2.00
   1  -5  -1  302.47    6.30
  -1   5   1  315.27    5.10
  -1   5   1  305.57    5.20
   0  -5  -1  679.73   11.60
   0   5   1  657.03   11.70
  -1  -5  -1  197.68    4.30
   1   5   1  194.98    4.40
  -2  -5  -1  430.46    8.00
   2   5   1  436.86    8.00
  -3  -5  -1  556.44    9.10
  -3  -5  -1  550.14   10.10
  -3  -5  -1  579.64    9.20
   3   5   1  563.04   10.00
   3   5   1  585.04    9.10
  -4  -5  -1  333.87    6.00
  -4  -5  -1  340.97    6.90
   4   5   1  350.56    6.00
   4   5   1  334.87    6.40
  -5  -5  -1  313.37    5.90
   5   5   1  305.77    6.90
   5   5   1  312.67    5.90
  -6  -5  -1  751.72   13.00
   6   5   1  760.62   14.20
  -7  -5  -1  188.68    4.70
  -7  -5  -1  185.98    4.10
   7   5   1  178.98    5.40
   7   5   1  184.68    3.80
  -8  -5  -1  289.67    6.60
   8   5   1  290.47    7.70
  -9  -5  -1  427.76    9.30
   9   5   1  443.26   10.70
 -10  -5  -1   84.59    3.90
  10   5   1   87.39    4.60
   5  -6  -1   39.60    3.30
   5  -6  -1   41.40    3.20
  -5   6   1   38.40    2.50
   4  -6  -1   22.00    2.30
   4  -6  -1   21.00    2.30
  -4   6   1   24.90    2.00
  -4   6   1   25.30    1.90
   3  -6  -1   13.20    1.70
   3  -6  -1   12.90    1.60
  -3   6   1   15.10    1.20
  -3   6   1   15.10    1.70
   2  -6  -1   75.59    3.10
   2  -6  -1   78.69    3.20
  -2   6   1   75.99    2.90
  -2   6   1   79.19    2.00
   1  -6  -1  213.18    5.10
  -1   6   1  208.98    3.70
  -1   6   1  210.78    3.70
  -1   6   1  217.08    5.10
   0  -6  -1  197.48    4.70
  -1  -6  -1  593.54   10.50
   1   6   1  571.24   10.70
  -2  -6  -1  998.20   16.60
   2   6   1  977.20   16.70
  -3  -6  -1  280.27    5.90
  -3  -6  -1  279.47    4.70
  -3  -6  -1  277.87    4.70
   3   6   1  265.17    5.80
   3   6   1  279.97    4.60
  -4  -6  -1  904.91   14.50
  -4  -6  -1  893.01   15.70
  -4  -6  -1  913.21   14.60
   4   6   1  902.71   15.40
   4   6   1  923.11   14.40
  -5  -6  -1 1072.79   17.30
  -5  -6  -1 1072.89   18.50
   5   6   1 1065.89   17.80
  -6  -6  -1   39.80    2.30
  -6  -6  -1   39.30    1.80
   6   6   1   33.60    2.30
  -7  -6  -1  428.36    8.30
   7   6   1  423.66    7.80
   7   6   1  411.66    9.40
  -8  -6  -1  207.18    5.30
   8   6   1  211.08    6.30
  -9  -6  -1   98.59    3.70
   9   6   1   95.69    4.50
 -10  -6  -1   80.89    3.70
  10   6   1   82.29    4.50
   4  -7  -1   92.49    4.30
   4  -7  -1   96.99    4.60
  -4   7   1   94.79    3.90
   3  -7  -1  322.47    8.20
   3  -7  -1  326.27    8.10
  -3   7   1  323.87    7.70
   2  -7  -1  305.07    7.60
   2  -7  -1  310.47    7.40
  -2   7   1  309.57    7.20
   1  -7  -1  213.18    5.50
  -1   7   1  209.28    5.50
   0  -7  -1  973.20   16.80
   0   7   1  951.20   16.90
  -1  -7  -1  301.37    6.50
  -2  -7  -1    1.50    0.80
  -3  -7  -1  412.66    8.30
  -4  -7  -1   83.89    2.00
  -4  -7  -1   83.29    1.90
  -4  -7  -1   85.59    3.00
   4   7   1   82.89    1.80
  -5  -7  -1    8.70    0.90
  -5  -7  -1    7.20    1.20
  -5  -7  -1    8.70    0.90
  -6  -7  -1   67.19    3.00
  -6  -7  -1   68.89    2.30
   6   7   1   71.09    2.60
  -7  -7  -1   33.60    1.90
  -7  -7  -1   32.60    2.50
   7   7   1   31.60    2.50
   7   7   1   34.70    1.90
  -8  -7  -1  327.07    7.10
  -8  -7  -1  336.37    8.20
   8   7   1  340.47    8.60
   8   7   1  337.27    7.90
  -9  -7  -1  352.56    7.80
   9   7   1  354.76    9.30
 -10  -7  -1   33.90    2.60
  10   7   1   32.20    3.30
   3  -8  -1   10.70    2.00
   3  -8  -1   10.40    1.80
  -3   8   1   12.90    1.90
   2  -8  -1   44.00    2.90
   2  -8  -1   35.90    2.80
  -2   8   1   36.50    2.70
   1  -8  -1  377.76    8.50
  -1   8   1  381.46    8.70
   0  -8  -1  516.65   10.40
   0   8   1  529.25   10.80
  -1  -8  -1   37.80    2.30
   1   8   1   35.80    2.40
  -2  -8  -1  384.76    8.00
   2   8   1  368.86    8.20
  -3  -8  -1  377.46    8.00
   3   8   1  377.86    8.20
  -4  -8  -1  375.56    8.10
   4   8   1  372.16    8.00
  -5  -8  -1   12.20    1.00
  -5  -8  -1   16.60    1.80
  -5  -8  -1   13.80    1.00
   5   8   1   11.80    1.40
  -6  -8  -1   17.00    1.30
  -6  -8  -1   16.10    1.20
  -6  -8  -1   17.10    1.90
   6   8   1   15.40    1.60
  -7  -8  -1  110.29    3.20
  -7  -8  -1  114.29    4.30
   7   8   1  111.29    3.60
  -8  -8  -1  153.28    5.20
  -8  -8  -1  153.58    4.20
   8   8   1  155.98    4.30
  -9  -8  -1    0.30    1.20
  -9  -8  -1    0.80    1.10
   9   8   1   -1.30    1.10
   2  -9  -1    0.50    1.20
   2  -9  -1    2.10    1.40
  -2   9   1    3.00    1.40
   1  -9  -1    5.00    1.40
  -1   9   1    6.90    1.60
   0  -9  -1  121.79    4.30
   0   9   1  130.99    4.70
  -1  -9  -1   24.50    2.10
   1   9   1   23.70    2.30
  -2  -9  -1   98.69    3.60
   2   9   1   98.49    3.90
  -3  -9  -1  764.72   14.30
   3   9   1  756.52   14.50
  -4  -9  -1  148.09    4.60
   4   9   1  135.19    4.50
  -5  -9  -1  249.28    6.40
   5   9   1  248.48    6.40
  -6  -9  -1  246.38    6.50
   6   9   1  237.18    6.20
  -7  -9  -1   63.09    3.30
   7   9   1   68.89    3.00
  -8  -9  -1   11.10    1.80
   8   9   1   12.00    1.60
   0 -10  -1   16.00    2.00
   0  10   1   15.90    2.20
  -1 -10  -1  101.79    4.10
   1  10   1  105.99    4.50
  -2 -10  -1  402.06    9.00
   2  10   1  391.26    9.40
  -3 -10  -1    0.50    1.10
   3  10   1   -1.20    0.90
  -4 -10  -1  242.78    6.50
   4  10   1  235.28    6.70
  -5 -10  -1   37.90    2.70
   5  10   1   37.60    2.60
  -6 -10  -1    1.40    1.20
   6  10   1    3.50    1.30
  -7 -10  -1   50.69    3.10
   7  10   1   52.79    2.90
   4  10  -2   41.60    3.20
  -4 -10   2   41.20    3.10
   3  10  -2   12.10    2.10
  -3 -10   2   12.70    1.90
   7   9  -2  193.18    6.00
  -7  -9   2  202.58    6.30
   6   9  -2  144.79    5.10
  -6  -9   2  144.89    5.00
   5   9  -2  129.89    4.80
  -5  -9   2  129.59    4.70
   4   9  -2  318.67    8.30
  -4  -9   2  326.67    7.80
   3   9  -2   68.69    3.60
  -3  -9   2   77.29    3.50
   2   9  -2    5.30    1.60
  -2  -9   2    4.60    1.40
   1   9  -2  260.77    7.60
  -1  -9   2  268.37    6.80
   0   9  -2  155.98    5.80
   0  -9   2  152.28    5.00
  -8  -8   2  246.88    5.80
  -8  -8   2  238.98    7.10
   7   8  -2   18.60    2.00
  -7  -8   2   14.20    2.00
  -7  -8   2   17.10    1.90
   6   8  -2  231.08    6.20
  -6  -8   2  234.98    6.40
   5   8  -2  259.17    6.80
  -5  -8   2  267.87    6.80
   4   8  -2    4.20    1.30
  -4  -8   2    4.80    1.30
   3   8  -2  149.49    5.00
  -3  -8   2  149.39    4.60
   2   8  -2   67.69    3.40
  -2  -8   2   64.29    3.00
   1   8  -2   65.59    3.40
  -1  -8   2   62.99    3.00
   0   8  -2   93.99    4.20
   0  -8   2   92.99    3.60
  -1   8  -2  284.27    7.80
   1  -8   2  292.67    7.20
  -2   8  -2   63.49    3.70
   2  -8   2   60.69    3.30
   9   7  -2  283.77    8.40
  -9  -7   2  293.47    8.10
  -9  -7   2  269.47    6.70
   8   7  -2   -0.80    1.10
  -8  -7   2    0.90    1.20
  -8  -7   2    0.70    1.00
   7   7  -2  296.17    6.80
  -7  -7   2  292.97    6.30
  -7  -7   2  295.47    7.60
   6   7  -2  601.04   11.70
  -6  -7   2  608.64   10.60
  -6  -7   2  587.74   12.10
   5   7  -2    0.30    0.80
  -5  -7   2    3.40    0.70
  -5  -7   2    0.20    0.90
   4   7  -2  980.60   17.50
  -4  -7   2  980.30   17.30
  -4  -7   2  964.60   15.50
   3   7  -2  163.88    4.90
  -3  -7   2  164.18    4.60
   2   7  -2    1.50    1.00
  -2  -7   2    1.30    0.90
   1   7  -2  146.09    4.70
  -1  -7   2  140.09    4.20
   0   7  -2  144.79    4.80
   0  -7   2  141.89    4.20
  -1   7  -2   18.30    2.10
   1  -7   2   17.90    1.80
  -2   7  -2  242.28    6.80
   2  -7   2  241.38    6.40
  -3   7  -2   99.59    4.30
   3  -7   2   99.99    4.30
   3  -7   2  105.59    4.20
  -4   7  -2   43.10    3.10
   4  -7   2   33.80    3.00
   4  -7   2   31.00    2.90
   9   6  -2   89.99    4.50
  -9  -6   2   86.19    3.60
   8   6  -2  360.16    9.20
  -8  -6   2  358.86    7.80
   7   6  -2  374.56    7.60
   7   6  -2  362.86    8.90
  -7  -6   2  370.36    8.70
  -7  -6   2  365.06    7.50
   6   6  -2    8.30    1.50
   6   6  -2    6.80    1.10
  -6  -6   2    6.80    1.00
  -6  -6   2    6.50    1.40
   5   6  -2   97.69    3.30
  -5  -6   2   99.59    3.60
  -5  -6   2   99.99    2.70
   4   6  -2   16.60    1.60
  -4  -6   2   16.70    0.90
  -4  -6   2   18.30    1.10
  -4  -6   2   15.50    1.60
   3   6  -2  387.16    8.20
  -3  -6   2  401.46    6.60
  -3  -6   2  392.96    8.00
  -3  -6   2  385.96    6.50
   2   6  -2    5.20    1.10
  -2  -6   2    2.60    0.90
   1   6  -2    5.30    1.10
  -1  -6   2    3.50    1.00
   0   6  -2  137.49    4.30
   0  -6   2  129.59    3.80
  -1   6  -2  147.49    4.60
   1  -6   2  144.49    4.10
  -2   6  -2  156.68    4.90
   2  -6   2  155.58    4.60
  -3   6  -2  141.09    4.80
   3  -6   2  134.59    4.50
   3  -6   2  128.79    4.60
  -4   6  -2  196.58    6.00
   4  -6   2  197.98    6.00
   4  -6   2  199.88    6.20
  -5   6  -2   80.19    3.90
   5  -6   2   81.59    4.10
   5  -6   2   74.49    4.00
   9   5  -2  238.28    7.50
  -9  -5   2  230.98    6.20
   8   5  -2    3.00    1.40
  -8  -5   2    3.60    1.20
   7   5  -2  261.07    5.50
   7   5  -2  266.27    7.20
  -7  -5   2  260.77    6.00
   6   5  -2  215.88    4.80
   6   5  -2  207.78    5.90
  -6  -5   2  214.58    4.90
   5   5  -2    2.10    0.70
   5   5  -2    3.70    1.00
  -5  -5   2    2.30    1.00
  -5  -5   2    3.00    0.70
   4   5  -2 1459.05   24.20
  -4  -5   2 1512.45   23.40
  -4  -5   2 1483.95   24.60
   3   5  -2  252.47    5.70
  -3  -5   2  259.47    5.70
  -3  -5   2  253.67    4.60
  -3  -5   2  260.67    4.50
   2   5  -2  412.86    8.20
  -2  -5   2  408.36    7.80
  -2  -5   2  406.16    6.60
   1   5  -2  946.01   16.50
  -1  -5   2  951.60   16.00
   0   5  -2  413.36    8.50
   0  -5   2  425.26    8.00
  -1   5  -2  215.18    3.90
  -1   5  -2  216.28    5.40
   1  -5   2  221.18    3.80
   1  -5   2  213.88    5.00
  -2   5  -2  615.34   12.10
  -2   5  -2  636.64   10.50
  -2   5  -2  635.44   10.40
   2  -5   2  636.54   10.20
   2  -5   2  633.44   11.80
  -3   5  -2  427.36    9.00
  -3   5  -2  414.86    7.50
  -3   5  -2  403.36    7.60
   3  -5   2  407.26    8.90
   3  -5   2  423.06    8.90
  -4   5  -2   28.00    2.20
  -4   5  -2   28.50    1.60
  -4   5  -2   30.10    1.70
   4  -5   2   29.20    2.60
   4  -5   2   28.40    2.30
  -5   5  -2  152.28    4.30
  -5   5  -2  144.79    4.80
  -5   5  -2  149.88    4.20
   5  -5   2  152.28    5.40
   5  -5   2  159.78    5.40
  -6   5  -2    1.70    1.10
   6  -5   2    1.60    1.40
   6  -5   2    1.10    1.40
  10   4  -2    1.60    1.50
 -10  -4   2    0.00    1.20
   9   4  -2   38.00    3.20
  -9  -4   2   27.80    2.30
   8   4  -2   94.49    4.40
  -8  -4   2   97.99    3.60
   7   4  -2    6.10    1.50
  -7  -4   2    7.90    0.80
  -7  -4   2    5.40    1.10
   6   4  -2  375.16    6.90
   6   4  -2  382.86    8.60
  -6  -4   2  373.06    7.40
  -6  -4   2  371.36    6.60
  -6  -4   2  368.06    6.60
   5   4  -2  615.04   10.60
   5   4  -2  593.44   11.70
  -5  -4   2  599.64   11.70
  -5  -4   2  620.94   10.60
   4   4  -2   96.09    2.70
   4   4  -2   88.79    3.10
  -4  -4   2   98.89    2.40
   3   4  -2 1088.99   18.00
  -3  -4   2 1112.29   17.10
  -3  -4   2 1070.09   18.20
  -3  -4   2 1097.69   17.20
   2   4  -2  734.73   13.00
  -2  -4   2  762.02   12.90
  -2  -4   2  769.02   11.90
  -2  -4   2  753.42   11.90
   1   4  -2  344.67    6.90
   1   4  -2  340.57    5.50
  -1  -4   2  345.07    6.60
  -1  -4   2  349.47    5.60
   0   4  -2  120.89    3.40
   0   4  -2  120.69    2.20
   0  -4   2  118.49    2.20
   0  -4   2  113.29    3.00
  -1   4  -2  452.45    7.50
  -1   4  -2  452.35    8.80
   1  -4   2  449.26    8.30
   1  -4   2  452.45    7.30
  -2   4  -2   93.39    2.20
  -2   4  -2   88.89    3.00
  -2   4  -2   93.39    2.30
   2  -4   2   91.09    2.90
   2  -4   2   91.29    2.10
  -3   4  -2   51.79    1.80
  -3   4  -2   51.99    1.90
  -3   4  -2   54.79    2.50
   3  -4   2   45.70    2.30
   3  -4   2   48.40    2.40
  -4   4  -2   82.29    2.70
  -4   4  -2   85.79    3.20
  -4   4  -2   84.49    2.60
   4  -4   2   86.49    3.40
   4  -4   2   82.19    3.40
  -5   4  -2    2.20    0.90
  -5   4  -2    0.50    0.80
  -5   4  -2   -0.10    0.80
   5  -4   2    0.20    1.00
   5  -4   2    0.00    1.00
  -6   4  -2  181.88    4.70
  -6   4  -2  176.28    5.10
  -6   4  -2  170.18    4.80
   6  -4   2  189.88    6.20
   6  -4   2  175.08    5.90
  -7   4  -2  340.17    7.90
  -7   4  -2  337.37    7.60
   7  -4   2  333.47    9.40
  10   3  -2   44.30    4.00
 -10  -3   2   38.40    3.10
   9   3  -2  107.79    5.00
  -9  -3   2  108.09    4.20
   8   3  -2    6.70    1.70
  -8  -3   2    8.10    1.40
   7   3  -2  530.45   11.50
  -7  -3   2  537.15   10.30
   6   3  -2  262.67    6.70
  -6  -3   2  254.17    4.60
  -6  -3   2  256.47    5.70
  -6  -3   2  262.77    4.50
  -6  -3   2  266.07    4.50
   5   3  -2  177.68    3.60
   5   3  -2  168.58    4.80
  -5  -3   2  176.28    4.10
  -5  -3   2  176.28    3.40
   4   3  -2 2889.91   44.70
   4   3  -2 2929.01   45.90
  -4  -3   2 2922.11   44.50
  -4  -3   2 2880.91   44.80
   3   3  -2 1028.00   17.90
   3   3  -2 1073.09   17.40
  -3  -3   2 1098.19   16.90
  -3  -3   2 1097.59   17.00
   2   3  -2   38.10    1.60
  -2  -3   2   42.20    1.10
  -2  -3   2   43.10    1.50
  -2  -3   2   42.60    1.70
   1   3  -2   96.39    2.60
   1   3  -2   92.09    2.50
   1   3  -2   91.69    1.80
  -1  -3   2   94.19    2.40
   0   3  -2  681.53   10.70
   0   3  -2  679.93   11.80
   0   3  -2  690.63   11.90
   0  -3   2  690.53   10.80
   0  -3   2  681.63   10.70
   0  -3   2  683.03   11.40
  -1   3  -2  915.11   15.40
  -1   3  -2  906.31   14.40
  -1   3  -2  915.51   14.40
   1  -3   2  901.91   14.90
   1  -3   2  929.01   14.30
  -2   3  -2 2388.16   37.00
  -2   3  -2 2448.46   37.90
  -2   3  -2 2358.46   36.90
   2  -3   2 2420.76   36.80
   2  -3   2 2389.86   37.60
  -3   3  -2  536.95   10.00
  -3   3  -2  541.95    9.40
  -3   3  -2  545.95    9.30
   3  -3   2  516.35   10.10
   3  -3   2  538.65   10.00
  -4   3  -2  141.09    3.50
  -4   3  -2  138.79    3.90
   4  -3   2  152.38    4.30
   4  -3   2  151.78    4.40
  -5   3  -2  426.26    8.20
  -5   3  -2  421.26    8.50
   5  -3   2  417.96    9.20
   5  -3   2  424.16    9.40
  -6   3  -2   30.00    1.90
  -6   3  -2   29.90    2.00
   6  -3   2   31.40    2.80
   6  -3   2   33.30    2.90
  -7   3  -2   33.00    2.30
   7  -3   2   39.00    3.10
   9   2  -2   34.20    3.30
  -9  -2   2   37.60    2.90
   8   2  -2   64.39    3.70
  -8  -2   2   69.09    3.20
   7   2  -2    0.30    1.00
  -7  -2   2    0.90    1.00
   6   2  -2  299.87    7.40
  -6  -2   2  300.27    6.40
   5   2  -2  465.45    9.70
  -5  -2   2  490.45    7.60
  -5  -2   2  484.85    7.80
  -5  -2   2  474.65    8.80
   4   2  -2   92.19    3.10
   4   2  -2   91.79    2.20
  -4  -2   2   97.29    2.10
  -4  -2   2   97.79    2.50
  -4  -2   2   96.69    2.00
   3   2  -2 3494.65   53.89
   3   2  -2 3462.35   54.79
  -3  -2   2 3514.15   54.49
  -3  -2   2 3524.05   55.29
  -3  -2   2 3404.06   54.09
   2   2  -2 1851.01   28.80
   2   2  -2 1839.22   29.10
  -2  -2   2 1855.71   28.40
  -2  -2   2 1848.72   29.50
  -2  -2   2 1867.91   28.60
  -2  -2   2 1856.31   29.20
   1   2  -2  230.38    4.60
   1   2  -2  235.48    4.00
  -1  -2   2  240.38    4.60
  -1  -2   2  238.58    4.40
  -1  -2   2  237.08    4.50
  -1  -2   2  239.88    4.10
   0   2  -2  647.94   10.40
   0   2  -2  609.94   10.70
   0   2  -2  634.84   10.00
   0  -2   2  650.23   10.00
   0  -2   2  625.54   10.50
   0  -2   2  642.84   10.00
   0  -2   2  630.54   10.30
  -1   2  -2  782.72   12.40
  -1   2  -2  780.02   13.10
  -1   2  -2  789.72   12.40
  -1   2  -2  785.72   12.70
   1  -2   2  768.82   12.80
   1  -2   2  790.52   12.30
   1  -2   2  786.82   12.70
  -2   2  -2  531.35    9.40
  -2   2  -2  529.95    9.00
  -2   2  -2  527.75    8.90
   2  -2   2  540.65    9.10
   2  -2   2  522.75    9.20
   2  -2   2  540.85    8.80
   2  -2   2  533.55    9.40
  -3   2  -2  234.68    4.60
  -3   2  -2  237.08    5.00
   3  -2   2  235.28    5.20
   3  -2   2  226.68    5.00
  -4   2  -2  147.89    3.70
  -4   2  -2  147.89    3.50
   4  -2   2  143.89    4.00
   4  -2   2  141.79    4.10
  -5   2  -2  145.49    3.80
  -5   2  -2  150.68    3.80
   5  -2   2  144.59    4.40
   5  -2   2  149.79    4.60
  -6   2  -2   15.70    1.50
   6  -2   2   15.90    1.30
   6  -2   2   14.20    1.90
  -7   2  -2   48.10    2.60
   7  -2   2   55.49    3.50
  -8   2  -2   94.59    3.80
   8  -2   2  102.89    4.80
   9   1  -2   20.30    2.60
  -9  -1   2   25.80    2.40
   8   1  -2    0.10    1.20
  -8  -1   2   -0.10    1.10
   7   1  -2  514.85   11.30
  -7  -1   2  496.05   10.00
   6   1  -2  836.02   15.90
  -6  -1   2  845.22   14.70
   5   1  -2  246.78    6.10
  -5  -1   2  242.58    5.20
   4   1  -2  851.31   14.80
  -4  -1   2  813.42   13.90
  -4  -1   2  845.62   13.00
  -4  -1   2  851.31   12.90
   3   1  -2  584.14    9.60
   3   1  -2  583.34   10.30
  -3  -1   2  576.54   10.20
  -3  -1   2  564.34    9.60
  -3  -1   2  575.34    9.30
  -3  -1   2  587.04    9.20
  -3  -1   2  568.54    9.50
   2   1  -2 3306.27   53.09
   2   1  -2 3372.26   52.19
  -2  -1   2 3305.87   52.89
  -2  -1   2 3311.97   52.69
  -2  -1   2 3389.46   52.19
  -2  -1   2 3389.56   52.59
  -2  -1   2 3362.46   51.79
   1   1  -2 1551.84   23.70
   1   1  -2 1480.85   24.20
   1   1  -2 1528.45   23.80
  -1  -1   2 1543.85   23.80
  -1  -1   2 1543.35   23.70
  -1  -1   2 1528.85   23.90
   0   1  -2 1672.23   25.80
   0   1  -2 1642.94   25.80
   0   1  -2 1644.44   26.40
   0  -1   2 1677.53   25.40
   0  -1   2 1642.44   25.70
   0  -1   2 1694.13   25.80
  -1   1  -2  952.40   15.10
  -1   1  -2  994.20   15.20
  -1   1  -2  956.40   15.20
  -1   1  -2  942.61   15.50
   1  -1   2  983.40   15.10
   1  -1   2  980.20   15.10
   1  -1   2  956.70   15.10
   1  -1   2  982.90   15.40
  -2   1  -2 2374.46   36.70
  -2   1  -2 2456.95   36.80
  -2   1  -2 2357.86   37.00
  -2   1  -2 2359.66   36.80
   2  -1   2 2437.86   37.70
   2  -1   2 2369.86   36.80
   2  -1   2 2413.46   36.90
   2  -1   2 2396.66   37.00
  -3   1  -2   57.19    1.80
  -3   1  -2   54.59    1.80
   3  -1   2   57.19    1.70
   3  -1   2   58.69    1.60
   3  -1   2   56.69    2.00
   3  -1   2   58.39    2.00
  -4   1  -2  501.95    8.90
  -4   1  -2  499.85    8.90
   4  -1   2  505.65    8.50
   4  -1   2  495.25    9.50
   4  -1   2  511.65    9.50
  -5   1  -2 1079.19   17.70
   5  -1   2 1044.10   17.30
   5  -1   2 1062.39   18.60
  -6   1  -2  129.89    3.70
   6  -1   2  124.79    3.10
   6  -1   2  124.89    4.40
  -7   1  -2   52.29    2.70
   7  -1   2   51.29    3.10
  -8   1  -2  156.08    4.80
   8  -1   2  160.28    5.90
  -9   1  -2   13.80    1.90
   9  -1   2   13.00    2.40
   9   0  -2   23.90    3.00
  -9   0   2   28.30    2.60
   8   0  -2    8.50    1.80
  -8   0   2    9.70    1.60
   7   0  -2    1.90    1.20
  -7   0   2    3.70    1.10
  -6   0   2   80.19    2.90
   5   0  -2   12.70    1.40
  -5   0   2   15.30    1.30
   4   0  -2   96.49    3.10
  -4   0   2   91.69    2.60
   3   0  -2   26.50    0.80
   3   0  -2   25.40    1.50
  -3   0   2   27.00    1.40
  -3   0   2   26.10    0.80
   2   0  -2  138.79    3.20
   2   0  -2  145.99    2.70
  -2   0   2  147.09    2.80
  -2   0   2  146.19    3.20
  -2   0   2  143.49    2.80
  -2   0   2  145.29    2.70
   1   0  -2 8663.13  131.09
   1   0  -2 8284.17  131.49
  -1   0   2 8428.76  130.69
  -1   0   2 8438.56  131.19
  -1   0   2 8715.43  131.59
   0   0  -2 4611.54   72.19
   0   0  -2 4526.85   71.29
   0   0   2 4605.84   69.69
   0   0   2 4502.25   72.19
   0   0   2 4604.34   69.99
  -1   0  -2  561.34    9.20
  -1   0  -2  566.54    9.30
  -1   0  -2  587.14    9.00
  -1   0  -2  595.04    9.40
   1   0   2  580.34    9.40
   1   0   2  578.14    9.10
   1   0   2  558.04    9.40
   1   0   2  596.44    9.20
   1   0   2  571.94    9.00
   1   0   2  602.34    9.30
  -2   0  -2  834.42   13.20
  -2   0  -2  823.42   13.20
  -2   0  -2  830.42   13.20
  -2   0  -2  836.32   13.30
   2   0   2  844.62   13.20
   2   0   2  829.02   13.30
   2   0   2  813.42   13.30
   2   0   2  839.32   13.30
   2   0   2  828.62   13.30
  -3   0  -2 2329.87   35.50
  -3   0  -2 2348.76   35.60
  -3   0  -2 2233.58   35.50
   3   0   2 2310.37   35.40
   3   0   2 2295.97   35.80
   3   0   2 2310.97   35.30
   3   0   2 2269.67   35.40
  -4   0  -2 2105.49   33.20
   4   0   2 2147.69   32.60
   4   0   2 2076.29   33.70
   4   0   2 2156.48   32.80
  -5   0  -2  158.68    3.90
   5   0   2  156.48    3.30
   5   0   2  151.98    4.30
   5   0   2  159.08    3.10
  -6   0  -2  240.68    5.50
   6   0   2  237.68    4.60
   6   0   2  232.58    6.10
  -7   0  -2  427.16    8.80
   7   0   2  418.76    9.70
  -8   0  -2    1.50    1.10
   8   0   2    1.80    1.40
  -9   0  -2   74.29    3.60
   9  -1  -2   31.00    3.50
  -9   1   2   23.50    2.40
   8  -1  -2   31.20    3.20
  -8   1   2   21.40    2.10
   7  -1  -2  385.76    9.60
  -7   1   2  401.66    8.50
   6  -1  -2   49.50    3.00
  -6   1   2   53.19    2.50
   5  -1  -2   51.29    2.60
   5  -1  -2   44.70    1.20
  -5   1   2   43.70    2.00
   4  -1  -2  825.12   14.90
   4  -1  -2  851.31   13.20
  -4   1   2  825.72   14.00
  -4   1   2  849.81   13.10
   3  -1  -2 2099.99   33.20
   3  -1  -2 2098.79   32.00
  -3   1   2 2129.29   32.10
  -3   1   2 2082.79   32.60
  -3   1   2 2053.29   32.50
   2  -1  -2 4095.99   63.29
   2  -1  -2 4047.70   66.19
  -2   1   2 4180.48   65.09
  -2   1   2 4042.50   65.29
  -2   1   2 4088.99   63.69
  -2   1   2 4021.20   63.89
  -2   1   2 4265.17   64.99
  -2   1   2 4039.90   63.79
   1  -1  -2 7948.21  122.19
   1  -1  -2 7873.91  122.69
   1  -1  -2 7975.90  122.39
   1  -1  -2 7826.02  122.99
  -1   1   2 7849.91  122.29
  -1   1   2 8050.49  122.49
  -1   1   2 7906.21  122.29
  -1   1   2 7986.40  122.29
   0  -1  -2 6027.80   90.69
   0  -1  -2 5898.91   91.89
   0  -1  -2 5845.32   92.19
   0  -1  -2 5933.71   90.79
   0   1   2 5953.70   90.49
   0   1   2 5989.00   91.99
   0   1   2 5916.51   92.99
  -1  -1  -2   11.40    0.40
  -1  -1  -2   10.80    0.60
   1   1   2   13.70    0.70
   1   1   2   11.40    0.40
   1   1   2   12.20    0.60
   1   1   2   12.20    0.60
  -2  -1  -2 3716.33   58.59
  -2  -1  -2 3724.83   58.19
  -2  -1  -2 3698.43   58.99
  -2  -1  -2 3721.13   58.89
   2   1   2 3768.82   59.29
   2   1   2 3690.13   58.49
   2   1   2 3716.83   58.99
  -3  -1  -2  531.55    9.10
  -3  -1  -2  540.05    8.90
  -3  -1  -2  555.04    9.30
   3   1   2  567.14    9.10
   3   1   2  550.54    8.90
   3   1   2  528.35    9.40
   4   1   2  133.59    3.50
   4   1   2  140.09    2.80
   4   1   2  139.99    2.80
  -5  -1  -2   58.19    2.10
   5   1   2   58.59    1.50
   5   1   2   58.19    1.50
   5   1   2   54.09    2.40
   6   1   2  266.27    6.60
   6   1   2  271.17    4.70
   6   1   2  270.47    4.60
  -7  -1  -2   36.60    2.20
  -8  -1  -2  394.16    8.60
   8   1   2  389.36    9.60
  -9  -1  -2   67.39    3.40
   9   1   2   60.39    3.90
 -10  -1  -2  298.37    7.80
  10   1   2  297.27    9.10
   8  -2  -2   26.00    3.00
  -8   2   2   32.00    2.60
   7  -2  -2    4.10    1.40
  -7   2   2    4.70    1.30
   6  -2  -2  454.75   10.30
  -6   2   2  444.06    7.60
  -6   2   2  453.55    9.00
   5  -2  -2  900.31   16.80
   5  -2  -2  908.11   14.60
  -5   2   2  919.01   14.50
  -5   2   2  899.91   15.50
   4  -2  -2   44.90    1.50
   4  -2  -2   42.60    2.30
  -4   2   2   44.20    1.80
   3  -2  -2   38.00    1.90
   3  -2  -2   37.90    1.80
   3  -2  -2   36.10    1.30
  -3   2   2   37.50    1.50
  -3   2   2   38.20    1.20
   2  -2  -2  642.34   10.50
   2  -2  -2  618.94   10.90
   2  -2  -2  628.44   11.00
  -2   2   2  636.74   10.30
  -2   2   2  643.24   10.40
  -2   2   2  653.93   10.40
  -2   2   2  637.54   10.40
  -2   2   2  658.13   10.70
   1  -2  -2  845.82   13.40
   1  -2  -2  843.82   13.70
   1  -2  -2  867.51   13.80
   1  -2  -2  848.02   13.60
  -1   2   2  859.51   13.40
  -1   2   2  850.21   13.40
  -1   2   2  859.81   13.60
  -1   2   2  850.61   13.60
  -1   2   2  859.61   13.60
   0  -2  -2  399.16    6.70
   0  -2  -2  423.16    7.00
   0  -2  -2  414.46    6.60
   0   2   2  408.36    6.70
   0   2   2  413.66    6.90
   0   2   2  412.46    6.90
   0   2   2  419.06    6.70
  -1  -2  -2   40.30    1.00
  -1  -2  -2   38.30    1.20
  -1  -2  -2   38.90    1.00
   1   2   2   38.80    1.00
   1   2   2   39.30    1.10
   1   2   2   38.30    1.20
   1   2   2   40.90    1.20
   1   2   2   39.20    1.00
  -2  -2  -2  147.29    2.90
  -2  -2  -2  152.48    3.10
  -2  -2  -2  148.79    3.00
  -2  -2  -2  153.58    3.10
   2   2   2  151.88    2.90
   2   2   2  148.19    3.10
   2   2   2  148.59    3.00
  -3  -2  -2 2062.99   32.20
  -3  -2  -2 2139.39   32.60
  -3  -2  -2 2060.89   32.10
   3   2   2 2031.00   33.20
   3   2   2 2174.48   32.30
   3   2   2 2086.49   32.60
  -4  -2  -2  218.48    4.00
  -4  -2  -2  212.48    4.40
  -4  -2  -2  215.68    4.70
   4   2   2  212.58    4.80
   4   2   2  211.38    3.90
  -5  -2  -2  835.12   14.10
  -5  -2  -2  839.72   13.30
   5   2   2  823.82   14.80
   5   2   2  839.12   13.20
  -6  -2  -2  568.94   10.50
   6   2   2  562.64   11.30
   6   2   2  585.14    9.20
   6   2   2  576.64    9.20
   6   2   2  575.04    9.20
   7   2   2   56.59    3.00
  -8  -2  -2   21.70    1.90
   8   2   2   32.10    2.90
  -9  -2  -2  245.98    6.50
   9   2   2  251.27    7.60
 -10  -2  -2  294.27    7.60
  10   2   2  290.97    8.90
   8  -3  -2   11.50    2.30
  -8   3   2   19.30    2.10
   7  -3  -2   76.79    4.20
  -7   3   2   73.29    3.30
   6  -3  -2   78.69    3.90
  -6   3   2   77.09    2.40
  -6   3   2   77.49    3.00
   5  -3  -2   31.80    2.50
  -5   3   2   28.80    1.80
  -5   3   2   31.10    1.40
   4  -3  -2  239.38    6.10
   4  -3  -2  234.38    5.90
  -4   3   2  239.38    4.70
  -4   3   2  242.78    5.10
   3  -3  -2 1215.08   19.70
   3  -3  -2 1231.78   19.70
   3  -3  -2 1240.98   20.70
   3  -3  -2 1227.18   20.60
  -3   3   2 1226.48   19.70
  -3   3   2 1224.48   19.50
   2  -3  -2 1177.98   18.50
   2  -3  -2 1170.48   19.10
   2  -3  -2 1145.69   18.90
   2  -3  -2 1145.39   18.40
  -2   3   2 1148.09   18.30
  -2   3   2 1134.39   18.20
  -2   3   2 1135.49   18.10
   1  -3  -2 3110.99   46.90
   1  -3  -2 2988.30   47.00
   1  -3  -2 3079.69   46.90
  -1   3   2 3102.79   46.80
  -1   3   2 3049.40   47.60
  -1   3   2 2959.50   47.40
  -1   3   2 3092.29   46.60
   0  -3  -2  646.94   10.80
   0  -3  -2  642.94   10.10
   0  -3  -2  628.74   10.70
   0  -3  -2  642.44   10.50
   0   3   2  661.33   10.60
   0   3   2  659.03   10.20
   0   3   2  649.74   10.60
   0   3   2  635.94   10.60
  -1  -3  -2   16.70    0.80
   1   3   2   16.90    0.90
   1   3   2   17.50    0.70
   1   3   2   16.00    0.80
   1   3   2   18.10    0.60
   1   3   2   16.60    0.80
  -2  -3  -2 1222.58   19.30
  -2  -3  -2 1218.58   19.00
  -2  -3  -2 1270.37   19.50
  -2  -3  -2 1224.18   19.40
  -2  -3  -2 1206.78   19.00
  -2  -3  -2 1230.08   19.50
   2   3   2 1211.88   19.30
   2   3   2 1240.58   19.00
   2   3   2 1221.38   19.30
  -3  -3  -2   65.99    1.80
  -3  -3  -2   66.59    1.70
  -3  -3  -2   58.09    1.70
  -3  -3  -2   56.69    1.90
   3   3   2   62.59    1.70
   3   3   2   55.79    1.90
   3   3   2   62.99    1.70
   3   3   2   60.49    1.60
  -4  -3  -2 1788.32   28.20
  -4  -3  -2 1850.71   28.10
   4   3   2 1807.82   27.90
   4   3   2 1806.12   28.90
   4   3   2 1786.02   27.90
  -5  -3  -2 1191.58   19.30
  -5  -3  -2 1192.48   18.80
   5   3   2 1184.88   18.60
   5   3   2 1186.48   20.10
   5   3   2 1181.78   18.60
  -6  -3  -2  317.97    6.50
  -6  -3  -2  324.37    5.70
   6   3   2  320.27    7.30
   6   3   2  321.77    5.50
   6   3   2  321.97    5.50
  -7  -3  -2  202.38    5.00
   7   3   2  200.48    5.80
   7   3   2  205.48    3.50
  -8  -3  -2  417.36    8.70
   8   3   2  410.96    9.70
  -9  -3  -2   33.50    2.50
   9   3   2   41.00    3.10
 -10  -3  -2  249.48    6.80
  10   3   2  237.78    7.80
   7  -4  -2   31.60    3.30
  -7   4   2   34.20    2.50
   6  -4  -2   32.60    3.00
  -6   4   2   26.30    2.10
   5  -4  -2  124.19    4.70
   5  -4  -2  114.39    4.40
  -5   4   2  114.29    3.50
  -5   4   2  122.99    3.30
   4  -4  -2  108.69    4.00
   4  -4  -2  104.09    3.80
  -4   4   2  104.99    3.10
  -4   4   2  110.89    3.00
   3  -4  -2  859.51   15.20
   3  -4  -2  843.72   15.30
  -3   4   2  843.62   14.10
  -3   4   2  852.61   14.30
   2  -4  -2  840.82   14.40
   2  -4  -2  840.32   14.50
  -2   4   2  826.92   13.30
  -2   4   2  808.62   13.40
  -2   4   2  824.62   13.80
   1  -4  -2   30.70    1.50
  -1   4   2   31.70    1.00
  -1   4   2   30.60    1.40
  -1   4   2   29.90    1.00
   0  -4  -2 1092.29   17.40
   0   4   2 1090.69   16.60
   0   4   2 1066.19   17.50
   0   4   2 1078.89   16.70
  -1  -4  -2 1011.60   16.60
  -1  -4  -2 1048.80   15.90
   1   4   2 1054.49   16.00
   1   4   2 1026.50   16.70
   1   4   2 1035.10   15.90
   1   4   2 1038.40   16.70
   1   4   2 1020.30   16.70
  -2  -4  -2  108.49    2.80
  -2  -4  -2  103.59    2.20
  -2  -4  -2  105.99    2.60
   2   4   2  105.99    2.70
   2   4   2  107.49    2.10
  -3  -4  -2 1164.68   18.70
  -3  -4  -2 1177.78   18.80
  -3  -4  -2 1161.98   18.40
  -3  -4  -2 1148.29   18.30
  -3  -4  -2 1148.09   18.70
  -3  -4  -2 1148.39   19.60
   3   4   2 1170.48   18.60
   3   4   2 1200.28   18.30
   3   4   2 1166.18   18.60
  -4  -4  -2  776.12   12.80
  -4  -4  -2  761.82   12.60
   4   4   2  775.42   12.60
   4   4   2  785.82   12.60
   4   4   2  750.12   13.30
   4   4   2  761.52   12.60
  -5  -4  -2    3.80    0.60
  -5  -4  -2    1.90    0.70
   5   4   2    2.70    0.50
   5   4   2    2.30    0.80
   5   4   2    2.10    0.50
  -6  -4  -2  108.59    3.10
  -6  -4  -2  114.09    2.70
   6   4   2  107.69    3.70
   6   4   2  110.79    2.50
  -7  -4  -2  102.19    2.50
  -7  -4  -2  101.39    3.30
   7   4   2  103.09    2.30
   7   4   2  101.79    3.90
  -8  -4  -2   12.30    1.50
   8   4   2   14.30    2.00
  -9  -4  -2  213.88    5.80
   9   4   2  204.98    6.70
 -10  -4  -2  147.99    5.10
  10   4   2  160.38    6.10
   6  -5  -2  141.99    5.70
   6  -5  -2  137.59    5.50
  -6   5   2  126.49    4.10
   5  -5  -2   20.80    2.40
   5  -5  -2   24.10    2.60
  -5   5   2   21.90    1.80
  -5   5   2   21.40    1.70
   4  -5  -2  131.89    4.70
   4  -5  -2  124.29    4.50
  -4   5   2  129.99    3.70
  -4   5   2  128.09    3.40
   3  -5  -2  407.26    8.90
   3  -5  -2  410.06    8.80
  -3   5   2  409.56    8.00
  -3   5   2  418.16    7.60
   2  -5  -2  109.29    3.40
   2  -5  -2  104.99    3.50
  -2   5   2  102.49    2.60
  -2   5   2  105.09    3.10
  -2   5   2  106.49    2.50
   1  -5  -2 1599.04   26.30
  -1   5   2 1635.74   25.10
  -1   5   2 1650.83   25.20
  -1   5   2 1636.04   26.20
   0  -5  -2  393.66    7.40
   0   5   2  394.66    7.50
   0   5   2  402.26    6.40
  -1  -5  -2  644.04   11.20
  -1  -5  -2  651.33   10.20
   1   5   2  653.43   10.20
   1   5   2  674.23   11.50
   1   5   2  674.33   10.30
  -2  -5  -2 1047.20   17.40
  -2  -5  -2 1079.39   16.50
   2   5   2 1056.59   16.50
   2   5   2 1085.19   17.50
  -3  -5  -2  767.72   13.10
  -3  -5  -2  766.82   12.30
  -3  -5  -2  771.12   12.30
   3   5   2  781.12   13.00
   3   5   2  769.32   12.30
  -4  -5  -2  249.38    4.80
  -4  -5  -2  254.17    5.40
  -4  -5  -2  249.38    4.70
   4   5   2  246.98    5.00
   4   5   2  252.37    4.70
  -5  -5  -2  941.71   15.50
   5   5   2  933.81   16.50
   5   5   2  966.40   15.60
  -6  -5  -2  345.97    6.80
   6   5   2  354.16    6.40
   6   5   2  343.67    7.70
  -7  -5  -2  145.09    3.90
  -7  -5  -2  135.39    3.30
   7   5   2  137.19    3.10
   7   5   2  139.49    4.60
  -8  -5  -2  151.88    4.40
   8   5   2  151.88    5.20
  -9  -5  -2    0.70    1.10
   9   5   2    1.00    1.30
 -10  -5  -2  162.98    5.30
  10   5   2  169.98    6.30
   5  -6  -2    5.30    1.70
   5  -6  -2    7.30    1.90
  -5   6   2    6.50    1.30
   4  -6  -2   -0.30    1.00
   4  -6  -2    1.00    1.10
  -4   6   2    0.40    0.90
  -4   6   2   -0.40    0.70
   3  -6  -2   31.90    2.30
   3  -6  -2   37.10    2.60
  -3   6   2   36.90    1.70
  -3   6   2   37.00    2.10
   2  -6  -2   71.39    3.10
   2  -6  -2   70.19    3.00
  -2   6   2   72.49    2.00
   1  -6  -2  145.09    4.00
  -1   6   2  142.99    3.90
  -1   6   2  139.19    2.80
  -1   6   2  141.99    2.80
   0  -6  -2 2200.08   35.30
   0   6   2 2189.48   35.40
   0   6   2 2295.57   33.80
  -1  -6  -2 1300.77   21.20
   1   6   2 1294.97   21.40
  -2  -6  -2    1.00    0.60
   2   6   2    0.30    0.60
  -3  -6  -2  694.83   11.00
  -3  -6  -2  681.53   12.10
   3   6   2  696.13   10.90
   3   6   2  675.43   12.00
  -4  -6  -2  155.78    3.20
  -4  -6  -2  154.08    4.00
  -4  -6  -2  152.78    3.30
   4   6   2  157.88    3.80
   4   6   2  153.28    3.20
  -5  -6  -2  129.39    3.20
  -5  -6  -2  131.99    3.80
  -5  -6  -2  124.49    3.00
   5   6   2  122.09    3.30
  -6  -6  -2   69.09    2.30
  -6  -6  -2   60.59    2.70
   6   6   2   64.89    2.20
   6   6   2   65.29    2.90
  -7  -6  -2  351.76    7.10
   7   6   2  353.76    8.20
   7   6   2  340.47    6.70
  -8  -6  -2   41.20    2.30
   8   6   2   35.20    2.80
   8   6   2   34.40    1.70
  -9  -6  -2  378.86    8.40
   9   6   2  382.26    9.60
 -10  -6  -2   79.79    3.70
  10   6   2   83.29    4.50
   4  -7  -2  399.46   10.00
   4  -7  -2  402.26    9.90
  -4   7   2  409.06    8.90
   3  -7  -2   80.59    3.70
   3  -7  -2   82.79    3.90
  -3   7   2   90.59    3.50
   2  -7  -2   32.50    2.40
   2  -7  -2   31.60    2.40
  -2   7   2   32.10    2.20
   1  -7  -2  163.48    4.60
   0  -7  -2    0.10    0.80
   0   7   2    0.10    0.80
  -1  -7  -2  140.29    3.80
   1   7   2  136.39    4.00
  -2  -7  -2  508.95    9.70
   2   7   2  518.55    9.90
  -3  -7  -2  408.76    8.20
   3   7   2  415.46    8.30
  -4  -7  -2  326.77    5.70
  -4  -7  -2  319.27    5.60
  -4  -7  -2  310.07    6.80
   4   7   2  320.57    5.50
   4   7   2  319.77    6.80
  -5  -7  -2  209.58    5.20
  -5  -7  -2  208.28    4.20
  -5  -7  -2  205.58    4.30
   5   7   2  203.58    4.90
  -6  -7  -2   64.39    2.30
  -6  -7  -2   69.29    2.90
  -6  -7  -2   62.39    2.20
   6   7   2   67.79    2.50
  -7  -7  -2  498.05    9.10
  -7  -7  -2  472.45   10.10
   7   7   2  485.15    9.10
   7   7   2  477.65   10.40
  -8  -7  -2  324.07    7.10
   8   7   2  340.77    8.40
   8   7   2  330.47    6.70
  -9  -7  -2  117.99    4.00
   9   7   2  109.99    4.80
 -10  -7  -2    1.90    1.20
  10   7   2    0.20    1.30
   3  -8  -2   47.40    3.30
   3  -8  -2   42.10    3.00
  -3   8   2   43.50    2.80
   2  -8  -2  182.48    5.60
   2  -8  -2  179.88    5.70
  -2   8   2  173.78    5.30
   1  -8  -2    0.90    1.00
  -1   8   2   -0.20    0.90
   0  -8  -2  135.89    4.20
   0   8   2  136.19    4.30
  -1  -8  -2    1.50    0.90
  -2  -8  -2  158.28    4.40
   2   8   2  165.68    4.70
  -3  -8  -2  262.67    6.10
   3   8   2  263.07    6.30
  -4  -8  -2  142.99    4.30
   4   8   2  146.89    4.30
  -5  -8  -2  282.07    5.30
  -5  -8  -2  285.57    5.20
  -5  -8  -2  277.17    6.60
   5   8   2  285.77    6.50
  -6  -8  -2  651.63   11.20
  -6  -8  -2  659.93   12.70
  -6  -8  -2  653.33   11.30
   6   8   2  650.73   12.20
  -7  -8  -2  223.98    6.20
  -7  -8  -2  231.28    5.10
  -7  -8  -2  234.88    5.30
  -8  -8  -2   -0.20    0.90
  -8  -8  -2   -1.30    0.90
  -8  -8  -2    1.10    0.90
   8   8   2   -1.00    0.70
  -9  -8  -2  258.87    6.50
  -9  -8  -2  256.97    7.20
  -9  -8  -2  261.37    6.30
   9   8   2  263.47    7.60
   2  -9  -2   52.29    3.40
   2  -9  -2   55.29    3.30
  -2   9   2   52.99    3.20
   1  -9  -2  189.58    5.70
  -1   9   2  176.88    5.60
   0  -9  -2   56.59    3.00
   0   9   2   54.79    3.10
  -1  -9  -2   81.79    3.40
   1   9   2   85.19    3.60
  -2  -9  -2  199.28    5.40
   2   9   2  210.78    5.80
  -3  -9  -2   50.89    2.70
  -4  -9  -2  403.26    8.70
  -5  -9  -2  337.97    7.80
  -6  -9  -2   14.00    1.80
   6   9   2   10.60    1.50
  -7  -9  -2   74.69    3.40
  -7  -9  -2   67.49    3.50
  -7  -9  -2   72.69    3.50
   7   9   2   67.89    2.90
  -8  -9  -2  204.48    5.10
  -8  -9  -2  207.08    4.90
  -8  -9  -2  207.58    6.10
   8   9   2  197.68    5.30
  -9  -9  -2   18.30    2.30
  -9  -9  -2   20.50    1.80
  -9  -9  -2   16.90    1.90
   0 -10  -2  253.37    6.90
   0  10   2  250.77    7.10
  -1 -10  -2   73.69    3.40
   1  10   2   78.79    3.90
  -2 -10  -2   20.80    2.10
   2  10   2   17.40    2.10
  -3 -10  -2   58.69    3.00
   3  10   2   54.99    3.10
  -4 -10  -2  155.08    4.90
   4  10   2  155.88    5.00
  -5 -10  -2    0.80    1.20
   5  10   2    0.00    1.00
  -6 -10  -2  322.67    7.80
   6  10   2  300.27    7.50
  -7 -10  -2  116.69    4.50
   7  10   2  112.49    4.10
  -8 -10  -2    1.50    1.30
   8  10   2    0.50    0.90
  -3 -11  -2   19.80    2.20
   3  11   2   18.10    2.30
  -4 -11  -2   74.79    3.70
   4  11   2   74.39    3.80
  -5 -11  -2   11.50    1.90
   5  11   2   13.00    2.00
   6   9  -3   10.30    1.90
  -6  -9   3   11.00    1.90
   5   9  -3   68.99    3.70
  -5  -9   3   65.69    3.50
   4   9  -3   53.99    3.40
  -4  -9   3   51.19    3.00
   3   9  -3    1.90    1.30
  -3  -9   3    2.60    1.40
   2   9  -3   48.70    3.40
  -2  -9   3   52.99    2.90
   1   9  -3   39.20    3.20
  -1  -9   3   44.40    2.90
   0   9  -3    2.10    1.50
   0  -9   3    3.90    1.30
   7   8  -3  239.38    6.60
  -7  -8   3  254.57    7.10
   6   8  -3  296.97    7.60
  -6  -8   3  294.37    7.60
   5   8  -3   30.70    2.50
  -5  -8   3   33.40    2.50
   4   8  -3  775.52   15.60
  -4  -8   3  818.52   15.10
   3   8  -3  172.88    5.70
  -3  -8   3  172.58    5.10
   2   8  -3    2.40    1.30
  -2  -8   3    6.30    1.40
   1   8  -3    1.60    1.20
  -1  -8   3    0.60    1.00
   0   8  -3   71.99    4.00
   0  -8   3   76.39    3.30
  -1   8  -3   99.09    4.60
   1  -8   3   98.39    4.00
  -2   8  -3  139.09    5.60
   2  -8   3  141.29    5.00
  -8  -7   3  134.49    4.10
  -8  -7   3  134.49    5.20
   7   7  -3  194.38    5.40
  -7  -7   3  192.48    4.80
  -7  -7   3  196.48    6.00
   6   7  -3   29.90    2.10
  -6  -7   3   30.30    2.40
  -6  -7   3   27.60    1.70
   5   7  -3  212.18    5.80
  -5  -7   3  216.08    5.90
  -5  -7   3  216.48    4.50
   4   7  -3  162.08    5.10
  -4  -7   3  170.28    4.90
  -4  -7   3  168.78    3.50
   3   7  -3   18.50    2.00
  -3  -7   3   20.40    2.00
   2   7  -3  197.08    5.80
  -2  -7   3  192.98    5.10
   1   7  -3  134.99    4.70
  -1  -7   3  132.49    4.10
   0   7  -3   32.80    2.60
   0  -7   3   33.30    2.20
  -1   7  -3  144.29    5.20
   1  -7   3  150.08    4.60
  -2   7  -3   18.90    2.30
   2  -7   3   23.00    2.20
  -3   7  -3   57.19    3.50
   3  -7   3   53.99    3.30
   3  -7   3   55.89    3.30
   9   6  -3  142.99    5.70
  -9  -6   3  140.69    4.60
   8   6  -3   34.60    2.90
  -8  -6   3   32.40    2.30
   7   6  -3  426.36   10.10
   7   6  -3  440.56    8.90
  -7  -6   3  433.96    8.70
  -7  -6   3  448.56   10.00
   6   6  -3  234.48    5.80
  -6  -6   3  233.68    5.20
  -6  -6   3  232.28    6.30
   5   6  -3   54.59    2.60
  -5  -6   3   51.39    1.90
  -5  -6   3   51.69    2.70
   4   6  -3  321.67    7.30
  -4  -6   3  321.37    7.20
  -4  -6   3  322.27    5.90
  -3  -6   3    6.40    0.60
   2   6  -3  607.04   11.90
  -2  -6   3  599.64   11.20
  -2  -6   3  613.44    9.70
  -2  -6   3  600.84    9.60
  -2  -6   3  609.04    9.70
   1   6  -3  490.95   10.30
  -1  -6   3  492.55    9.50
   0   6  -3 1075.09   19.30
   0  -6   3 1061.09   18.20
  -1   6  -3   11.00    1.70
   1  -6   3    9.40    1.40
  -2   6  -3  471.95   10.50
   2  -6   3  490.35    9.90
  -3   6  -3    9.50    1.70
   3  -6   3    9.70    1.60
   3  -6   3   11.90    1.70
  -4   6  -3    3.90    1.40
   4  -6   3    3.50    1.30
   4  -6   3    4.60    1.50
  -5   6  -3    9.60    1.90
   5  -6   3   10.50    2.00
   5  -6   3    8.90    1.90
   9   5  -3   -0.80    1.20
  -9  -5   3    0.20    1.10
   8   5  -3    4.40    1.60
  -8  -5   3    3.90    1.20
   7   5  -3  189.38    6.00
   7   5  -3  198.38    6.30
  -7  -5   3  182.68    4.80
  -7  -5   3  192.78    4.50
   6   5  -3  208.08    5.00
   6   5  -3  210.98    6.00
  -6  -5   3  212.08    4.90
   5   5  -3 1201.38   21.20
   5   5  -3 1242.98   20.50
  -5  -5   3 1208.08   19.70
  -5  -5   3 1206.08   20.90
   4   5  -3   24.10    1.70
  -4  -5   3   24.00    1.20
  -4  -5   3   26.00    1.90
   3   5  -3  253.17    5.90
  -3  -5   3  264.27    4.70
  -3  -5   3  250.07    5.70
  -3  -5   3  254.77    4.70
   2   5  -3  389.66    8.30
  -2  -5   3  413.26    7.90
  -2  -5   3  418.36    6.90
  -2  -5   3  402.46    6.70
   1   5  -3  668.83   12.70
   1   5  -3  675.63   10.60
  -1  -5   3  690.43   10.80
  -1  -5   3  678.93   10.70
  -1  -5   3  671.73   12.00
   0   5  -3    0.90    0.80
   0   5  -3    2.20    0.30
   0  -5   3    2.90    0.40
   0  -5   3    2.40    0.80
  -1   5  -3 1059.69   19.00
   1  -5   3 1089.39   18.20
   1  -5   3 1075.69   16.80
  -2   5  -3  360.36    8.30
  -2   5  -3  372.26    6.60
   2  -5   3  369.06    7.70
  -3   5  -3   27.10    2.40
  -3   5  -3   25.50    1.40
  -3   5  -3   24.20    1.50
   3  -5   3   22.70    2.00
   3  -5   3   29.40    2.10
  -4   5  -3  137.39    4.70
  -4   5  -3  133.49    3.60
  -4   5  -3  133.49    3.50
   4  -5   3  132.29    4.70
   4  -5   3  130.59    4.50
  -5   5  -3   24.90    2.50
   5  -5   3   23.20    2.50
   5  -5   3   21.00    2.30
  -6   5  -3   15.10    2.10
   6  -5   3   17.20    2.40
   6  -5   3   12.40    2.20
   9   4  -3  154.98    6.10
  -9  -4   3  151.98    5.00
   8   4  -3   47.60    3.30
  -8  -4   3   46.60    2.60
   7   4  -3  586.24   12.40
  -7  -4   3  572.54    9.90
  -7  -4   3  583.04   11.00
   6   4  -3 1079.09   17.80
   6   4  -3 1079.19   19.50
  -6  -4   3 1056.09   17.70
  -6  -4   3 1097.19   18.20
   5   4  -3   23.20    1.50
   5   4  -3   18.10    1.80
  -5  -4   3   20.60    1.40
   4   4  -3  248.78    5.40
   4   4  -3  242.58    5.80
  -4  -4   3  241.58    5.60
  -4  -4   3  248.18    4.80
   3   4  -3  108.09    3.20
  -3  -4   3  105.99    3.10
  -3  -4   3  105.99    2.40
  -3  -4   3  101.89    2.40
   2   4  -3  762.82   13.60
  -2  -4   3  775.52   12.20
  -2  -4   3  775.02   13.20
  -2  -4   3  768.52   12.30
   1   4  -3  235.28    4.10
   1   4  -3  243.28    5.50
  -1  -4   3  241.28    4.30
  -1  -4   3  236.68    5.00
   0   4  -3  254.47    4.40
   0   4  -3  258.67    5.80
   0  -4   3  251.77    5.20
   0  -4   3  243.08    4.30
   0  -4   3  242.88    4.40
  -1   4  -3   59.39    1.70
  -1   4  -3   63.69    2.60
   1  -4   3   62.39    1.60
   1  -4   3   58.19    2.10
  -2   4  -3  480.05    8.30
  -2   4  -3  470.45    9.60
   2  -4   3  483.35    8.10
   2  -4   3  474.85    9.10
  -3   4  -3   11.70    1.10
  -3   4  -3    9.80    1.40
  -3   4  -3    8.40    0.90
   3  -4   3    8.80    1.30
   3  -4   3    8.30    1.30
  -4   4  -3  136.39    3.50
  -4   4  -3  131.89    4.30
  -4   4  -3  129.89    3.60
   4  -4   3  131.39    4.30
   4  -4   3  134.49    4.40
  -5   4  -3  312.87    6.50
  -5   4  -3  311.67    7.40
  -5   4  -3  298.77    6.60
   5  -4   3  303.87    7.60
   5  -4   3  293.97    7.70
  -6   4  -3   68.79    2.80
  -6   4  -3   65.79    2.90
  -6   4  -3   63.09    3.20
   6  -4   3   71.79    3.90
   6  -4   3   72.09    3.80
  -7   4  -3   44.40    2.70
  -7   4  -3   44.30    2.60
   7  -4   3   45.80    3.60
   9   3  -3   13.10    2.20
  -9  -3   3   12.80    1.90
   8   3  -3   23.00    2.50
  -8  -3   3   22.10    2.00
   7   3  -3  176.58    5.70
  -7  -3   3  170.18    4.70
   6   3  -3    8.40    1.40
  -6  -3   3    7.10    1.10
  -6  -3   3    9.30    0.70
  -6  -3   3    9.80    0.80
   5   3  -3  987.50   17.70
  -5  -3   3  988.80   16.10
  -5  -3   3 1001.70   15.80
  -5  -3   3  982.40   16.50
   4   3  -3  143.69    4.10
   4   3  -3  142.59    3.50
  -4  -3   3  145.69    3.10
  -4  -3   3  144.19    3.30
   3   3  -3  614.04   10.80
   3   3  -3  593.84   11.00
  -3  -3   3  628.04   10.20
   2   3  -3  141.59    2.80
   2   3  -3  136.59    3.50
  -2  -3   3  134.89    3.30
  -2  -3   3  143.49    2.90
  -2  -3   3  141.09    2.80
   1   3  -3    1.10    0.60
   1   3  -3    1.30    0.30
  -1  -3   3    0.60    0.40
  -1  -3   3    1.20    0.50
   0   3  -3    6.30    0.50
   0   3  -3    4.70    0.80
   0  -3   3    5.30    0.60
   0  -3   3    5.20    0.50
   0  -3   3    6.00    0.80
  -1   3  -3  776.22   12.60
  -1   3  -3  787.72   13.80
   1  -3   3  776.32   13.00
   1  -3   3  790.22   12.50
  -2   3  -3   29.40    1.70
  -2   3  -3   29.00    1.20
  -2   3  -3   28.40    1.30
   2  -3   3   28.70    1.20
   2  -3   3   27.30    1.50
  -3   3  -3  995.40   16.10
  -3   3  -3  979.60   16.30
  -3   3  -3  993.80   17.20
   3  -3   3  976.60   17.00
   3  -3   3  993.90   16.90
  -4   3  -3  399.86    7.80
  -4   3  -3  400.96    7.60
  -4   3  -3  403.96    8.40
   4  -3   3  404.46    8.60
   4  -3   3  398.06    8.40
  -5   3  -3   68.49    2.60
  -5   3  -3   71.09    2.90
  -5   3  -3   70.59    2.70
   5  -3   3   71.19    3.30
   5  -3   3   70.29    3.20
  -6   3  -3  100.19    3.60
  -6   3  -3  100.59    3.30
  -6   3  -3   91.29    3.40
   6  -3   3   98.09    4.20
   6  -3   3   91.09    4.00
   6  -3   3   97.69    3.40
  -7   3  -3  359.06    8.20
  -7   3  -3  356.26    7.90
   7  -3   3  357.56    9.40
   9   2  -3    0.00    1.20
  -9  -2   3    0.60    1.30
   8   2  -3   61.69    3.70
  -8  -2   3   63.19    3.10
   7   2  -3  332.57    8.40
  -7  -2   3  314.67    7.10
   6   2  -3  553.04   11.50
  -6  -2   3  547.55   10.30
   5   2  -3  295.67    7.00
  -5  -2   3  286.67    6.00
  -5  -2   3  306.77    5.40
   4   2  -3 1477.05   24.80
  -4  -2   3 1494.75   23.90
  -4  -2   3 1533.35   23.40
  -4  -2   3 1506.65   23.60
   3   2  -3 1558.84   24.70
   3   2  -3 1580.04   25.20
  -3  -2   3 1548.84   24.40
  -3  -2   3 1552.24   24.40
  -3  -2   3 1564.54   24.60
   2   2  -3   38.90    1.60
   2   2  -3   41.50    1.30
   2   2  -3   39.40    1.60
  -2  -2   3   40.30    1.50
  -2  -2   3   40.20    1.30
  -2  -2   3   44.60    1.70
  -2  -2   3   41.40    1.30
   1   2  -3  700.83   12.00
   1   2  -3  700.73   11.30
  -1  -2   3  721.43   11.80
  -1  -2   3  705.13   11.80
  -1  -2   3  691.13   11.50
  -1  -2   3  716.13   11.30
   0   2  -3   18.70    1.30
   0   2  -3   18.60    0.80
   0   2  -3   19.20    0.90
   0  -2   3   20.00    0.90
   0  -2   3   18.10    1.00
  -1   2  -3   27.40    1.50
  -1   2  -3   25.60    1.10
  -1   2  -3   25.40    1.20
   1  -2   3   26.20    1.20
   1  -2   3   24.20    1.00
   1  -2   3   26.10    1.10
  -2   2  -3 1804.92   28.50
  -2   2  -3 1763.32   27.60
  -2   2  -3 1757.42   27.70
   2  -2   3 1782.72   27.50
   2  -2   3 1771.52   27.90
  -3   2  -3  151.58    3.40
  -3   2  -3  149.09    3.50
  -3   2  -3  150.18    3.90
   3  -2   3  155.88    3.90
   3  -2   3  146.69    3.70
  -4   2  -3  176.28    4.40
  -4   2  -3  175.38    4.10
  -4   2  -3  174.48    4.20
   4  -2   3  178.78    4.60
   4  -2   3  175.38    4.60
  -5   2  -3  559.54   10.10
  -5   2  -3  550.24   10.20
  -5   2  -3  547.45   10.30
   5  -2   3  537.25   10.10
   5  -2   3  538.15   10.80
   5  -2   3  525.65   10.90
  -6   2  -3  508.05   10.00
  -6   2  -3  496.85    9.70
   6  -2   3  494.95   10.80
   6  -2   3  486.65    9.50
  -7   2  -3   26.90    2.10
  -7   2  -3   23.40    2.20
   7  -2   3   23.20    2.50
  -8   2  -3   29.60    2.40
  -8   2  -3   32.20    2.50
   8  -2   3   28.90    3.10
   9   1  -3  135.59    5.80
  -9  -1   3  132.99    4.80
   8   1  -3  389.26    9.90
  -8  -1   3  376.56    8.60
  -7  -1   3  258.67    6.20
   6   1  -3    1.20    1.00
  -6  -1   3    1.80    0.90
   5   1  -3  973.60   17.40
  -5  -1   3  964.10   16.30
  -5  -1   3  969.40   15.00
   4   1  -3  349.87    7.40
  -4  -1   3  356.76    6.00
  -4  -1   3  349.37    6.60
  -4  -1   3  359.46    6.10
   3   1  -3  787.32   13.50
  -3  -1   3  764.62   12.80
  -3  -1   3  795.42   12.60
  -3  -1   3  786.92   12.70
   2   1  -3 1116.59   18.30
   2   1  -3 1133.59   17.90
  -2  -1   3 1117.09   18.30
  -2  -1   3 1150.38   18.00
  -2  -1   3 1126.89   17.90
  -2  -1   3 1138.09   18.10
  -2  -1   3 1171.98   17.90
   1   1  -3  264.57    4.80
   1   1  -3  259.87    4.60
   1   1  -3  257.57    5.00
  -1  -1   3  268.57    4.60
  -1  -1   3  264.47    5.00
  -1  -1   3  263.37    4.90
  -1  -1   3  256.17    4.80
   0   1  -3   84.29    2.30
   0   1  -3   84.69    1.90
   0   1  -3   85.79    1.90
   0  -1   3   87.49    1.80
   0  -1   3   87.99    1.90
   0  -1   3   90.29    2.30
  -1   1  -3 2048.99   31.40
  -1   1  -3 2007.70   31.10
  -1   1  -3 1976.90   30.80
   1  -1   3 1963.00   31.20
   1  -1   3 2041.90   30.80
   1  -1   3 1962.50   31.60
   1  -1   3 2003.80   30.70
  -2   1  -3 1010.40   16.00
  -2   1  -3 1002.10   16.60
  -2   1  -3  990.20   16.10
  -2   1  -3  991.00   16.20
   2  -1   3 1008.80   16.10
   2  -1   3 1019.10   16.00
   2  -1   3 1007.90   16.20
   2  -1   3 1025.20   16.40
  -3   1  -3  845.02   14.40
  -3   1  -3  842.92   14.10
  -3   1  -3  851.51   14.00
   3  -1   3  845.22   14.20
   3  -1   3  873.11   14.30
   3  -1   3  870.71   14.30
   3  -1   3  847.72   14.00
  -4   1  -3  148.49    3.70
  -4   1  -3  151.48    3.60
   4  -1   3  151.68    3.60
   4  -1   3  145.09    3.80
   4  -1   3  141.59    3.90
  -5   1  -3   57.39    2.40
  -5   1  -3   54.09    2.20
   5  -1   3   54.19    2.60
   5  -1   3   55.09    2.10
  -6   1  -3   52.99    2.50
   6  -1   3   54.09    2.10
   6  -1   3   52.29    2.80
  -7   1  -3   91.59    3.40
   7  -1   3   95.29    4.10
  -8   1  -3    2.70    1.20
   8  -1   3    1.90    1.40
  -9   1  -3  333.27    8.50
  -9   1  -3  340.67    8.30
   9  -1   3  352.56    9.80
   9   0  -3   44.90    3.80
  -9   0   3   44.80    3.20
   8   0  -3    0.80    1.20
  -8   0   3    3.20    1.30
   7   0  -3   -0.30    1.10
  -7   0   3    1.80    1.10
   6   0  -3  510.55   11.00
  -6   0   3  514.75    9.90
   5   0  -3  123.69    4.20
  -5   0   3  132.09    3.50
   4   0  -3 1981.60   32.30
  -4   0   3 2003.70   30.40
  -4   0   3 2030.00   30.50
  -4   0   3 1942.21   31.30
   3   0  -3  241.88    5.30
   3   0  -3  243.08    4.40
  -3   0   3  238.58    4.70
  -3   0   3  239.88    4.40
   2   0  -3  603.34   10.50
   2   0  -3  629.44   10.10
   2   0  -3  604.94   10.10
  -2   0   3  616.64   10.10
  -2   0   3  623.74   10.10
  -2   0   3  627.24   10.40
  -2   0   3  618.64   10.10
   1   0  -3 1239.98   19.60
   1   0  -3 1273.57   19.80
   1   0  -3 1240.88   19.50
  -1   0   3 1253.37   19.80
  -1   0   3 1267.67   19.60
  -1   0   3 1261.07   19.60
   0   0  -3  359.96    6.20
   0   0  -3  378.66    6.50
   0   0   3  367.66    5.90
   0   0   3  372.06    6.00
   0   0   3  368.56    6.50
   0   0   3  372.26    6.30
  -1   0  -3 1317.47   20.80
  -1   0  -3 1315.87   20.90
  -1   0  -3 1364.66   21.10
   1   0   3 1341.07   21.20
   1   0   3 1360.56   20.80
   1   0   3 1286.97   20.80
   1   0   3 1379.86   21.20
   1   0   3 1360.86   20.90
  -2   0  -3 2241.88   35.30
  -2   0  -3 2270.87   36.30
  -2   0  -3 2239.38   36.00
   2   0   3 2337.47   35.30
   2   0   3 2318.67   35.50
   2   0   3 2272.17   35.10
   2   0   3 2291.17   35.10
   2   0   3 2249.57   35.50
   2   0   3 2395.16   35.80
  -3   0  -3  882.31   14.60
  -3   0  -3  905.41   14.40
  -3   0  -3  908.21   14.30
  -3   0  -3  884.71   14.50
   3   0   3  884.61   14.60
   3   0   3  897.41   14.50
   3   0   3  908.81   14.80
   3   0   3  870.81   14.60
   3   0   3  866.11   14.50
  -4   0  -3  805.12   13.60
  -4   0  -3  813.12   13.80
   4   0   3  820.62   13.60
   4   0   3  797.92   14.00
   4   0   3  827.22   13.40
  -5   0  -3   97.79    2.90
   5   0   3   96.69    2.40
   5   0   3  100.89    2.70
   5   0   3   94.19    3.20
  -6   0  -3   10.80    1.30
   6   0   3   13.20    1.60
   6   0   3   10.50    0.80
   6   0   3   13.20    1.10
  -7   0  -3  268.87    6.30
   7   0   3  269.07    5.30
   7   0   3  260.07    7.00
  -8   0  -3  167.18    5.00
   8   0   3  178.28    5.90
  -9   0  -3    6.80    1.60
   8  -1  -3   49.40    3.60
  -8   1   3   49.00    3.00
   7  -1  -3   58.19    3.50
  -7   1   3   53.59    2.90
   6  -1  -3    3.50    1.20
  -6   1   3    3.40    1.00
   5  -1  -3  584.14   11.90
   5  -1  -3  609.84    9.70
  -5   1   3  612.54    9.50
  -5   1   3  592.14   10.80
   4  -1  -3  253.97    6.00
   4  -1  -3  252.97    4.60
  -4   1   3  256.27    5.20
  -4   1   3  254.37    4.40
  -4   1   3  256.97    4.40
   3  -1  -3  580.04   10.60
   3  -1  -3  598.64    9.70
  -3   1   3  575.24   10.00
  -3   1   3  585.74    9.50
  -3   1   3  601.14    9.60
   2  -1  -3  954.60   15.90
   2  -1  -3  970.70   15.50
  -2   1   3  979.00   15.50
  -2   1   3  991.70   15.70
  -2   1   3  949.40   15.50
  -2   1   3  973.20   15.40
  -2   1   3  988.30   15.70
   1  -1  -3 1188.28   18.60
   1  -1  -3 1088.89   18.40
   1  -1  -3 1194.28   18.60
  -1   1   3 1191.48   18.40
  -1   1   3 1177.28   18.60
  -1   1   3 1194.98   18.40
  -1   1   3 1204.28   18.50
   0  -1  -3 1683.43   27.20
   0  -1  -3 1728.73   26.40
   0  -1  -3 1701.53   26.10
   0   1   3 1669.23   26.00
   0   1   3 1659.63   26.40
   0   1   3 1691.83   26.00
   0   1   3 1742.03   26.10
  -1  -1  -3 2152.88   32.50
  -1  -1  -3 1967.70   33.30
   1   1   3 2134.19   33.40
   1   1   3 2097.09   32.40
   1   1   3 2125.69   33.70
  -2  -1  -3 4533.15   74.09
  -2  -1  -3 4735.93   72.49
  -2  -1  -3 4809.32   72.99
  -2  -1  -3 4518.15   74.49
  -2  -1  -3 4792.02   72.69
   2   1   3 4722.33   74.49
   2   1   3 4588.24   74.09
   2   1   3 4777.12   74.39
  -3  -1  -3  111.59    2.50
  -3  -1  -3  110.99    2.60
  -3  -1  -3  113.29    2.80
  -3  -1  -3  109.59    2.60
  -3  -1  -3  113.09    2.60
   3   1   3  112.29    2.70
   3   1   3  107.29    2.60
  -4  -1  -3  811.52   14.10
  -4  -1  -3  861.41   14.10
  -4  -1  -3  862.01   14.20
  -4  -1  -3  867.01   13.80
   4   1   3  829.32   14.40
   4   1   3  845.02   13.90
   4   1   3  876.01   13.90
  -5  -1  -3    2.30    0.70
   5   1   3    3.60    0.60
   5   1   3    2.10    0.80
   5   1   3    2.50    0.50
  -6  -1  -3  459.85    8.90
   6   1   3  468.25    7.90
   6   1   3  466.35    8.10
   6   1   3  458.25    9.60
  -7  -1  -3  698.43   12.90
   7   1   3  691.93   11.50
  -8  -1  -3   62.79    3.00
   8   1   3   59.69    3.40
  -9  -1  -3   63.89    3.30
   9   1   3   66.09    3.90
   8  -2  -3    1.70    1.60
  -8   2   3    0.50    1.20
   7  -2  -3   67.59    3.90
  -7   2   3   66.49    3.20
   6  -2  -3   55.49    3.30
  -6   2   3   59.39    2.70
   5  -2  -3    5.20    1.30
   5  -2  -3    4.30    0.80
  -5   2   3    3.80    1.00
   4  -2  -3 1668.43   28.00
   4  -2  -3 1687.73   26.40
  -4   2   3 1717.53   26.10
  -4   2   3 1658.43   26.80
   3  -2  -3  597.04   10.00
   3  -2  -3  591.44   10.80
   3  -2  -3  595.64   10.90
  -3   2   3  585.14   10.10
  -3   2   3  597.44    9.70
  -3   2   3  589.94    9.70
   2  -2  -3  417.46    7.80
   2  -2  -3  426.26    7.40
   2  -2  -3  430.16    7.90
  -2   2   3  430.36    7.50
  -2   2   3  412.16    7.30
  -2   2   3  426.26    7.60
  -2   2   3  423.76    7.20
  -2   2   3  420.16    7.20
  -2   2   3  429.26    7.60
   1  -2  -3 1251.57   19.50
   1  -2  -3 1204.18   19.10
   1  -2  -3 1206.48   19.40
   1  -2  -3 1237.38   19.50
  -1   2   3 1248.78   19.40
  -1   2   3 1238.38   19.20
  -1   2   3 1233.18   19.20
  -1   2   3 1212.68   19.40
   0  -2  -3  464.85    7.70
   0  -2  -3  483.85    8.20
   0  -2  -3  475.25    7.80
   0   2   3  473.45    7.60
   0   2   3  478.85    8.10
   0   2   3  480.85    7.80
  -1  -2  -3  312.37    5.50
  -1  -2  -3  319.87    5.10
   1   2   3  323.97    5.80
   1   2   3  322.37    5.50
   1   2   3  315.17    5.20
  -2  -2  -3 3822.72   60.19
  -2  -2  -3 3682.83   58.39
  -2  -2  -3 3825.22   60.49
  -2  -2  -3 3823.12   60.89
   2   2   3 3729.63   58.99
   2   2   3 3659.03   58.59
   2   2   3 3789.02   58.39
  -3  -2  -3 4256.57   62.99
  -3  -2  -3 4131.69   66.09
  -3  -2  -3 4196.08   66.49
  -3  -2  -3 4236.08   62.89
   3   2   3 3942.11   64.79
   3   2   3 4064.69   62.79
   3   2   3 4057.99   65.79
  -4  -2  -3  332.67    6.30
  -4  -2  -3  335.77    6.50
  -4  -2  -3  340.37    6.50
  -4  -2  -3  345.07    6.20
   4   2   3  335.17    6.60
   4   2   3  334.67    6.10
  -5  -2  -3   58.69    1.70
  -5  -2  -3   56.89    2.10
   5   2   3   55.09    1.70
   5   2   3   54.69    2.30
   6   2   3   93.19    3.40
   6   2   3   92.09    2.30
   6   2   3   94.99    2.30
  -7  -2  -3   14.10    1.50
   7   2   3   15.50    1.80
   7   2   3   13.40    0.80
  -8  -2  -3  635.04   12.10
   8   2   3  614.04   13.10
  -9  -2  -3   25.50    2.30
   9   2   3   30.20    3.00
 -10  -2  -3   16.20    2.10
  10   2   3   14.60    2.40
   7  -3  -3    3.40    1.60
  -7   3   3    2.60    1.20
   6  -3  -3   10.10    1.90
  -6   3   3   12.40    1.60
   5  -3  -3  235.38    6.50
  -5   3   3  240.98    4.70
  -5   3   3  231.38    5.40
   4  -3  -3  201.28    5.60
   4  -3  -3  219.28    5.60
  -4   3   3  207.98    4.70
  -4   3   3  211.78    4.30
   3  -3  -3  366.66    7.70
   3  -3  -3  359.76    7.60
   3  -3  -3  388.66    7.40
  -3   3   3  369.66    6.90
  -3   3   3  376.06    6.70
   2  -3  -3 1253.27   20.20
   2  -3  -3 1259.07   20.60
   2  -3  -3 1255.37   20.70
  -2   3   3 1267.87   19.90
  -2   3   3 1255.87   20.00
  -2   3   3 1263.07   20.00
   1  -3  -3   24.70    1.30
   1  -3  -3   25.10    1.00
   1  -3  -3   26.20    1.30
   1  -3  -3   26.10    1.30
  -1   3   3   25.90    1.30
  -1   3   3   26.60    1.00
  -1   3   3   26.90    1.00
  -1   3   3   27.10    1.20
  -1   3   3   25.60    1.10
   0  -3  -3  549.35    9.30
   0  -3  -3  582.24    9.70
   0  -3  -3  563.34    9.10
   0   3   3  565.54    9.30
   0   3   3  555.54    9.50
   0   3   3  564.94    9.20
   0   3   3  574.64    9.60
  -1  -3  -3   10.90    0.70
  -1  -3  -3   11.20    0.80
  -1  -3  -3   12.30    0.60
   1   3   3   11.40    0.80
   1   3   3   10.80    0.70
   1   3   3   11.40    0.80
   1   3   3   11.60    0.70
  -2  -3  -3    2.00    0.50
  -2  -3  -3    2.00    0.50
  -2  -3  -3    2.40    0.40
  -2  -3  -3    1.40    0.40
   2   3   3    1.90    0.50
   2   3   3    1.60    0.40
   2   3   3    1.70    0.40
   2   3   3    1.30    0.50
  -3  -3  -3 1094.39   17.60
  -3  -3  -3 1066.29   17.30
  -3  -3  -3 1114.49   17.50
  -3  -3  -3 1077.79   17.40
   3   3   3 1103.09   17.30
   3   3   3 1093.19   17.40
   3   3   3 1078.99   17.50
   3   3   3 1079.79   17.50
  -4  -3  -3 1860.11   28.80
  -4  -3  -3 1826.22   28.90
  -4  -3  -3 1822.52   28.80
  -4  -3  -3 1838.52   29.20
   4   3   3 1854.91   28.70
   4   3   3 1824.02   29.20
  -5  -3  -3    4.50    0.60
   5   3   3    5.00    0.60
   5   3   3    5.40    0.90
   5   3   3    4.90    0.60
  -6  -3  -3 1152.08   18.10
  -6  -3  -3 1131.49   18.90
   6   3   3 1115.99   17.90
   6   3   3 1143.79   17.90
   6   3   3 1106.39   19.60
  -7  -3  -3 1091.39   18.80
  -7  -3  -3 1110.49   17.50
   7   3   3 1105.69   19.80
   7   3   3 1108.99   17.40
   7   3   3 1101.99   17.40
  -8  -3  -3   64.09    3.00
   8   3   3   66.29    3.40
  -9  -3  -3   86.79    3.70
   9   3   3   79.99    4.10
 -10  -3  -3   35.20    2.90
  10   3   3   32.00    3.20
   7  -4  -3  298.57    8.90
  -7   4   3  272.87    6.90
   6  -4  -3  157.98    5.80
  -6   4   3  150.78    4.40
   5  -4  -3   18.10    2.10
   5  -4  -3   21.60    2.30
  -5   4   3   21.80    1.80
  -5   4   3   22.80    1.50
   4  -4  -3  449.46    9.70
   4  -4  -3  453.45    9.90
  -4   4   3  455.55    8.50
  -4   4   3  461.05    8.40
   3  -4  -3  575.94   11.20
   3  -4  -3  596.64   11.40
  -3   4   3  585.94   10.20
  -3   4   3  594.44   10.30
   2  -4  -3    5.10    0.90
   2  -4  -3    3.90    0.90
  -2   4   3    4.60    0.70
  -2   4   3    5.20    0.70
   1  -4  -3 1141.59   18.70
  -1   4   3 1148.19   17.90
  -1   4   3 1145.69   18.50
  -1   4   3 1143.69   18.50
  -1   4   3 1135.39   18.00
   0  -4  -3   71.59    1.60
   0  -4  -3   70.39    2.00
   0   4   3   72.49    2.20
   0   4   3   69.69    1.70
   0   4   3   72.19    2.10
  -1  -4  -3  311.87    5.30
  -1  -4  -3  309.47    5.60
   1   4   3  316.07    5.40
   1   4   3  303.07    5.70
   1   4   3  306.77    5.90
  -2  -4  -3  473.95    8.40
  -2  -4  -3  471.75    8.10
  -2  -4  -3  477.85    7.90
   2   4   3  488.55    7.90
   2   4   3  466.75    8.40
   2   4   3  487.85    8.00
   2   4   3  468.05    8.40
   2   4   3  470.05    8.20
  -3  -4  -3 1250.27   20.50
  -3  -4  -3 1257.97   19.60
  -3  -4  -3 1216.98   19.80
  -3  -4  -3 1229.88   20.00
  -3  -4  -3 1252.67   19.50
   3   4   3 1212.28   19.80
   3   4   3 1228.78   19.80
   3   4   3 1245.88   19.50
  -4  -4  -3 1162.78   18.90
  -4  -4  -3 1157.18   18.80
  -4  -4  -3 1166.68   18.60
   4   4   3 1150.98   18.60
   4   4   3 1171.28   19.10
   4   4   3 1164.98   18.70
  -5  -4  -3  719.83   12.40
  -5  -4  -3  721.83   12.60
  -5  -4  -3  739.33   12.40
   5   4   3  735.23   12.20
   5   4   3  733.23   13.00
   5   4   3  735.33   12.10
  -6  -4  -3  328.17    6.30
  -6  -4  -3  332.37    6.70
   6   4   3  324.57    6.00
   6   4   3  332.27    6.00
   6   4   3  318.77    7.20
  -7  -4  -3  391.46    7.10
  -7  -4  -3  385.66    7.90
   7   4   3  387.36    6.80
   7   4   3  378.76    8.60
   7   4   3  387.46    6.80
  -8  -4  -3  450.35    9.30
   8   4   3  456.05   10.20
  -9  -4  -3   81.29    3.50
   9   4   3   72.79    3.90
 -10  -4  -3  216.48    6.20
  10   4   3  217.48    7.20
   6  -5  -3    2.50    1.50
  -6   5   3    2.80    1.10
   5  -5  -3  259.47    7.60
   5  -5  -3  280.17    7.70
  -5   5   3  260.67    6.00
  -5   5   3  276.67    6.00
   4  -5  -3  142.59    4.70
   4  -5  -3  127.99    4.70
  -4   5   3  137.39    3.70
  -4   5   3  126.79    3.60
   3  -5  -3  231.68    6.00
   3  -5  -3  223.58    6.00
  -3   5   3  235.68    5.20
  -3   5   3  236.98    4.90
   2  -5  -3  398.96    8.40
   2  -5  -3  402.36    8.20
  -2   5   3  404.56    7.70
  -2   5   3  403.46    7.10
   1  -5  -3   10.10    1.10
  -1   5   3   12.90    0.80
  -1   5   3   12.90    1.20
  -1   5   3   11.40    0.80
   0  -5  -3   21.60    0.80
   0  -5  -3   21.20    1.30
   0   5   3   19.20    1.30
   0   5   3   22.00    0.80
  -1  -5  -3  202.58    3.50
  -1  -5  -3  195.08    4.20
   1   5   3  201.98    3.70
   1   5   3  192.38    4.40
   1   5   3  209.38    4.50
  -2  -5  -3  401.46    7.40
   2   5   3  417.76    6.90
   2   5   3  402.36    7.60
   2   5   3  406.96    6.80
  -3  -5  -3  266.07    4.80
  -3  -5  -3  267.77    4.90
  -3  -5  -3  261.47    5.30
   3   5   3  260.17    5.30
   3   5   3  266.87    5.30
   3   5   3  259.17    4.80
  -4  -5  -3  496.15    8.60
  -4  -5  -3  510.85    8.80
  -4  -5  -3  506.55    9.20
   4   5   3  502.85    8.90
   4   5   3  499.05    8.90
  -5  -5  -3  313.57    6.10
  -5  -5  -3  300.37    5.90
   5   5   3  294.17    5.80
   5   5   3  315.77    5.90
   5   5   3  299.77    6.60
  -6  -5  -3  427.76    8.00
  -6  -5  -3  415.56    8.20
   6   5   3  424.06    7.60
   6   5   3  416.46    8.80
   6   5   3  423.46    7.60
  -7  -5  -3   25.90    1.90
   7   5   3   25.20    2.10
   7   5   3   28.90    1.30
  -8  -5  -3   71.39    3.00
   8   5   3   76.49    2.30
   8   5   3   70.49    3.50
  -9  -5  -3  182.08    5.20
   9   5   3  181.18    6.10
 -10  -5  -3  118.79    4.50
  10   5   3  126.79    5.30
   5  -6  -3   57.39    3.80
   5  -6  -3   66.89    3.90
  -5   6   3   58.49    2.60
  -5   6   3   60.59    2.70
   4  -6  -3   65.59    3.60
   4  -6  -3   71.29    3.60
  -4   6   3   67.79    2.50
  -4   6   3   66.49    2.70
   3  -6  -3   76.89    3.40
   3  -6  -3   80.49    3.60
  -3   6   3   77.09    2.50
   2  -6  -3  196.98    5.40
   2  -6  -3  196.78    5.20
  -2   6   3  199.38    4.90
  -2   6   3  197.28    4.10
   1  -6  -3 1010.10   17.60
  -1   6   3 1035.40   16.20
  -1   6   3 1033.50   17.40
  -1   6   3 1009.50   16.20
   0  -6  -3  109.89    3.20
   0   6   3  111.89    3.30
   0   6   3  112.59    2.40
   0   6   3  111.49    2.20
  -1  -6  -3  287.67    4.70
  -1  -6  -3  278.77    5.80
   1   6   3  280.27    4.80
   1   6   3  283.57    6.00
   1   6   3  283.27    4.90
  -2  -6  -3    5.10    0.50
  -2  -6  -3    5.40    0.90
   2   6   3    4.80    0.90
   2   6   3    3.90    0.40
  -3  -6  -3  477.15    8.10
  -3  -6  -3  482.45    8.80
   3   6   3  480.75    8.00
   3   6   3  487.05    9.00
  -4  -6  -3  161.18    4.00
  -4  -6  -3  160.48    3.50
  -4  -6  -3  157.48    3.40
   4   6   3  158.98    3.90
   4   6   3  157.08    3.30
  -5  -6  -3 1407.16   22.40
  -5  -6  -3 1364.56   23.00
  -5  -6  -3 1409.06   22.20
   5   6   3 1389.56   22.60
  -6  -6  -3    4.90    0.90
  -6  -6  -3    5.90    1.10
  -6  -6  -3    7.30    1.10
   6   6   3    7.90    1.30
   6   6   3    6.20    0.90
  -7  -6  -3  150.88    4.20
  -7  -6  -3  149.09    4.00
   7   6   3  151.78    4.70
   7   6   3  150.68    3.60
  -8  -6  -3 1034.80   17.90
   8   6   3 1028.70   19.20
   8   6   3 1039.10   17.00
  -9  -6  -3  298.57    7.10
   9   6   3  310.77    8.30
 -10  -6  -3  144.79    4.80
  10   6   3  127.59    5.40
   4  -7  -3    1.90    1.40
   4  -7  -3    1.40    1.40
  -4   7   3    2.40    1.10
   3  -7  -3  377.96    8.90
   3  -7  -3  367.56    9.00
  -3   7   3  358.46    7.90
   2  -7  -3  517.85   10.90
   2  -7  -3  508.45   10.60
   1  -7  -3   36.40    2.30
  -1   7   3   38.30    2.20
  -1   7   3   36.30    1.30
   0  -7  -3  634.24   11.70
   0   7   3  620.94   11.80
   0   7   3  642.54   10.10
  -1  -7  -3  429.56    8.30
   1   7   3  424.06    8.50
  -2  -7  -3   43.90    2.10
  -2  -7  -3   44.10    1.00
   2   7   3   41.90    1.10
   2   7   3   45.50    2.10
  -3  -7  -3  646.64   11.60
  -3  -7  -3  646.54   10.30
   3   7   3  635.84   10.30
   3   7   3  647.44   11.70
  -4  -7  -3 1396.16   21.80
  -4  -7  -3 1384.76   22.90
   4   7   3 1388.06   21.70
   4   7   3 1374.06   22.90
  -5  -7  -3   79.39    2.90
  -5  -7  -3   79.89    2.40
  -5  -7  -3   80.89    2.30
   5   7   3   79.29    2.80
  -6  -7  -3   37.10    1.70
  -6  -7  -3   33.20    2.10
  -6  -7  -3   34.30    1.80
   6   7   3   36.20    1.80
  -7  -7  -3   40.60    2.20
  -7  -7  -3   41.90    2.10
  -7  -7  -3   48.70    2.60
   7   7   3   43.70    2.70
   7   7   3   42.90    2.00
  -8  -7  -3   -0.20    0.90
  -8  -7  -3    0.20    1.00
   8   7   3   -0.50    1.00
   8   7   3    0.70    0.70
  -9  -7  -3   98.69    3.80
  -9  -7  -3   97.69    3.60
   9   7   3  109.09    4.60
 -10  -7  -3  103.19    4.00
 -10  -7  -3   92.99    4.00
  10   7   3   98.89    4.70
   3  -8  -3  153.68    5.40
   3  -8  -3  142.39    5.40
  -3   8   3  144.99    4.80
   2  -8  -3   48.10    3.00
   2  -8  -3   48.40    3.10
  -2   8   3   46.00    2.70
   1  -8  -3  580.14   11.70
   0  -8  -3  359.76    7.80
   0   8   3  354.06    7.90
  -1  -8  -3   92.29    3.20
   1   8   3  100.09    3.50
  -2  -8  -3   46.20    2.30
   2   8   3   46.80    2.40
  -3  -8  -3  205.88    5.10
   3   8   3  199.18    5.20
  -4  -8  -3   83.29    2.00
  -4  -8  -3   77.39    3.00
   4   8   3   75.69    3.00
  -5  -8  -3  479.05    8.40
  -5  -8  -3  493.35    9.70
  -5  -8  -3  488.85    8.50
   5   8   3  479.05    9.60
  -6  -8  -3   34.40    2.20
  -6  -8  -3   37.60    1.70
  -6  -8  -3   36.60    1.80
   6   8   3   34.90    2.10
  -7  -8  -3  160.68    4.10
  -7  -8  -3  164.78    4.30
  -7  -8  -3  161.98    5.00
   7   8   3  171.08    4.50
  -8  -8  -3  410.46    8.30
  -8  -8  -3  401.86    9.20
  -8  -8  -3  414.06    8.50
   8   8   3  409.96    8.20
  -9  -8  -3   82.89    3.40
  -9  -8  -3   75.39    3.70
  -9  -8  -3   74.79    3.20
   9   8   3   86.79    4.20
 -10  -8  -3  134.69    5.20
 -10  -8  -3  128.99    4.60
 -10  -8  -3  135.59    4.60
   2  -9  -3  177.48    5.80
   2  -9  -3  173.38    6.00
  -2   9   3  169.08    5.40
   1  -9  -3   43.40    2.80
  -1   9   3   41.80    2.70
   0  -9  -3   65.09    3.10
  -1  -9  -3    5.70    1.30
   1   9   3    2.40    1.20
  -2  -9  -3  259.87    6.40
   2   9   3  270.57    6.70
  -3  -9  -3  672.13   12.70
   3   9   3  673.63   13.00
  -4  -9  -3  277.67    6.70
   4   9   3  282.17    6.80
  -5  -9  -3   56.49    2.80
   5   9   3   52.39    2.70
  -6  -9  -3  141.69    4.40
  -6  -9  -3  128.49    3.40
  -6  -9  -3  125.49    3.30
   6   9   3  129.59    4.20
  -7  -9  -3   72.19    3.40
  -7  -9  -3   72.59    2.60
  -7  -9  -3   68.09    2.40
   7   9   3   66.69    2.90
  -8  -9  -3   22.80    2.30
  -8  -9  -3   20.70    1.90
  -8  -9  -3   22.40    1.80
  -9  -9  -3  205.08    5.30
  -9  -9  -3  211.88    5.60
  -9  -9  -3  214.48    6.40
   0 -10  -3   26.40    2.50
   0  10   3   29.70    2.70
  -1 -10  -3   29.90    2.50
   1  10   3   28.60    2.50
  -2 -10  -3  253.17    6.50
  -3 -10  -3   76.79    3.40
  -4 -10  -3   43.20    2.70
  -5 -10  -3  841.42   15.50
   5  10   3  801.72   15.50
  -6 -10  -3  135.19    4.60
  -7 -10  -3   67.79    3.40
  -8 -10  -3   53.29    3.20
   8  10   3   54.49    2.80
  -3 -11  -3    1.40    1.20
   3  11   3   -0.70    1.10
  -4 -11  -3   14.30    1.90
   4  11   3   17.30    2.20
  -5 -11  -3   32.90    2.70
   5  11   3   30.10    2.60
  -6 -11  -3  228.18    6.50
   6  11   3  214.98    6.30
   4   9  -4    1.60    1.30
  -4  -9   4    4.70    1.50
   3   9  -4   44.30    3.40
  -3  -9   4   49.70    3.10
   2   9  -4   -0.80    1.20
  -2  -9   4    0.90    1.20
   7   8  -4  150.88    6.60
  -7  -8   4  151.38    5.40
   6   8  -4  122.49    4.70
  -6  -8   4  123.29    4.60
   5   8  -4  314.97    8.20
  -5  -8   4  315.87    7.80
   4   8  -4   98.09    4.30
  -4  -8   4   97.19    3.90
   3   8  -4    2.00    1.30
  -3  -8   4   -0.80    1.00
   2   8  -4   83.79    4.20
  -2  -8   4   82.59    3.50
   1   8  -4  103.19    4.70
  -1  -8   4  109.59    3.90
   0   8  -4   18.60    2.50
   0  -8   4   25.40    2.30
  -1   8  -4  445.66   11.20
   1  -8   4  449.26    9.90
  -8  -7   4   50.69    2.70
  -8  -7   4   59.79    3.70
  -7  -7   4   22.50    1.80
  -7  -7   4   24.30    2.50
   6   7  -4  422.66    9.50
  -6  -7   4  431.66    9.60
  -6  -7   4  419.36    8.10
   5   7  -4    1.00    1.00
  -5  -7   4   -1.40    0.50
  -5  -7   4   -0.40    1.00
   4   7  -4  162.98    5.30
  -4  -7   4  165.88    4.90
  -4  -7   4  173.48    4.70
   3   7  -4  168.18    5.50
  -3  -7   4  167.78    4.80
   2   7  -4   24.90    2.60
  -2  -7   4   21.30    2.00
   1   7  -4    4.30    1.40
  -1  -7   4    3.40    1.10
   0   7  -4   55.59    3.30
   0  -7   4   55.09    2.70
  -1   7  -4  103.89    4.60
   1  -7   4   94.69    3.70
  -2   7  -4   73.19    4.10
   2  -7   4   74.89    3.50
  -3   7  -4   65.09    4.00
   3  -7   4   57.69    3.30
   3  -7   4   64.79    3.60
   8   6  -4  339.47    9.00
  -8  -6   4  334.27    8.70
  -8  -6   4  331.77    7.50
   7   6  -4  598.24   12.90
  -7  -6   4  618.94   12.70
  -7  -6   4  586.74   11.20
  -7  -6   4  589.54   11.40
   6   6  -4    0.60    0.90
  -6  -6   4   -0.30    1.00
  -6  -6   4    1.00    0.80
   5   6  -4  229.98    6.10
  -5  -6   4  229.08    4.90
  -5  -6   4  245.78    6.20
   4   6  -4  149.88    4.70
  -4  -6   4  148.49    3.40
  -4  -6   4  148.59    4.40
   3   6  -4   13.50    1.80
  -3  -6   4   11.60    0.90
  -3  -6   4   11.70    1.40
   2   6  -4  149.69    4.80
  -2  -6   4  151.78    2.90
  -2  -6   4  143.29    4.10
   1   6  -4  144.29    4.90
  -1  -6   4  146.19    2.70
  -1  -6   4  148.99    4.10
   0   6  -4    7.10    1.50
   0  -6   4    8.80    1.30
  -1   6  -4  108.89    4.30
   1  -6   4  111.89    3.70
  -2   6  -4   12.20    1.90
   2  -6   4   15.10    1.70
  -3   6  -4  123.79    4.90
   3  -6   4  115.69    4.40
   3  -6   4  118.69    4.30
  -4   6  -4  300.37    8.30
   4  -6   4  296.07    8.00
   4  -6   4  302.47    7.90
   9   5  -4   77.29    4.40
  -9  -5   4   79.19    3.60
   8   5  -4   52.99    3.50
  -8  -5   4   53.19    2.80
   7   5  -4    8.60    1.70
  -7  -5   4   11.20    1.40
  -7  -5   4   14.90    1.40
   6   5  -4  246.28    6.60
   6   5  -4  233.78    5.70
  -6  -5   4  245.68    6.40
  -6  -5   4  243.48    5.50
   5   5  -4   21.90    1.80
  -5  -5   4   19.50    1.40
  -5  -5   4   21.00    2.00
   4   5  -4  440.16    9.00
  -4  -5   4  431.66    7.80
  -4  -5   4  432.76    8.80
   3   5  -4  131.39    4.10
  -3  -5   4  133.79    2.90
  -3  -5   4  125.69    3.70
   2   5  -4   35.60    2.20
  -2  -5   4   36.10    1.20
  -2  -5   4   36.20    1.30
  -2  -5   4   33.40    1.90
   1   5  -4  370.66    6.30
  -1  -5   4  380.36    6.50
  -1  -5   4  378.56    6.50
  -1  -5   4  374.66    7.50
   0   5  -4   79.09    1.90
   0   5  -4   79.09    3.30
   0  -5   4   77.69    2.70
   0  -5   4   78.59    1.90
  -1   5  -4  116.99    2.60
  -1   5  -4  103.39    4.00
   1  -5   4  109.29    3.40
  -2   5  -4  173.68    5.40
  -2   5  -4  185.38    3.90
   2  -5   4  174.78    4.70
  -3   5  -4  321.97    6.30
  -3   5  -4  323.77    8.10
   3  -5   4  312.87    7.50
   3  -5   4  313.67    7.30
  -4   5  -4    1.90    1.30
   4  -5   4    4.90    1.40
   4  -5   4    3.40    1.20
  -5   5  -4   22.70    2.50
   5  -5   4   24.60    2.60
   5  -5   4   21.00    2.40
   9   4  -4    2.80    1.60
  -9  -4   4    1.80    1.30
   8   4  -4   30.30    2.90
  -8  -4   4   28.80    2.30
   7   4  -4   66.99    3.60
  -7  -4   4   66.69    2.80
   6   4  -4  155.28    5.00
  -6  -4   4  152.18    3.90
  -6  -4   4  148.09    4.00
   5   4  -4  869.81   15.90
   5   4  -4  855.11   15.00
  -5  -4   4  856.41   14.60
   4   4  -4  178.78    4.90
   4   4  -4  192.08    4.70
  -4  -4   4  183.98    4.80
  -4  -4   4  183.88    4.00
   3   4  -4   32.80    1.90
  -3  -4   4   31.10    1.20
  -3  -4   4   30.00    1.70
   2   4  -4 1212.68   20.50
   2   4  -4 1191.48   18.90
  -2  -4   4 1210.38   19.80
  -2  -4   4 1222.18   18.90
  -2  -4   4 1178.58   19.00
   1   4  -4  981.80   15.60
   1   4  -4  984.70   17.30
  -1  -4   4 1007.80   15.80
  -1  -4   4  975.70   16.40
   0   4  -4  118.59    2.50
   0   4  -4  117.09    3.80
   0  -4   4  117.29    2.60
   0  -4   4  113.19    3.10
   0  -4   4  117.99    2.60
  -1   4  -4 1235.18   21.50
   1  -4   4 1241.38   20.30
   1  -4   4 1249.38   19.50
  -2   4  -4  503.45   10.40
  -2   4  -4  511.25    8.90
   2  -4   4  503.25    9.50
  -3   4  -4   58.19    2.20
  -3   4  -4   61.89    3.00
   3  -4   4   60.69    2.60
   3  -4   4   61.79    2.70
  -4   4  -4    0.70    0.80
  -4   4  -4    1.50    0.70
  -4   4  -4    2.50    1.10
   4  -4   4    1.50    1.00
   4  -4   4    1.10    0.90
  -5   4  -4    4.40    1.30
  -5   4  -4    5.00    1.10
  -5   4  -4    3.60    1.00
   5  -4   4    3.70    1.30
   5  -4   4    1.30    1.10
  -6   4  -4  268.77    6.50
  -6   4  -4  267.27    7.20
  -6   4  -4  276.27    6.30
   6  -4   4  265.47    6.90
   6  -4   4  268.97    7.50
   6  -4   4  260.27    7.60
   9   3  -4  136.89    5.80
  -9  -3   4  132.79    4.80
   8   3  -4   16.30    2.30
  -8  -3   4   14.70    1.80
   7   3  -4   93.69    4.20
  -7  -3   4   96.59    3.50
   6   3  -4  505.15   10.90
  -6  -3   4  516.15    9.00
  -6  -3   4  502.35    9.70
   5   3  -4   98.29    3.70
  -5  -3   4  109.69    3.10
  -5  -3   4  103.19    2.90
   4   3  -4 1023.60   17.90
   4   3  -4 1046.20   17.30
  -4  -3   4 1024.20   17.20
  -4  -3   4 1023.80   16.80
   3   3  -4  305.07    6.40
   3   3  -4  297.27    6.30
  -3  -3   4  306.67    6.30
  -3  -3   4  305.97    5.60
   2   3  -4  604.94    9.90
   2   3  -4  596.54   11.00
  -2  -3   4  611.14   10.30
  -2  -3   4  577.84   10.40
   1   3  -4   13.30    0.80
   1   3  -4   13.70    1.40
  -1  -3   4   14.20    0.90
  -1  -3   4   14.70    1.10
   0   3  -4   19.10    1.50
   0   3  -4   24.10    1.00
   0  -3   4   20.30    1.00
   0  -3   4   18.90    1.20
   0  -3   4   20.90    1.00
  -1   3  -4    0.80    0.70
  -1   3  -4    0.90    0.40
   1  -3   4    0.00    0.40
   1  -3   4    0.60    0.50
   1  -3   4    1.00    0.50
  -2   3  -4  356.56    7.70
  -2   3  -4  362.36    6.70
   2  -3   4  356.56    7.00
  -3   3  -4  870.01   14.70
  -3   3  -4  865.71   15.70
  -3   3  -4  872.51   14.50
   3  -3   4  857.21   15.20
   3  -3   4  879.61   15.10
  -4   3  -4   66.59    2.50
  -4   3  -4   67.89    2.40
  -4   3  -4   69.99    3.00
   4  -3   4   69.09    2.90
   4  -3   4   68.09    2.90
  -5   3  -4  116.69    3.50
  -5   3  -4  117.39    4.00
  -5   3  -4  112.59    3.60
   5  -3   4  115.59    4.10
   5  -3   4  111.79    4.10
   5  -3   4  115.49    3.90
  -6   3  -4   34.50    2.30
  -6   3  -4   36.10    2.20
   6  -3   4   35.60    2.70
   6  -3   4   38.10    2.80
   6  -3   4   35.60    2.30
  -7   3  -4   11.70    1.70
  -7   3  -4   11.40    1.50
   7  -3   4   15.70    2.30
   9   2  -4   19.20    2.60
  -9  -2   4   24.50    2.40
   8   2  -4   46.60    3.40
  -8  -2   4   44.40    2.80
   7   2  -4  323.77    8.40
  -7  -2   4  312.67    7.20
   6   2  -4   13.70    1.80
  -6  -2   4   19.00    1.00
  -6  -2   4   17.80    1.60
   5   2  -4 1194.08   20.80
  -5  -2   4 1187.48   19.20
  -5  -2   4 1200.58   18.80
  -5  -2   4 1191.08   19.70
   4   2  -4  118.69    3.80
  -4  -2   4  129.69    3.10
  -4  -2   4  127.09    2.90
  -4  -2   4  127.09    3.10
   3   2  -4  372.76    7.30
  -3  -2   4  363.66    7.00
  -3  -2   4  367.76    6.80
  -3  -2   4  373.06    6.70
   2   2  -4  445.36    7.50
   2   2  -4  425.06    8.20
   2   2  -4  442.46    8.00
  -2  -2   4  426.16    7.80
  -2  -2   4  441.46    8.20
  -2  -2   4  440.56    8.10
   1   2  -4   51.09    2.10
   1   2  -4   49.30    1.50
  -1  -2   4   50.19    1.60
  -1  -2   4   47.90    1.70
  -1  -2   4   51.69    1.50
   0   2  -4  420.06    8.30
   0   2  -4  435.96    7.50
   0   2  -4  426.86    7.30
   0  -2   4  428.46    7.40
   0  -2   4  435.46    7.40
  -1   2  -4 2363.76   36.40
  -1   2  -4 2351.76   36.40
  -1   2  -4 2339.87   37.40
   1  -2   4 2323.57   36.30
   1  -2   4 2335.37   36.20
   1  -2   4 2394.26   36.30
  -2   2  -4 1084.69   18.50
  -2   2  -4 1081.59   17.60
   2  -2   4 1091.29   17.60
  -3   2  -4  228.28    4.90
  -3   2  -4  232.58    4.90
  -3   2  -4  236.18    5.60
   3  -2   4  237.58    5.20
   3  -2   4  236.78    5.10
  -4   2  -4  777.62   14.00
  -4   2  -4  769.32   13.40
  -4   2  -4  760.22   13.20
   4  -2   4  772.42   13.80
   4  -2   4  773.42   13.80
   4  -2   4  779.82   13.90
  -5   2  -4  247.48    5.80
  -5   2  -4  250.27    5.60
   5  -2   4  249.48    6.20
   5  -2   4  254.57    6.30
   5  -2   4  247.68    5.90
  -6   2  -4   33.70    2.10
  -6   2  -4   27.50    2.10
   6  -2   4   25.20    1.80
   6  -2   4   28.50    2.50
   6  -2   4   27.70    2.20
  -7   2  -4   35.50    2.50
  -7   2  -4   33.90    2.30
   7  -2   4   33.80    2.90
  -8   2  -4    1.50    1.10
  -8   2  -4   -0.60    1.00
   8  -2   4    1.40    1.40
   9   1  -4   63.39    4.20
  -9  -1   4   63.69    3.60
   8   1  -4    4.10    1.60
  -8  -1   4    6.50    1.50
   7   1  -4  136.09    5.10
  -7  -1   4  125.09    4.10
   6   1  -4  926.21   17.40
  -6  -1   4  923.11   16.20
   5   1  -4   96.79    3.60
  -5  -1   4  102.29    3.10
  -5  -1   4  100.79    2.30
  -5  -1   4  102.09    2.20
   4   1  -4  725.23   13.30
  -4  -1   4  737.43   12.10
  -4  -1   4  705.43   12.40
  -4  -1   4  740.23   11.90
   3   1  -4    7.20    0.90
  -3  -1   4   11.70    0.80
  -3  -1   4    9.80    0.90
   2   1  -4  165.38    3.40
   2   1  -4  164.88    3.80
  -2  -1   4  171.28    3.80
  -2  -1   4  169.88    3.80
  -2  -1   4  172.18    3.70
   1   1  -4  100.89    2.30
   1   1  -4  104.89    2.40
  -1  -1   4   99.39    2.30
  -1  -1   4  101.59    2.70
  -1  -1   4   97.99    2.30
  -1  -1   4  101.19    2.50
  -1  -1   4   99.39    2.70
   0   1  -4  442.26    7.60
   0   1  -4  446.36    7.50
   0  -1   4  451.35    7.40
   0  -1   4  461.25    7.70
   0  -1   4  445.46    7.60
   0  -1   4  448.66    8.20
  -1   1  -4   21.10    1.40
  -1   1  -4   22.70    0.90
  -1   1  -4   19.50    1.10
   1  -1   4   22.10    1.40
   1  -1   4   20.40    0.90
   1  -1   4   19.90    1.10
   1  -1   4   21.30    1.10
  -2   1  -4   36.40    1.80
  -2   1  -4   39.00    1.50
  -2   1  -4   38.30    1.30
  -2   1  -4   38.80    1.60
   2  -1   4   39.00    1.40
   2  -1   4   37.00    1.40
   2  -1   4   38.00    1.50
   2  -1   4   42.20    1.50
   2  -1   4   36.10    1.70
  -3   1  -4  946.71   15.50
  -3   1  -4  934.51   15.60
   3  -1   4  959.20   15.60
   3  -1   4  937.81   15.60
   3  -1   4  925.61   15.90
  -4   1  -4    8.60    1.10
  -4   1  -4    9.20    1.00
   4  -1   4   11.20    1.20
   4  -1   4    9.00    1.10
   4  -1   4   11.30    1.20
  -5   1  -4  852.61   14.50
  -5   1  -4  828.52   14.70
   5  -1   4  830.82   14.60
   5  -1   4  840.52   15.00
   5  -1   4  826.12   15.10
  -6   1  -4  146.99    4.10
  -6   1  -4  150.18    4.40
   6  -1   4  146.99    4.70
   6  -1   4  146.99    4.00
  -7   1  -4   25.70    2.00
  -7   1  -4   27.80    2.20
   7  -1   4   27.70    1.80
   7  -1   4   30.20    2.50
  -8   1  -4  122.29    4.50
  -8   1  -4  133.99    4.40
   8  -1   4  115.39    5.00
   8   0  -4  113.39    5.10
  -8   0   4  103.89    4.10
   7   0  -4  327.37    8.60
  -7   0   4  310.77    7.30
   6   0  -4  185.88    5.70
  -6   0   4  181.78    4.80
   5   0  -4  562.24   11.30
  -5   0   4  557.04    9.00
  -5   0   4  552.94   10.20
  -5   0   4  538.75    8.90
  -5   0   4  558.14    9.10
   4   0  -4  381.06    8.10
  -4   0   4  395.66    6.90
  -4   0   4  399.46    6.80
  -4   0   4  392.16    7.40
   3   0  -4  369.56    7.40
   3   0  -4  381.06    6.70
  -3   0   4  374.76    6.70
  -3   0   4  367.66    6.80
   2   0  -4  482.45    8.40
   2   0  -4  506.95    8.60
   2   0  -4  506.55    8.90
  -2   0   4  489.25    8.70
  -2   0   4  502.25    8.70
   1   0  -4  197.28    4.10
   1   0  -4  199.38    3.80
   1   0  -4  191.88    3.80
  -1   0   4  193.68    3.80
  -1   0   4  200.28    3.80
  -1   0   4  196.28    4.10
   0   0  -4  374.16    6.80
   0   0  -4  370.96    6.40
   0   0   4  359.36    6.80
   0   0   4  369.36    6.50
   0   0   4  375.36    6.10
   0   0   4  364.86    5.90
  -1   0  -4   55.79    1.70
  -1   0  -4   52.99    1.20
   1   0   4   52.69    1.90
   1   0   4   56.59    1.60
   1   0   4   54.89    1.20
   1   0   4   56.29    1.90
   1   0   4   56.09    1.60
  -2   0  -4   16.80    1.10
  -2   0  -4   17.90    0.70
  -2   0  -4   20.10    1.20
   2   0   4   17.90    0.80
   2   0   4   17.60    1.10
   2   0   4   16.90    1.10
   2   0   4   17.50    1.20
   2   0   4   19.10    1.10
   2   0   4   18.50    0.90
  -3   0  -4 1417.36   22.80
  -3   0  -4 1442.76   22.30
  -3   0  -4 1434.76   22.70
   3   0   4 1423.86   23.00
   3   0   4 1412.76   22.60
   3   0   4 1415.36   22.50
  -4   0  -4 1626.24   26.30
  -4   0  -4 1631.84   26.10
   4   0   4 1631.14   26.20
   4   0   4 1649.44   26.30
  -5   0  -4  156.78    4.10
  -5   0  -4  162.18    4.00
   5   0   4  162.28    4.00
   5   0   4  157.68    4.30
  -6   0  -4   89.79    3.30
  -6   0  -4   92.59    3.10
   6   0   4   93.39    3.50
   6   0   4   88.49    2.80
  -7   0  -4  578.64   11.30
  -7   0  -4  581.54   11.60
   7   0   4  596.14   10.70
   7   0   4  595.14   12.20
  -8   0  -4   46.60    2.80
  -8   0  -4   45.90    2.70
   8   0   4   39.20    2.90
  -9   0  -4   19.70    2.30
  -9   0  -4   17.10    2.10
   9   0   4   18.10    2.50
   8  -1  -4   92.99    4.80
  -8   1   4  100.69    4.00
   7  -1  -4   66.99    3.80
  -7   1   4   68.99    3.20
  -6   1   4   82.29    3.10
   5  -1  -4   63.19    1.70
   5  -1  -4   63.69    3.10
  -5   1   4   62.99    1.60
  -5   1   4   63.39    2.40
  -5   1   4   60.79    1.60
   4  -1  -4 1053.89   16.70
   4  -1  -4 1013.90   18.10
  -4   1   4 1043.60   16.40
  -4   1   4 1028.50   17.20
  -4   1   4 1057.49   16.50
   3  -1  -4   34.70    1.40
   3  -1  -4   34.70    1.80
  -3   1   4   35.60    1.30
  -3   1   4   37.40    1.50
   2  -1  -4  302.07    5.70
   2  -1  -4  289.27    5.50
   2  -1  -4  292.97    5.80
  -2   1   4  308.77    5.60
  -2   1   4  297.57    5.60
  -2   1   4  312.47    5.70
   1  -1  -4 2069.49   31.80
   1  -1  -4 2033.00   31.40
   1  -1  -4 2036.60   32.30
  -1   1   4 2084.09   31.30
  -1   1   4 2034.30   31.70
  -1   1   4 1932.41   31.40
  -1   1   4 2058.09   31.30
   0  -1  -4 8745.83  133.79
   0  -1  -4 8947.30  137.59
   0  -1  -4 8739.03  137.39
   0   1   4 8816.22  133.29
   0   1   4 8486.05  138.09
   0   1   4 8983.80  133.49
  -1  -1  -4    2.80    0.60
  -1  -1  -4    0.40    0.40
   1   1   4    1.50    0.50
  -2  -1  -4  347.47    5.60
  -2  -1  -4  348.67    6.50
  -2  -1  -4  334.77    6.30
  -2  -1  -4  346.57    5.60
   2   1   4  358.96    6.20
   2   1   4  339.77    5.70
   2   1   4  339.47    6.50
   2   1   4  358.06    6.30
  -3  -1  -4 1144.19   18.70
  -3  -1  -4 1190.98   18.30
  -3  -1  -4 1157.78   18.80
  -3  -1  -4 1166.38   18.20
   3   1   4 1136.59   18.90
   3   1   4 1174.08   18.50
  -4  -1  -4  248.98    4.80
  -4  -1  -4  241.38    4.90
  -4  -1  -4  247.38    4.90
   4   1   4  240.38    5.10
   4   1   4  238.78    5.10
   4   1   4  249.88    5.00
  -5  -1  -4  687.63   12.00
  -5  -1  -4  680.93   12.20
   5   1   4  684.73   11.80
   5   1   4  674.93   11.80
   5   1   4  676.33   12.30
  -6  -1  -4  175.08    4.50
  -6  -1  -4  172.38    4.60
   6   1   4  174.28    4.80
   6   1   4  176.58    4.10
  -7  -1  -4   61.99    2.80
  -7  -1  -4   61.19    2.90
   7   1   4   60.39    2.10
   7   1   4   58.29    3.10
  -8  -1  -4  302.87    7.20
  -8  -1  -4  289.47    7.30
  -9  -1  -4   11.30    1.80
  -9  -1  -4    9.50    1.70
   9   1   4   10.30    2.00
  -8   2   4   78.09    3.70
   7  -2  -4   48.60    3.50
  -7   2   4   46.60    2.70
   6  -2  -4  131.59    4.90
  -6   2   4  120.79    3.90
   5  -2  -4 1140.39   20.90
  -5   2   4 1181.68   19.70
  -5   2   4 1180.48   18.40
   4  -2  -4  229.18    5.80
   4  -2  -4  217.78    4.50
  -4   2   4  224.68    4.30
  -4   2   4  223.68    4.30
  -4   2   4  223.58    4.90
   3  -2  -4  686.93   12.40
   3  -2  -4  687.73   11.60
  -3   2   4  679.03   11.60
  -3   2   4  676.43   11.30
  -3   2   4  693.83   11.30
   2  -2  -4 2338.57   37.10
   2  -2  -4 2391.86   37.70
   2  -2  -4 2428.16   37.40
  -2   2   4 2429.96   37.30
  -2   2   4 2389.46   37.20
  -2   2   4 2384.16   37.10
  -2   2   4 2411.06   37.20
  -2   2   4 2448.56   37.20
   1  -2  -4 2966.00   44.90
   1  -2  -4 2897.01   44.60
   1  -2  -4 2838.22   44.50
   1  -2  -4 2912.91   44.70
  -1   2   4 2917.11   44.90
  -1   2   4 2887.71   44.60
  -1   2   4 2935.61   44.80
   0  -2  -4  588.64    9.80
   0  -2  -4  582.14    9.50
   0  -2  -4  592.24    9.60
   0  -2  -4  619.34   10.30
   0   2   4  607.64    9.40
   0   2   4  607.94    9.90
   0   2   4  595.64   10.20
  -1  -2  -4   36.00    1.40
  -1  -2  -4   33.00    0.80
   1   2   4   33.90    0.80
   1   2   4   35.00    1.40
  -2  -2  -4  548.15    9.50
  -2  -2  -4  580.84    9.90
   2   2   4  568.44    9.50
   2   2   4  570.14    9.00
   2   2   4  540.85    9.70
   2   2   4  574.54    9.50
  -3  -2  -4    1.60    0.40
  -3  -2  -4    1.20    0.50
  -3  -2  -4    4.30    0.80
  -3  -2  -4    3.00    0.70
   3   2   4    0.80    0.40
   3   2   4    0.70    0.50
  -4  -2  -4  142.69    3.40
  -4  -2  -4  146.19    3.40
  -4  -2  -4  140.89    3.30
  -4  -2  -4  145.29    3.60
   4   2   4  141.79    3.50
   4   2   4  146.69    3.40
  -5  -2  -4   47.20    1.70
  -5  -2  -4   47.50    2.00
  -5  -2  -4   49.20    2.10
   5   2   4   48.10    1.80
   5   2   4   50.79    2.10
  -6  -2  -4   27.90    1.90
  -6  -2  -4   33.30    1.90
   6   2   4   32.10    1.50
   6   2   4   30.50    1.40
   6   2   4   30.50    2.00
  -7  -2  -4  245.68    6.10
  -7  -2  -4  247.98    5.90
   7   2   4  241.78    6.40
   7   2   4  248.38    5.00
  -8  -2  -4   11.00    1.70
  -8  -2  -4   12.60    1.70
   8   2   4    8.80    1.60
  -9  -2  -4  208.38    5.90
  -9  -2  -4  196.98    6.00
   9   2   4  200.08    6.50
 -10  -2  -4  180.08    5.70
 -10  -2  -4  178.78    6.00
  10   2   4  178.68    6.60
   7  -3  -4   21.60    2.80
  -7   3   4   20.90    2.10
   6  -3  -4   58.59    3.50
  -6   3   4   55.39    2.70
   5  -3  -4  278.27    7.40
  -5   3   4  287.77    5.40
  -5   3   4  275.27    6.20
   4  -3  -4  504.75   10.50
  -4   3   4  517.25    8.90
  -4   3   4  508.45    9.40
   3  -3  -4  506.35    9.90
   3  -3  -4  508.25   10.00
  -3   3   4  513.15    8.90
  -3   3   4  509.75    8.80
  -3   3   4  519.85    9.10
   2  -3  -4  335.17    6.60
   2  -3  -4  324.57    6.70
  -2   3   4  332.77    6.20
  -2   3   4  337.07    6.20
  -2   3   4  334.97    6.10
   1  -3  -4   29.70    1.40
   1  -3  -4   30.00    1.40
   1  -3  -4   28.30    1.10
  -1   3   4   30.00    1.40
  -1   3   4   29.40    1.20
  -1   3   4   28.80    1.40
   0  -3  -4  395.26    7.30
   0  -3  -4  377.86    6.70
   0  -3  -4  388.66    6.70
   0   3   4  398.26    6.60
   0   3   4  383.46    7.20
   0   3   4  394.36    7.10
   0   3   4  399.96    6.80
  -1  -3  -4   29.00    1.00
  -1  -3  -4   30.50    1.10
  -1  -3  -4   30.10    1.40
   1   3   4   29.90    1.40
   1   3   4   32.20    1.20
   1   3   4   30.10    1.00
  -2  -3  -4 2360.16   36.00
  -2  -3  -4 2250.27   36.60
  -2  -3  -4 2406.86   36.70
  -2  -3  -4 2354.86   36.20
   2   3   4 2359.86   36.10
   2   3   4 2246.88   36.50
   2   3   4 2441.36   36.30
  -3  -3  -4 1363.76   21.20
  -3  -3  -4 1308.87   21.40
  -3  -3  -4 1368.36   21.60
  -3  -3  -4 1328.67   21.30
   3   3   4 1331.57   21.50
   3   3   4 1339.77   21.10
  -4  -3  -4   26.70    1.40
  -4  -3  -4   26.20    1.40
  -4  -3  -4   26.60    1.30
  -4  -3  -4   27.40    1.50
   4   3   4   26.70    1.40
   4   3   4   27.60    1.40
  -5  -3  -4 1433.26   22.90
  -5  -3  -4 1401.36   23.00
   5   3   4 1429.06   22.80
   5   3   4 1445.36   23.40
  -6  -3  -4   70.69    2.60
  -6  -3  -4   71.99    2.70
  -6  -3  -4   71.89    2.20
   6   3   4   72.49    2.90
   6   3   4   75.89    2.20
  -7  -3  -4  197.58    4.20
  -7  -3  -4  204.78    5.30
  -7  -3  -4  191.38    5.00
   7   3   4  204.28    4.20
   7   3   4  199.28    5.60
  -8  -3  -4  384.86    8.70
  -8  -3  -4  404.06    8.60
   8   3   4  391.46    9.20
  -9  -3  -4  110.09    4.10
  -9  -3  -4  104.99    4.20
   9   3   4  108.49    4.60
 -10  -3  -4   -2.00    1.10
 -10  -3  -4    0.80    1.40
  10   3   4   -0.90    1.20
   7  -4  -4   16.90    2.60
  -7   4   4   11.90    1.80
   6  -4  -4   14.90    2.30
  -6   4   4    9.60    1.50
   5  -4  -4  122.89    4.70
  -5   4   4  126.69    3.80
   4  -4  -4    0.50    1.00
   4  -4  -4    3.50    1.20
  -4   4   4    2.00    0.80
  -4   4   4    3.40    0.80
   3  -4  -4  876.31   15.70
   3  -4  -4  869.41   15.80
  -3   4   4  869.31   14.60
  -3   4   4  880.51   14.60
   2  -4  -4  591.74   10.90
   2  -4  -4  573.64   10.80
  -2   4   4  588.94   10.20
  -2   4   4  593.24   10.00
  -2   4   4  590.74   10.30
   1  -4  -4   41.50    1.70
   1  -4  -4   43.80    1.40
   1  -4  -4   43.00    1.80
  -1   4   4   43.90    1.70
  -1   4   4   44.60    1.70
  -1   4   4   44.60    1.40
   0  -4  -4  757.32   12.60
   0  -4  -4  771.42   12.30
   0   4   4  752.52   12.90
   0   4   4  771.92   12.60
   0   4   4  771.52   12.40
   0   4   4  751.02   12.90
  -1  -4  -4  360.96    6.40
  -1  -4  -4  372.66    6.50
   1   4   4  377.56    6.50
   1   4   4  368.36    6.50
   1   4   4  363.76    6.90
  -2  -4  -4   32.40    1.30
  -2  -4  -4   32.00    1.30
  -2  -4  -4   34.90    1.30
   2   4   4   34.30    1.30
   2   4   4   30.70    1.50
   2   4   4   31.10    1.50
   2   4   4   32.80    1.40
   2   4   4   31.50    1.30
  -3  -4  -4  153.78    3.40
  -3  -4  -4  158.58    3.60
  -3  -4  -4  148.49    3.40
  -3  -4  -4  156.08    3.30
   3   4   4  156.28    3.60
   3   4   4  156.68    3.30
   3   4   4  159.98    3.50
   3   4   4  149.29    3.60
  -4  -4  -4 3412.06   53.89
  -4  -4  -4 3614.34   54.79
  -4  -4  -4 3465.55   54.89
   4   4   4 3464.65   53.89
   4   4   4 3517.75   53.99
   4   4   4 3530.05   53.99
  -5  -4  -4 1176.48   19.40
  -5  -4  -4 1175.28   19.50
   5   4   4 1190.08   19.20
   5   4   4 1208.28   19.80
   5   4   4 1181.68   19.20
  -6  -4  -4   20.40    1.60
  -6  -4  -4   21.30    1.50
   6   4   4   23.30    1.80
   6   4   4   19.30    1.20
   6   4   4   24.40    1.30
  -7  -4  -4  241.68    5.60
  -7  -4  -4  232.78    5.80
   7   4   4  247.38    6.20
   7   4   4  244.28    4.80
   7   4   4  235.98    4.80
  -8  -4  -4    3.40    1.10
  -8  -4  -4    3.80    1.20
   8   4   4    1.80    1.10
   8   4   4    1.60    0.70
   8   4   4    1.80    0.70
  -9  -4  -4  149.79    4.80
  -9  -4  -4  143.99    4.90
   9   4   4  148.59    5.40
 -10  -4  -4   53.99    3.40
 -10  -4  -4   53.69    3.20
  10   4   4   53.59    3.60
   6  -5  -4   44.10    3.60
  -6   5   4   41.20    2.50
   5  -5  -4  104.19    4.70
   5  -5  -4  106.19    4.50
  -5   5   4   97.39    3.10
  -5   5   4  101.79    3.40
   4  -5  -4  117.49    4.40
   4  -5  -4  118.49    4.50
  -4   5   4  121.69    3.40
  -4   5   4  117.49    3.40
   3  -5  -4  803.42   15.30
   3  -5  -4  830.82   15.20
  -3   5   4  814.32   13.80
  -3   5   4  822.82   14.10
   2  -5  -4  202.28    5.20
   2  -5  -4  201.38    5.10
  -2   5   4  208.88    4.70
  -2   5   4  199.08    4.20
   1  -5  -4  502.85    9.60
   1  -5  -4  513.45    9.50
  -1   5   4  513.75    9.30
  -1   5   4  508.45    9.30
  -1   5   4  524.45    8.70
   0  -5  -4  244.78    4.50
   0  -5  -4  248.98    5.10
   0   5   4  249.58    5.20
   0   5   4  248.28    5.20
  -1  -5  -4    4.00    0.70
  -1  -5  -4    4.10    0.50
   1   5   4    5.00    0.80
   1   5   4    2.90    0.70
   1   5   4    4.60    0.60
  -2  -5  -4 1131.69   18.40
   2   5   4 1144.79   18.90
   2   5   4 1128.69   18.90
   2   5   4 1166.48   18.30
   2   5   4 1168.08   18.20
  -3  -5  -4  606.34   10.30
  -3  -5  -4  595.24   10.10
   3   5   4  617.14   10.20
   3   5   4  600.24   10.60
   3   5   4  591.14   10.60
   3   5   4  600.54   10.10
  -4  -5  -4    1.50    0.60
  -4  -5  -4    1.40    0.60
  -4  -5  -4    2.00    0.60
   4   5   4    3.10    0.70
   4   5   4    2.20    0.60
  -5  -5  -4 1512.65   24.30
  -5  -5  -4 1497.85   24.10
   5   5   4 1515.55   24.10
   5   5   4 1505.15   24.20
   5   5   4 1493.95   24.60
  -6  -5  -4  645.24   11.40
  -6  -5  -4  631.64   11.60
   6   5   4  641.94   11.10
   6   5   4  640.24   11.10
   6   5   4  634.74   12.00
  -7  -5  -4    0.40    0.90
  -7  -5  -4    0.40    0.80
   7   5   4    0.00    0.80
   7   5   4    0.20    0.50
   7   5   4    1.00    0.60
  -8  -5  -4  174.38    4.90
  -8  -5  -4  179.78    5.10
   8   5   4  182.98    3.90
   8   5   4  177.48    3.90
   8   5   4  179.58    5.50
  -9  -5  -4   84.99    3.50
  -9  -5  -4   82.79    3.70
   9   5   4   85.29    4.10
 -10  -5  -4   85.29    4.00
 -10  -5  -4   84.59    3.90
  10   5   4   90.59    4.50
   5  -6  -4   81.59    4.40
   5  -6  -4   78.19    4.30
  -5   6   4   80.29    3.10
  -5   6   4   86.29    3.30
   4  -6  -4  288.97    7.80
   4  -6  -4  291.57    8.00
  -4   6   4  299.37    6.30
   3  -6  -4    1.00    1.10
   3  -6  -4   -0.30    0.90
  -3   6   4    2.60    0.90
  -3   6   4    2.30    0.70
   2  -6  -4    7.60    1.40
   2  -6  -4    7.20    1.30
  -2   6   4    8.40    0.90
  -2   6   4    9.10    1.20
   1  -6  -4   71.59    2.90
   1  -6  -4   80.49    2.90
  -1   6   4   73.59    2.00
  -1   6   4   76.09    2.70
   0  -6  -4  584.24   10.70
   0   6   4  601.24   10.90
   0   6   4  605.44   10.00
   0   6   4  592.04    9.70
  -1  -6  -4  738.13   12.80
  -1  -6  -4  745.53   11.90
   1   6   4  756.32   13.10
   1   6   4  763.82   12.20
   1   6   4  747.43   13.10
  -2  -6  -4   66.39    1.70
  -2  -6  -4   65.69    2.20
   2   6   4   68.09    1.80
   2   6   4   67.09    2.40
   2   6   4   72.09    1.90
  -3  -6  -4    2.10    0.50
  -3  -6  -4    2.40    0.70
   3   6   4    2.90    0.70
   3   6   4    3.00    0.80
   3   6   4    2.30    0.50
  -4  -6  -4  297.07    5.60
  -4  -6  -4  298.37    5.70
  -4  -6  -4  297.97    6.00
   4   6   4  286.17    6.00
   4   6   4  284.27    6.00
  -5  -6  -4  123.69    3.50
  -5  -6  -4  124.79    3.30
  -5  -6  -4  126.29    3.20
   5   6   4  125.99    3.40
   5   6   4  126.69    3.40
  -6  -6  -4  270.27    6.10
  -6  -6  -4  268.47    5.70
  -6  -6  -4  269.07    5.90
   6   6   4  273.77    6.30
   6   6   4  270.77    5.60
   6   6   4  269.87    5.70
  -7  -6  -4  601.24   11.10
  -7  -6  -4  606.94   11.40
   7   6   4  610.54   12.00
   7   6   4  609.14   10.70
   7   6   4  592.64   10.70
  -8  -6  -4   28.30    2.30
  -8  -6  -4   27.00    2.10
   8   6   4   36.90    2.60
   8   6   4   30.40    1.60
  -9  -6  -4  155.08    5.00
  -9  -6  -4  166.18    4.90
   9   6   4  164.68    5.60
 -10  -6  -4   15.90    2.00
 -10  -6  -4   19.20    2.30
  10   6   4   16.90    2.30
   4  -7  -4  117.99    5.10
   4  -7  -4  106.89    4.80
  -4   7   4  111.59    3.80
   3  -7  -4  432.86   10.10
   3  -7  -4  437.06   10.00
   2  -7  -4   -0.50    1.00
   2  -7  -4   -0.70    0.90
  -2   7   4    1.10    0.60
  -2   7   4    0.70    0.90
   1  -7  -4  580.94   11.30
  -1   7   4  580.64    9.70
  -1   7   4  567.74   10.90
   0  -7  -4  389.76    8.00
   0   7   4  389.56    6.60
   0   7   4  394.56    8.00
  -1  -7  -4   10.70    1.20
  -1  -7  -4   12.90    0.70
   1   7   4   11.20    1.40
   1   7   4   11.50    0.80
   1   7   4   12.30    0.90
  -2  -7  -4  411.96    8.00
  -2  -7  -4  417.56    6.90
   2   7   4  418.76    7.10
   2   7   4  409.76    7.00
   2   7   4  430.66    8.40
  -3  -7  -4  110.29    2.50
  -3  -7  -4  119.59    3.30
   3   7   4  111.49    3.40
   3   7   4  111.79    2.50
  -4  -7  -4   17.20    1.40
  -4  -7  -4   18.90    1.20
   4   7   4   20.10    1.50
  -5  -7  -4  459.55    8.30
  -5  -7  -4  447.86    8.80
  -5  -7  -4  442.56    8.20
   5   7   4  466.15    8.80
  -6  -7  -4   78.59    2.70
  -6  -7  -4   74.59    2.50
  -6  -7  -4   78.99    3.00
   6   7   4   81.59    2.70
  -7  -7  -4  178.98    4.60
  -7  -7  -4  169.38    4.90
  -7  -7  -4  189.08    4.50
   7   7   4  171.08    5.10
   7   7   4  177.38    4.40
  -8  -7  -4  472.45    9.60
  -8  -7  -4  469.55    9.40
   8   7   4  471.05   10.40
   8   7   4  472.75    8.90
  -9  -7  -4  355.26    7.90
  -9  -7  -4  358.36    8.20
   9   7   4  352.56    8.90
 -10  -7  -4  106.49    4.30
 -10  -7  -4  112.39    4.20
  10   7   4  112.79    4.90
   3  -8  -4   37.40    3.20
   3  -8  -4   47.90    3.20
  -3   8   4   40.80    2.60
   2  -8  -4   99.99    4.30
   2  -8  -4  102.19    4.10
   1  -8  -4    0.50    1.10
   1  -8  -4    2.80    1.10
  -1   8   4    5.00    1.30
   0  -8  -4    1.20    0.90
   0   8   4    0.00    0.90
  -1  -8  -4   97.39    3.30
   1   8   4   95.39    3.40
  -2  -8  -4   83.69    3.00
  -2  -8  -4   85.19    1.70
   2   8   4   81.79    3.10
  -3  -8  -4    1.30    0.90
  -3  -8  -4    3.60    0.50
   3   8   4    2.90    1.00
  -4  -8  -4  186.28    4.80
  -4  -8  -4  179.88    3.70
   4   8   4  177.58    4.80
  -5  -8  -4    1.60    0.70
  -5  -8  -4    3.40    1.00
   5   8   4    1.30    0.90
  -6  -8  -4  448.06    9.10
  -6  -8  -4  439.06    8.20
  -6  -8  -4  450.15    8.40
   6   8   4  435.56    8.80
  -7  -8  -4  254.97    6.40
  -7  -8  -4  254.27    5.70
  -7  -8  -4  248.08    5.50
   7   8   4  248.68    5.80
  -8  -8  -4   25.90    1.90
  -8  -8  -4   24.30    2.20
  -8  -8  -4   27.50    2.10
   8   8   4   23.10    1.70
  -9  -8  -4   62.49    3.00
  -9  -8  -4   56.29    2.80
  -9  -8  -4   60.49    3.20
   9   8   4   59.89    3.50
 -10  -8  -4   99.29    4.10
 -10  -8  -4   95.09    3.90
 -10  -8  -4  101.29    4.40
  10   8   4   94.49    4.50
   2  -9  -4   17.50    2.40
   2  -9  -4   11.50    2.00
  -2   9   4   17.70    2.10
   1  -9  -4  469.25   10.50
   1  -9  -4  451.35   10.20
   0  -9  -4   62.39    3.00
   0   9   4   57.69    3.00
  -1  -9  -4   62.89    2.80
   1   9   4   56.19    3.00
  -2  -9  -4  248.48    6.10
   2   9   4  260.97    6.50
  -3  -9  -4   53.39    2.60
   3   9   4   55.59    2.80
  -4  -9  -4   23.90    2.00
   4   9   4   26.10    2.20
  -5  -9  -4  618.04   10.60
  -5  -9  -4  612.84   11.90
   5   9   4  609.34   11.90
  -6  -9  -4  654.13   12.70
  -6  -9  -4  660.13   11.40
   6   9   4  665.03   12.60
  -7  -9  -4   54.29    2.20
  -7  -9  -4   55.69    2.40
  -7  -9  -4   55.29    2.90
   7   9   4   53.79    2.70
  -8  -9  -4  216.48    5.30
  -8  -9  -4  213.08    5.20
  -8  -9  -4  216.28    6.10
   8   9   4  212.68    5.40
  -9  -9  -4    3.50    1.40
  -9  -9  -4    3.70    1.30
  -9  -9  -4    5.60    1.30
   0 -10  -4  114.29    4.40
  -1 -10  -4  159.08    5.00
   1  10   4  155.28    5.10
  -2 -10  -4   24.90    2.20
   2  10   4   23.60    2.40
  -3 -10  -4   22.60    2.00
   3  10   4   28.20    2.50
  -4 -10  -4  237.38    6.20
   4  10   4  246.58    6.50
  -5 -10  -4  102.69    3.90
   5  10   4  107.79    4.00
  -6 -10  -4   68.19    3.20
   6  10   4   68.69    3.20
  -7 -10  -4  157.88    5.10
   7  10   4  167.08    5.00
  -8 -10  -4   88.29    3.90
   8  10   4   89.49    3.50
  -2 -11  -4  216.68    6.20
  -3 -11  -4   60.49    3.20
  -4 -11  -4    2.30    1.30
   4  11   4    1.50    1.20
  -5 -11  -4   87.39    3.80
   5  11   4   94.29    4.10
  -6 -11  -4  266.87    7.10
   6  11   4  276.27    7.20
   5   8  -5    6.00    1.60
  -5  -8   5    5.60    1.50
   4   8  -5   23.40    2.70
  -4  -8   5   25.50    2.40
   3   8  -5  127.79    5.30
  -3  -8   5  127.89    4.40
   2   8  -5  223.28    7.30
  -2  -8   5  242.18    6.20
   1   8  -5   14.20    2.40
  -1  -8   5   16.60    1.90
   0   8  -5   76.49    4.50
   0  -8   5   80.19    3.60
  -7  -7   5  150.58    4.20
  -7  -7   5  152.58    5.30
  -7  -7   5  139.89    4.70
   6   7  -5    0.40    1.10
  -6  -7   5    0.90    0.80
  -6  -7   5    0.20    1.10
   5   7  -5  230.78    6.70
  -5  -7   5  231.18    6.30
   4   7  -5  277.77    7.60
  -4  -7   5  284.67    6.90
   3   7  -5    1.20    1.20
  -3  -7   5    2.00    1.20
   2   7  -5  210.88    6.50
  -2  -7   5  202.78    5.50
   1   7  -5    1.30    1.30
  -1  -7   5    2.30    1.00
   0   7  -5    9.40    2.00
   0  -7   5    9.30    1.40
  -1   7  -5   58.99    3.80
   1  -7   5   62.79    3.10
  -2   7  -5  227.68    7.50
   2  -7   5  219.48    6.20
   8   6  -5    5.00    1.60
  -8  -6   5    8.20    1.80
  -8  -6   5    4.70    1.30
  -7  -6   5   -0.30    0.80
  -7  -6   5    1.70    1.00
  -7  -6   5    2.60    1.40
   6   6  -5   29.30    2.30
  -6  -6   5   29.10    2.20
  -6  -6   5   34.80    1.90
  -6  -6   5   32.10    2.50
   5   6  -5  183.48    5.50
  -5  -6   5  183.98    4.30
  -5  -6   5  184.28    5.30
   4   6  -5    6.00    1.40
  -4  -6   5    3.70    0.70
  -4  -6   5    5.10    1.30
   3   6  -5   46.40    2.80
  -3  -6   5   45.70    1.60
  -3  -6   5   41.10    2.40
   2   6  -5   63.29    3.40
  -2  -6   5   62.59    1.70
  -2  -6   5   61.99    2.70
   1   6  -5  220.88    6.50
  -1  -6   5  223.38    5.40
   0   6  -5  458.45   10.70
   0  -6   5  470.85    9.30
  -1   6  -5    3.60    1.40
   1  -6   5    1.10    0.90
  -2   6  -5   85.29    4.30
   2  -6   5   86.29    3.50
  -3   6  -5  211.08    6.90
   3  -6   5  220.18    6.10
   3  -6   5  203.18    6.10
  -4   6  -5   74.89    4.20
   4  -6   5   66.19    3.60
   4  -6   5   66.79    3.70
   8   5  -5  265.47    7.70
  -8  -5   5  231.88    6.20
   7   5  -5  290.67    7.80
  -7  -5   5  274.97    6.50
   6   5  -5   39.00    2.70
  -6  -5   5   38.10    2.10
  -6  -5   5   44.10    2.30
  -6  -5   5   41.70    2.60
   5   5  -5  221.98    5.80
  -5  -5   5  222.88    5.90
  -5  -5   5  225.28    4.90
   4   5  -5   13.10    1.70
  -4  -5   5   16.60    1.20
  -4  -5   5   16.10    1.70
   3   5  -5   60.99    3.00
  -3  -5   5   59.19    2.60
  -3  -5   5   60.29    1.80
   2   5  -5  663.83   10.90
   2   5  -5  656.23   13.10
  -2  -5   5  651.93   12.00
  -2  -5   5  674.63   10.90
   1   5  -5  706.13   13.90
   1   5  -5  708.63   11.50
  -1  -5   5  704.23   12.60
   0   5  -5    3.70    1.30
   0   5  -5    3.50    0.50
   0  -5   5    2.40    0.90
  -1   5  -5   91.69    4.00
  -1   5  -5   96.19    2.40
   1  -5   5   96.39    3.20
  -2   5  -5  350.86    8.70
   2  -5   5  344.27    7.50
  -3   5  -5   25.60    2.60
   3  -5   5   26.70    2.20
   3  -5   5   30.30    2.20
  -4   5  -5  349.07    9.00
   4  -5   5  350.06    8.30
   4  -5   5  334.07    8.40
  -5   5  -5    3.10    1.50
   5  -5   5    3.20    1.30
   5  -5   5    1.10    1.20
   5  -5   5    2.60    1.30
   8   4  -5   -1.20    1.10
  -8  -4   5   -1.40    1.00
   7   4  -5  159.68    5.50
  -7  -4   5  152.58    4.50
   6   4  -5  490.65   10.60
  -6  -4   5  482.15    9.30
  -6  -4   5  473.25    9.30
   5   4  -5  693.43   13.50
  -5  -4   5  692.43   12.30
  -5  -4   5  719.63   13.30
  -5  -4   5  697.33   12.80
   4   4  -5   52.89    2.50
  -4  -4   5   58.29    2.60
  -4  -4   5   59.79    2.50
  -4  -4   5   52.79    1.90
   3   4  -5  491.15    9.90
  -3  -4   5  485.65    8.50
  -3  -4   5  476.05    9.20
   2   4  -5  123.89    4.00
   2   4  -5  119.19    2.80
  -2  -4   5  120.59    3.30
   1   4  -5   17.30    1.80
   1   4  -5   23.70    1.10
  -1  -4   5   22.00    1.50
   0   4  -5  228.68    6.00
   0   4  -5  229.48    4.50
   0  -4   5  232.48    5.00
  -1   4  -5  127.39    3.00
  -1   4  -5  134.09    4.40
   1  -4   5  126.49    3.40
  -2   4  -5    5.70    1.40
  -2   4  -5    6.90    0.90
   2  -4   5    5.00    1.00
  -3   4  -5  218.28    6.30
  -3   4  -5  228.48    5.00
   3  -4   5  217.18    5.50
   3  -4   5  222.78    5.60
  -4   4  -5    1.20    1.20
  -4   4  -5    0.50    0.70
   4  -4   5   -0.20    0.90
   4  -4   5   -0.30    0.90
  -5   4  -5  238.58    6.80
  -5   4  -5  235.68    5.60
  -5   4  -5  242.38    5.80
   5  -4   5  236.18    6.50
   5  -4   5  233.88    6.50
   5  -4   5  239.98    6.70
   6  -4   5   16.50    2.00
   6  -4   5   14.70    2.20
   6  -4   5   17.30    2.30
   8   3  -5  157.08    5.90
  -8  -3   5  155.88    4.90
   7   3  -5  199.78    6.30
  -7  -3   5  193.98    5.20
   6   3  -5    3.30    1.20
  -6  -3   5    3.00    0.90
  -6  -3   5    3.20    0.80
   5   3  -5  270.07    6.60
  -5  -3   5  253.77    5.70
  -5  -3   5  269.77    5.70
   4   3  -5   58.19    2.60
  -4  -3   5   52.79    2.00
  -4  -3   5   53.69    2.30
   3   3  -5    7.70    1.10
  -3  -3   5    8.10    1.10
  -3  -3   5    7.90    1.10
  -3  -3   5    7.60    0.80
   2   3  -5  132.49    3.90
   2   3  -5  135.69    3.00
  -2  -3   5  134.39    3.40
   1   3  -5  821.42   13.50
   1   3  -5  823.12   14.90
  -1  -3   5  832.32   13.80
   0   3  -5   16.80    1.70
   0   3  -5   16.60    1.00
   0  -3   5   16.40    1.10
  -1   3  -5   46.60    2.50
  -1   3  -5   54.29    1.80
   1  -3   5   62.29    2.00
  -2   3  -5    7.60    1.30
  -2   3  -5    7.30    0.90
   2  -3   5    9.00    1.10
  -3   3  -5   41.20    1.90
  -3   3  -5   37.50    2.40
   3  -3   5   41.30    2.00
   3  -3   5   39.40    2.10
  -4   3  -5  650.83   11.70
  -4   3  -5  627.64   11.50
  -4   3  -5  635.34   12.70
   4  -3   5  636.14   12.10
   4  -3   5  647.14   12.50
   4  -3   5  633.64   12.20
  -5   3  -5   37.00    2.20
  -5   3  -5   45.00    2.20
   5  -3   5   38.90    2.50
   5  -3   5   37.50    2.50
   5  -3   5   42.40    2.60
  -6   3  -5  130.19    4.20
  -6   3  -5  132.59    4.10
   6  -3   5  120.69    4.60
   6  -3   5  146.69    5.00
   6  -3   5  126.69    4.40
  -7   3  -5  115.09    4.10
  -7   3  -5  105.89    3.90
   7  -3   5  111.19    4.80
   8   2  -5   21.40    2.70
  -8  -2   5   16.70    2.00
   7   2  -5  105.69    4.50
  -7  -2   5  100.59    3.70
   6   2  -5   75.69    3.60
  -6  -2   5   75.89    2.90
  -6  -2   5   78.39    2.30
   5   2  -5    7.80    1.30
  -5  -2   5    7.30    0.90
  -5  -2   5    7.70    1.10
   4   2  -5  617.04   11.60
  -4  -2   5  619.04   11.00
  -4  -2   5  605.34   10.80
   3   2  -5 1362.76   22.60
   3   2  -5 1355.76   21.90
  -3  -2   5 1408.46   22.60
  -3  -2   5 1374.46   22.00
   2   2  -5   94.59    2.40
  -2  -2   5   95.49    3.00
  -2  -2   5   92.99    2.60
   1   2  -5  234.68    4.50
   1   2  -5  227.78    5.40
  -1  -2   5  229.58    5.30
  -1  -2   5  232.48    4.80
  -1  -2   5  227.48    4.50
   0   2  -5  375.26    7.80
   0   2  -5  374.76    6.80
   0   2  -5  374.76    6.70
   0  -2   5  376.46    6.60
   0  -2   5  369.56    6.90
   0  -2   5  379.66    7.70
  -1   2  -5   13.80    1.50
  -1   2  -5   12.80    0.90
   1  -2   5   14.30    0.90
   1  -2   5   13.70    1.40
  -2   2  -5   47.40    2.30
  -2   2  -5   48.00    1.80
   2  -2   5   46.30    2.20
   2  -2   5   48.30    1.70
  -3   2  -5  897.91   16.20
  -3   2  -5  891.01   15.30
   3  -2   5  911.41   15.40
   3  -2   5  904.61   16.00
   3  -2   5  901.71   15.30
  -4   2  -5  224.28    5.10
  -4   2  -5  220.98    5.20
   4  -2   5  223.88    5.60
   4  -2   5  221.68    5.30
   4  -2   5  219.98    5.40
  -5   2  -5  439.16    8.70
  -5   2  -5  432.96    8.80
   5  -2   5  437.86    9.30
   5  -2   5  434.26    9.10
   5  -2   5  445.06    9.20
  -6   2  -5   49.40    2.50
  -6   2  -5   45.90    2.50
   6  -2   5   54.89    2.70
   6  -2   5   45.20    2.80
   6  -2   5   57.39    3.00
  -7   2  -5   10.10    1.60
  -7   2  -5   12.40    1.60
   7  -2   5   11.80    1.90
  -8   2  -5   35.90    2.90
  -8   2  -5   31.60    2.50
   8  -2   5   37.00    3.40
   8   1  -5  506.85   12.10
  -8  -1   5  502.85   10.70
   7   1  -5   54.29    3.40
  -7  -1   5   58.89    2.80
   6   1  -5    7.70    1.50
  -6  -1   5    8.10    1.20
  -6  -1   5    7.10    0.70
   5   1  -5  362.06    8.30
  -5  -1   5  365.36    6.60
  -5  -1   5  370.96    6.80
  -5  -1   5  368.56    7.40
   4   1  -5  340.67    7.50
  -4  -1   5  348.77    6.80
  -4  -1   5  349.17    6.70
  -4  -1   5  352.16    6.50
   3   1  -5   16.30    1.30
   3   1  -5   14.60    1.00
  -3  -1   5   14.80    1.20
  -3  -1   5   14.00    1.00
   2   1  -5  616.94   10.70
   2   1  -5  612.74   10.40
  -2  -1   5  606.44   10.90
  -2  -1   5  625.34   10.80
   1   1  -5 2749.62   43.70
  -1  -1   5 2772.62   42.50
  -1  -1   5 2820.92   42.80
  -1  -1   5 2744.53   43.40
   0   1  -5   96.89    2.40
   0  -1   5   99.19    2.40
   0  -1   5   99.99    2.20
   0  -1   5   97.59    3.00
  -1   1  -5 1458.95   23.10
  -1   1  -5 1477.65   22.60
   1  -1   5 1429.06   23.80
   1  -1   5 1442.66   22.50
  -2   1  -5  239.08    5.00
  -2   1  -5  242.78    4.60
   2  -1   5  241.88    5.50
   2  -1   5  244.98    4.70
   2  -1   5  242.38    4.60
  -3   1  -5   39.40    1.70
  -3   1  -5   37.10    1.70
   3  -1   5   39.90    2.00
   3  -1   5   40.30    1.60
   3  -1   5   38.60    1.60
  -4   1  -5  807.82   14.40
  -4   1  -5  835.72   14.30
   4  -1   5  832.32   14.80
   4  -1   5  831.42   14.40
   4  -1   5  848.82   14.50
  -5   1  -5  643.84   11.70
  -5   1  -5  642.34   11.90
   5  -1   5  655.43   12.20
   5  -1   5  628.34   11.90
   5  -1   5  632.94   12.00
  -6   1  -5   54.29    2.70
  -6   1  -5   56.29    2.60
   6  -1   5   53.79    2.90
   6  -1   5   53.59    2.50
  -7   1  -5    2.40    1.20
  -7   1  -5    2.20    1.10
   7  -1   5    2.60    0.90
   7  -1   5    2.10    1.20
  -8   1  -5    4.80    1.40
  -8   1  -5    4.30    1.30
   8  -1   5    4.80    1.60
   8   0  -5  438.76   11.10
  -8   0   5  434.26    9.70
   7   0  -5   75.79    4.10
  -7   0   5   89.09    3.50
   6   0  -5  414.36    9.70
  -6   0   5  413.96    8.60
  -6   0   5  413.26    7.30
  -6   0   5  422.86    7.60
   5   0  -5    8.00    1.40
  -5   0   5    6.10    0.70
  -5   0   5    6.80    0.70
  -5   0   5    6.90    1.00
   4   0  -5  124.99    3.90
  -4   0   5  123.69    3.30
  -4   0   5  126.29    3.00
  -4   0   5  125.69    3.00
   3   0  -5   52.19    2.20
   3   0  -5   52.69    1.80
   3   0  -5   55.89    1.90
  -3   0   5   55.39    1.90
  -3   0   5   59.89    1.90
  -3   0   5   52.59    1.90
   2   0  -5   47.80    1.80
   2   0  -5   50.09    1.70
   2   0  -5   45.10    1.80
  -2   0   5   47.20    1.70
  -2   0   5   48.60    1.80
  -2   0   5   48.10    1.90
   1   0  -5  259.57    5.10
   1   0  -5  279.07    5.00
  -1   0   5  283.37    5.10
  -1   0   5  267.27    5.60
   0   0  -5 2494.05   39.50
   0   0   5 2594.54   40.20
   0   0   5 2562.64   39.50
   0   0   5 2591.14   39.00
  -1   0  -5  388.36    7.10
  -1   0  -5  392.36    6.40
   1   0   5  400.36    6.30
  -2   0  -5  100.89    2.10
  -2   0  -5   94.79    2.70
   2   0   5   98.59    3.00
   2   0   5  102.29    2.20
   2   0   5  100.49    2.20
  -3   0  -5  400.16    7.50
  -3   0  -5  410.16    6.90
  -3   0  -5  405.06    7.70
   3   0   5  410.16    7.20
   3   0   5  398.36    7.90
   3   0   5  402.76    7.30
  -4   0  -5  295.97    6.00
  -4   0  -5  282.57    6.10
   4   0   5  282.37    5.90
   4   0   5  291.77    6.20
  -5   0  -5  384.06    7.70
  -5   0  -5  378.16    7.80
   5   0   5  383.06    7.90
   5   0   5  382.06    7.80
  -6   0  -5   22.90    1.80
  -6   0  -5   24.40    2.00
   6   0   5   26.40    2.00
   6   0   5   22.70    1.70
  -7   0  -5  144.99    4.60
  -7   0  -5  141.29    4.40
   7   0   5  149.99    4.10
   7   0   5  147.49    4.90
  -8   0  -5    2.00    1.10
  -8   0  -5    0.20    1.10
   8   0   5    0.70    1.20
  -9   0  -5   21.50    2.40
  -9   0  -5   17.10    2.10
   9   0   5   21.10    2.60
   8  -1  -5   44.40    3.60
  -8   1   5   36.10    2.80
   7  -1  -5   12.70    2.10
  -7   1   5   11.90    1.70
   6  -1  -5    3.50    1.30
  -6   1   5    4.30    1.10
   5  -1  -5  298.07    7.30
  -5   1   5  292.37    6.30
  -5   1   5  292.57    5.30
  -5   1   5  290.47    5.30
   4  -1  -5  708.83   12.10
  -4   1   5  724.53   11.90
  -4   1   5  722.03   12.50
   3  -1  -5   46.50    1.70
  -3   1   5   43.10    1.60
  -3   1   5   45.00    1.70
   2  -1  -5  136.09    3.30
   2  -1  -5  139.39    3.20
   2  -1  -5  138.49    3.40
  -2   1   5  137.89    3.20
  -2   1   5  134.29    3.30
  -2   1   5  139.39    3.20
   1  -1  -5   32.60    1.30
   1  -1  -5   30.50    1.50
   1  -1  -5   31.80    1.30
  -1   1   5   33.80    1.20
  -1   1   5   32.20    1.50
  -1   1   5   33.20    1.10
   0  -1  -5  598.54   10.80
   0  -1  -5  574.94    9.80
   0  -1  -5  585.24    9.20
   0   1   5  586.64    9.10
   0   1   5  561.74   10.30
   0   1   5  585.64    9.10
   1   1   5 2031.50   32.20
  -2  -1  -5  687.33   11.90
  -2  -1  -5  711.83   10.80
   2   1   5  706.73   11.00
   2   1   5  699.13   12.30
  -3  -1  -5  185.78    4.10
  -3  -1  -5  190.98    3.50
  -3  -1  -5  184.48    4.20
   3   1   5  181.68    4.40
   3   1   5  189.68    3.80
  -4  -1  -5 1218.08   20.20
  -4  -1  -5 1252.27   19.60
  -4  -1  -5 1260.87   19.70
  -4  -1  -5 1217.98   20.40
   4   1   5 1224.28   20.00
   4   1   5 1236.38   20.40
  -5  -1  -5  316.77    6.60
  -5  -1  -5  320.47    6.80
   5   1   5  327.07    6.70
   5   1   5  303.07    6.50
  -6  -1  -5  621.64   11.70
  -6  -1  -5  610.24   11.40
   6   1   5  613.54   11.20
   6   1   5  603.54   11.70
  -7  -1  -5  457.55    9.70
  -7  -1  -5  464.55    9.50
   7   1   5  471.15   10.10
   7   1   5  477.15    9.00
  -8  -1  -5  189.18    5.40
  -8  -1  -5  187.08    5.60
  -9  -1  -5    4.40    1.60
  -9  -1  -5    4.60    1.40
   9   1   5    2.60    1.40
  -7   2   5   23.70    2.20
   6  -2  -5  258.27    7.40
  -6   2   5  264.77    6.30
   5  -2  -5    1.30    1.10
  -5   2   5    1.60    0.50
  -5   2   5    4.50    1.00
  -5   2   5    1.50    0.50
   4  -2  -5  243.08    6.70
   4  -2  -5  241.68    6.10
  -4   2   5  243.48    5.30
  -4   2   5  243.38    4.80
  -4   2   5  245.98    4.80
   3  -2  -5  249.88    5.80
  -3   2   5  259.97    5.10
  -3   2   5  259.87    5.10
  -3   2   5  253.57    5.20
   2  -2  -5    3.20    0.60
   2  -2  -5    3.50    0.70
  -2   2   5    3.00    0.70
   1  -2  -5  150.18    3.30
   1  -2  -5  165.68    3.50
  -1   2   5  161.98    3.20
  -1   2   5  153.08    3.70
  -1   2   5  158.88    3.20
   0  -2  -5 1040.50   16.30
   0  -2  -5 1049.20   16.80
   0   2   5 1042.20   17.20
   0   2   5 1043.80   16.10
  -1  -2  -5   28.90    1.30
   1   2   5   27.90    1.50
  -2  -2  -5 1243.28   19.50
   2   2   5 1177.38   19.80
  -3  -2  -5  167.68    3.90
  -3  -2  -5  173.68    3.20
  -3  -2  -5  173.48    3.80
  -3  -2  -5  169.08    3.30
   3   2   5  168.28    3.30
   3   2   5  162.08    4.00
  -4  -2  -5  259.17    4.90
  -4  -2  -5  250.37    5.30
  -4  -2  -5  255.17    5.40
  -4  -2  -5  250.67    4.90
   4   2   5  254.37    5.10
   4   2   5  247.28    5.40
  -5  -2  -5 1094.09   18.20
  -5  -2  -5 1086.09   18.40
   5   2   5 1078.49   18.20
   5   2   5 1086.49   18.10
  -6  -2  -5 1340.27   22.50
  -6  -2  -5 1357.46   22.30
   6   2   5 1335.87   22.70
   6   2   5 1324.47   21.90
  -7  -2  -5   70.99    3.00
   7   2   5   74.79    2.50
   7   2   5   76.79    3.30
  -8  -2  -5   27.10    2.40
  -8  -2  -5   23.70    2.10
   8   2   5   28.00    2.50
  -9  -2  -5    3.10    1.30
  -9  -2  -5    2.90    1.30
   9   2   5    3.40    1.40
 -10  -2  -5   16.30    2.10
 -10  -2  -5   18.50    2.40
  10   2   5   18.30    2.60
   7  -3  -5   12.00    2.30
  -7   3   5   11.20    1.70
   6  -3  -5   46.80    3.30
  -6   3   5   45.00    2.50
   5  -3  -5  314.17    7.90
  -5   3   5  303.67    6.70
  -5   3   5  302.37    5.80
   4  -3  -5  705.83   13.60
  -4   3   5  689.93   12.40
  -4   3   5  709.03   11.80
  -4   3   5  702.73   11.80
   3  -3  -5    7.20    1.20
  -3   3   5    8.10    0.90
  -3   3   5    6.10    0.80
  -3   3   5    7.20    0.80
   2  -3  -5  534.55    9.70
   2  -3  -5  532.25    9.20
   2  -3  -5  521.05    9.80
  -2   3   5  525.35    9.20
  -2   3   5  526.15    9.30
  -2   3   5  526.15    9.30
   1  -3  -5  296.37    5.80
   1  -3  -5  297.67    5.70
   1  -3  -5  286.57    5.50
  -1   3   5  301.27    5.90
  -1   3   5  299.77    5.40
   0  -3  -5    1.00    0.40
   0  -3  -5   -0.20    0.40
   0  -3  -5    0.50    0.40
   0   3   5    0.70    0.40
   0   3   5    3.50    0.80
  -1  -3  -5  721.83   11.90
  -1  -3  -5  708.03   11.30
   1   3   5  729.23   11.30
   1   3   5  705.13   12.30
  -2  -3  -5  124.79    2.30
  -2  -3  -5  124.09    2.50
  -3  -3  -5  237.58    4.90
  -3  -3  -5  235.08    4.40
   3   3   5  234.68    4.30
   3   3   5  233.38    5.10
  -4  -3  -5  339.77    6.30
   4   3   5  334.37    6.60
   4   3   5  333.57    6.30
  -5  -3  -5  652.83   11.50
  -5  -3  -5  625.14   11.60
   5   3   5  648.14   11.40
   5   3   5  655.93   11.60
  -6  -3  -5  723.73   13.00
  -6  -3  -5  717.13   13.20
   6   3   5  741.83   13.30
   6   3   5  727.03   12.60
  -7  -3  -5  674.73   13.10
  -7  -3  -5  705.73   13.00
   7   3   5  716.13   13.50
   7   3   5  709.63   12.20
  -8  -3  -5  141.29    4.60
  -8  -3  -5  134.49    4.30
   8   3   5  142.39    4.80
   8   3   5  140.19    4.10
  -9  -3  -5   53.79    3.00
  -9  -3  -5   43.10    2.90
   9   3   5   44.10    3.00
 -10  -3  -5  183.38    6.10
 -10  -3  -5  193.58    5.90
  10   3   5  184.28    6.50
   6  -4  -5  136.19    5.50
  -6   4   5  127.89    4.20
   5  -4  -5    2.00    1.20
  -5   4   5    3.40    0.80
  -5   4   5    2.60    1.00
   4  -4  -5  188.28    5.60
  -4   4   5  184.18    4.20
  -4   4   5  184.98    4.50
   3  -4  -5  651.03   12.30
   3  -4  -5  655.23   12.50
  -3   4   5  634.44   11.20
  -3   4   5  639.24   11.20
  -3   4   5  644.74   11.20
   2  -4  -5   75.39    2.70
   2  -4  -5   75.99    2.80
  -2   4   5   81.39    2.50
  -2   4   5   80.49    2.50
  -2   4   5   83.79    2.30
   1  -4  -5  243.88    4.70
   1  -4  -5  239.68    5.10
   1  -4  -5  240.08    5.20
  -1   4   5  238.88    5.10
  -1   4   5  239.78    5.10
   0  -4  -5  659.53   10.90
   0  -4  -5  653.13   11.00
   0  -4  -5  650.23   11.10
   0   4   5  650.13   11.40
   0   4   5  645.14   11.40
   0   4   5  659.53   10.90
  -1  -4  -5   12.60    0.90
  -1  -4  -5   12.10    0.80
   1   4   5   12.90    1.20
   1   4   5   11.00    0.80
  -2  -4  -5 1267.17   19.50
  -2  -4  -5 1254.57   19.80
  -2  -4  -5 1269.57   20.00
   2   4   5 1225.28   20.40
   2   4   5 1233.48   19.60
  -3  -4  -5    4.30    0.60
  -3  -4  -5    4.50    0.80
  -3  -4  -5    4.00    0.60
   3   4   5    3.00    0.70
  -4  -4  -5   24.30    1.30
  -4  -4  -5   25.10    1.50
  -4  -4  -5   21.70    1.40
   4   4   5   25.20    1.50
   4   4   5   22.90    1.30
  -5  -4  -5  522.95    9.60
  -5  -4  -5  533.05    9.80
   5   4   5  535.65    9.70
   5   4   5  518.45    9.60
  -6  -4  -5 1625.34   26.20
  -6  -4  -5 1585.04   26.40
   6   4   5 1620.54   26.50
   6   4   5 1595.64   25.80
  -7  -4  -5    0.80    0.90
  -7  -4  -5   -1.30    0.90
   7   4   5   -0.40    0.50
   7   4   5    0.30    0.60
   7   4   5    0.50    0.90
  -8  -4  -5  118.89    3.90
  -8  -4  -5  114.79    4.10
   8   4   5  113.79    3.00
   8   4   5  113.39    4.30
   8   4   5  113.89    3.00
  -9  -4  -5   13.70    1.80
  -9  -4  -5   13.80    2.00
   9   4   5   12.10    1.90
 -10  -4  -5    0.10    1.20
 -10  -4  -5    0.10    1.30
  10   4   5    0.70    1.30
   6  -5  -5    2.00    1.50
  -6   5   5   -1.20    1.00
   5  -5  -5  155.08    5.70
  -5   5   5  153.48    3.90
  -5   5   5  140.69    4.20
   4  -5  -5   73.09    3.60
   4  -5  -5   74.09    3.50
  -4   5   5   73.89    2.60
  -4   5   5   72.69    2.70
   3  -5  -5   39.40    2.50
   3  -5  -5   37.20    2.50
  -3   5   5   40.10    1.90
  -3   5   5   37.70    1.80
   2  -5  -5  289.07    6.70
   2  -5  -5  291.17    6.60
  -2   5   5  300.27    5.70
  -2   5   5  289.57    6.10
  -2   5   5  283.27    6.00
   1  -5  -5  298.07    5.50
   1  -5  -5  291.57    6.20
   1  -5  -5  290.67    6.30
  -1   5   5  287.57    5.50
  -1   5   5  297.67    6.10
  -1   5   5  296.17    6.10
   0  -5  -5   39.20    1.70
   0  -5  -5   39.40    1.40
   0   5   5   39.90    1.90
   0   5   5   39.30    1.80
  -1  -5  -5 1580.14   24.50
  -1  -5  -5 1556.24   24.70
   1   5   5 1560.64   25.30
  -2  -5  -5  742.03   12.00
  -2  -5  -5  723.63   11.90
   2   5   5  713.33   12.60
   2   5   5  728.33   12.20
   2   5   5  700.73   12.60
  -3  -5  -5   17.50    1.10
  -3  -5  -5   17.20    1.00
  -3  -5  -5   17.00    1.30
   3   5   5   17.80    1.30
   3   5   5   20.30    1.40
  -4  -5  -5  232.48    4.90
  -4  -5  -5  234.88    5.00
  -4  -5  -5  232.18    4.80
   4   5   5  237.68    5.20
   4   5   5  233.68    5.20
  -5  -5  -5 1300.17   20.90
  -5  -5  -5 1262.97   20.80
  -5  -5  -5 1278.57   21.00
   5   5   5 1284.37   21.10
   5   5   5 1264.97   20.90
   5   5   5 1273.17   21.00
  -6  -5  -5   14.90    1.50
  -6  -5  -5   16.90    1.50
   6   5   5   13.20    1.20
   6   5   5   14.10    1.40
   6   5   5   13.00    1.20
  -7  -5  -5  141.69    4.00
  -7  -5  -5  141.99    4.20
   7   5   5  142.79    4.40
   7   5   5  139.09    3.60
   7   5   5  143.09    3.60
  -8  -5  -5    0.40    1.10
  -8  -5  -5   -0.10    1.00
   8   5   5    1.50    0.60
   8   5   5    1.40    1.00
   8   5   5    1.40    0.70
  -9  -5  -5   85.69    3.80
  -9  -5  -5   83.09    3.50
   9   5   5   81.09    3.90
 -10  -5  -5  260.57    7.20
 -10  -5  -5  260.37    7.00
  10   5   5  250.37    7.60
   5  -6  -5   18.80    2.50
   5  -6  -5   19.00    2.60
  -5   6   5   18.00    1.80
   4  -6  -5   37.60    3.10
   4  -6  -5   41.90    3.10
  -4   6   5   36.20    2.10
  -4   6   5   38.40    2.10
   3  -6  -5  100.49    4.10
   3  -6  -5   91.09    3.80
  -3   6   5  101.19    3.20
  -3   6   5   95.79    2.90
   2  -6  -5   46.70    2.50
   2  -6  -5   49.00    2.60
  -2   6   5   50.19    1.90
  -2   6   5   48.20    2.30
   1  -6  -5  458.75    9.20
   1  -6  -5  461.45    9.00
  -1   6   5  458.15    8.80
  -1   6   5  447.26    7.90
  -1   6   5  448.06    8.80
   0  -6  -5  150.28    3.90
   0  -6  -5  146.39    3.10
   0   6   5  150.38    4.00
   0   6   5  156.88    4.00
  -1  -6  -5   21.80    1.00
  -1  -6  -5   22.50    1.30
   1   6   5   22.60    1.50
   1   6   5   23.80    1.60
  -2  -6  -5  331.97    6.00
  -2  -6  -5  326.57    6.30
   2   6   5  330.17    6.80
   2   6   5  327.87    6.80
  -3  -6  -5  306.27    5.70
  -3  -6  -5  300.27    5.90
   3   6   5  299.77    6.40
   3   6   5  295.77    6.30
  -4  -6  -5   21.20    1.30
  -4  -6  -5   23.80    1.40
   4   6   5   20.70    1.40
   4   6   5   21.10    1.60
  -5  -6  -5  268.47    5.60
  -5  -6  -5  257.37    5.70
  -5  -6  -5  267.37    5.70
   5   6   5  265.77    5.80
   5   6   5  278.67    5.90
  -6  -6  -5  253.77    5.80
  -6  -6  -5  265.77    5.90
  -6  -6  -5  270.17    5.70
   6   6   5  257.77    6.00
   6   6   5  264.77    5.70
   6   6   5  258.17    5.70
  -7  -6  -5  195.98    5.10
  -7  -6  -5  198.78    4.90
   7   6   5  193.98    4.60
   7   6   5  187.58    4.50
   7   6   5  194.68    5.30
  -8  -6  -5  403.46    8.50
  -8  -6  -5  414.96    8.80
   8   6   5  411.06    9.20
   8   6   5  405.06    7.80
   8   6   5  403.36    7.80
  -9  -6  -5    6.80    1.50
  -9  -6  -5    3.70    1.30
   9   6   5    4.20    1.40
 -10  -6  -5    3.50    1.50
 -10  -6  -5    1.60    1.40
  10   6   5    0.90    1.30
   4  -7  -5    1.10    1.40
   4  -7  -5    0.30    1.30
   3  -7  -5   57.69    3.20
   3  -7  -5   58.39    3.40
  -3   7   5   54.09    2.20
  -3   7   5   54.09    2.60
   2  -7  -5  202.88    5.80
   2  -7  -5  203.78    5.70
  -2   7   5  200.78    4.40
  -2   7   5  196.68    5.10
   1  -7  -5    1.30    1.00
   1  -7  -5    1.90    0.90
  -1   7   5    0.00    0.80
  -1   7   5    1.50    0.50
   0  -7  -5   80.19    2.90
   0   7   5   79.69    2.10
   0   7   5   77.89    2.90
  -1  -7  -5  735.03   11.80
  -1  -7  -5  719.43   12.80
   1   7   5  724.13   13.20
   1   7   5  735.13   13.20
  -2  -7  -5  207.08    3.90
  -2  -7  -5  203.38    4.60
   2   7   5  206.68    5.00
   2   7   5  188.08    4.50
   2   7   5  203.78    5.00
   2   7   5  208.28    4.50
  -3  -7  -5  250.37    5.40
  -3  -7  -5  255.17    4.80
   3   7   5  250.87    5.80
   3   7   5  251.17    5.80
  -4  -7  -5  557.54   10.20
  -4  -7  -5  552.74    9.80
   4   7   5  570.34   10.60
   4   7   5  563.74   10.50
  -5  -7  -5 1287.07   21.00
  -5  -7  -5 1260.57   21.30
   5   7   5 1301.27   21.40
   5   7   5 1282.77   21.40
  -6  -7  -5   87.79    2.80
  -6  -7  -5   96.69    3.20
  -6  -7  -5   97.39    3.10
   6   7   5   85.09    3.00
   6   7   5   97.79    3.10
  -7  -7  -5 1568.34   26.50
  -7  -7  -5 1599.24   26.00
  -7  -7  -5 1613.74   26.20
   7   7   5 1587.24   25.90
   7   7   5 1560.14   25.90
  -8  -7  -5  154.88    4.70
  -8  -7  -5  150.38    4.60
  -8  -7  -5  158.48    4.50
   8   7   5  158.18    5.00
   8   7   5  153.88    4.00
  -9  -7  -5   10.50    1.60
  -9  -7  -5   10.70    1.70
   9   7   5   10.20    1.80
 -10  -7  -5   60.49    3.40
 -10  -7  -5   60.39    3.30
  10   7   5   61.39    3.70
   3  -8  -5  218.48    6.90
   3  -8  -5  219.88    6.80
   2  -8  -5   13.60    1.90
   2  -8  -5   15.90    2.10
  -2   8   5   12.40    1.70
   1  -8  -5  292.97    7.20
   1  -8  -5  294.47    7.40
  -1   8   5  310.17    7.00
   0  -8  -5  102.29    3.60
   0   8   5   99.59    3.50
  -1  -8  -5   88.79    3.20
   1   8   5   91.19    2.10
   1   8   5   95.29    3.40
  -2  -8  -5  370.46    7.70
  -2  -8  -5  380.46    6.40
   2   8   5  379.36    8.10
  -3  -8  -5  538.45   10.20
  -3  -8  -5  554.54    9.20
   3   8   5  543.35   10.60
  -4  -8  -5  109.49    3.40
   4   8   5  100.99    3.50
  -5  -8  -5    7.50    1.20
  -5  -8  -5    9.80    1.10
   5   8   5    6.20    1.20
  -6  -8  -5   94.89    3.00
  -6  -8  -5   97.89    3.40
  -6  -8  -5   99.39    2.90
   6   8   5   92.49    3.30
  -7  -8  -5   42.80    2.20
  -7  -8  -5   40.70    2.10
  -7  -8  -5   39.10    2.30
   7   8   5   37.90    2.20
  -8  -8  -5  363.66    7.90
  -8  -8  -5  346.17    7.60
  -8  -8  -5  376.36    8.40
   8   8   5  372.06    7.70
  -9  -8  -5   52.09    3.00
  -9  -8  -5   51.59    2.80
  -9  -8  -5   48.90    2.80
   9   8   5   48.70    3.10
 -10  -8  -5    0.40    1.10
 -10  -8  -5    1.20    1.30
 -10  -8  -5   -0.60    1.10
  10   8   5   -1.00    1.10
   2  -9  -5  261.37    7.60
   2  -9  -5  267.57    7.50
   1  -9  -5  299.17    7.80
   1  -9  -5  298.27    7.60
  -1   9   5  293.97    7.30
   0  -9  -5  123.19    4.30
   0   9   5  129.89    4.40
  -1  -9  -5    1.20    1.00
   1   9   5    0.60    1.10
  -2  -9  -5    6.50    1.30
   2   9   5   10.00    1.60
  -3  -9  -5  205.18    5.20
   3   9   5  204.78    5.50
  -4  -9  -5   72.19    2.00
  -4  -9  -5   71.29    2.90
   4   9   5   76.59    3.20
  -5  -9  -5   99.79    3.60
  -5  -9  -5  104.59    2.80
   5   9   5  100.99    3.60
  -6  -9  -5   38.20    1.80
  -6  -9  -5   32.60    2.30
   6   9   5   33.80    2.20
  -7  -9  -5  933.31   17.00
  -7  -9  -5  920.81   15.90
  -7  -9  -5  945.41   16.10
   7   9   5  931.61   16.70
  -8  -9  -5   39.20    2.20
  -8  -9  -5   43.30    2.70
  -8  -9  -5   39.90    2.30
   8   9   5   39.30    2.30
  -9  -9  -5  231.38    6.50
  -9  -9  -5  230.98    6.00
  -9  -9  -5  230.08    5.90
   0 -10  -5   39.90    2.80
   0  10   5   46.40    2.90
  -1 -10  -5  100.29    3.90
   1  10   5   88.39    3.90
  -2 -10  -5  257.67    6.50
   2  10   5  260.37    6.90
  -3 -10  -5   50.89    2.70
   3  10   5   47.70    2.90
  -4 -10  -5   62.99    3.00
   4  10   5   60.19    3.10
  -5 -10  -5  197.88    5.40
   5  10   5  197.18    5.70
  -6 -10  -5  133.19    4.40
   6  10   5  142.49    4.60
  -7 -10  -5   -0.20    1.00
   7  10   5    0.60    1.10
  -8 -10  -5  184.28    5.60
   8  10   5  174.08    5.10
  -2 -11  -5  333.07    8.10
   2  11   5  333.97    8.50
  -3 -11  -5    1.40    1.10
   3  11   5   -2.20    1.00
  -4 -11  -5  190.88    5.40
   4  11   5  177.08    5.70
  -5 -11  -5   74.99    3.50
   5  11   5   73.79    3.60
  -6 -11  -5   14.70    2.00
   6  11   5   12.80    1.90
   3   8  -6   23.90    2.90
  -3  -8   6   27.50    2.40
   6   7  -6  165.18    5.70
  -6  -7   6  167.08    5.50
  -6  -7   6  174.18    5.60
   5   7  -6   67.19    3.70
  -5  -7   6   66.89    3.30
   4   7  -6    6.50    1.70
  -4  -7   6    4.80    1.40
   3   7  -6  136.09    5.30
  -3  -7   6  128.29    4.20
   2   7  -6  162.98    6.00
  -2  -7   6  161.18    4.80
   1   7  -6   10.00    2.00
  -1  -7   6   11.50    1.60
   0   7  -6  180.38    6.60
   0  -7   6  185.28    5.20
  -1   7  -6  111.79    5.30
   1  -7   6  112.79    4.10
  -7  -6   6   51.09    3.30
  -7  -6   6   44.90    2.50
  -6  -6   6   81.39    3.50
  -6  -6   6   73.29    2.80
  -6  -6   6   80.39    3.60
   5   6  -6   24.70    2.50
  -5  -6   6   26.50    2.30
  -5  -6   6   22.20    1.50
  -5  -6   6   22.00    2.20
   4   6  -6  524.55   11.50
  -4  -6   6  517.65    9.30
  -4  -6   6  514.55   10.50
   3   6  -6   14.20    2.10
  -3  -6   6   15.10    1.10
  -3  -6   6   14.30    1.70
   2   6  -6  135.99    5.10
  -2  -6   6  142.39    3.10
  -2  -6   6  137.09    4.10
   1   6  -6  126.09    5.00
  -1  -6   6  132.89    4.00
   0   6  -6   29.30    3.00
   0  -6   6   30.70    2.00
  -1   6  -6   24.70    2.80
   1  -6   6   29.20    2.10
  -2   6  -6   31.60    3.20
   2  -6   6   31.50    2.30
  -3   6  -6   16.50    2.50
   3  -6   6   19.60    2.10
   3  -6   6   18.70    2.20
   7   5  -6    1.90    1.30
  -7  -5   6    0.50    0.90
  -7  -5   6    0.90    1.20
  -6  -5   6    4.50    1.40
  -6  -5   6    2.70    1.10
  -6  -5   6    3.70    1.00
  -5  -5   6   62.89    3.00
  -5  -5   6   57.99    2.30
  -5  -5   6   56.99    2.90
   4   5  -6   23.10    2.20
  -4  -5   6   20.00    1.30
  -4  -5   6   22.10    2.00
  -4  -5   6   21.60    1.90
   3   5  -6  106.99    4.10
  -3  -5   6  108.59    3.50
  -3  -5   6  106.09    2.80
   2   5  -6   26.70    2.50
   2   5  -6   21.40    1.20
  -2  -5   6   22.20    1.80
  -2  -5   6   24.60    1.20
   1   5  -6   95.39    4.10
   1   5  -6   97.49    2.40
  -1  -5   6   97.69    3.20
   0   5  -6  468.85   10.70
   0   5  -6  459.35    8.10
   0  -5   6  459.85    9.00
  -1   5  -6   87.19    4.10
  -1   5  -6   84.59    2.40
   1  -5   6   90.79    3.10
  -2   5  -6   79.09    4.10
   2  -5   6   80.09    3.10
  -3   5  -6   69.09    3.80
   3  -5   6   56.19    2.90
   3  -5   6   59.59    3.00
  -4   5  -6   10.60    2.00
   4  -5   6    8.00    1.60
   4  -5   6    8.90    1.60
   4  -5   6   11.10    1.90
   8   4  -6   34.20    3.20
  -8  -4   6   30.60    2.50
   7   4  -6    2.30    1.30
  -7  -4   6    5.00    1.20
   6   4  -6   55.99    3.10
  -6  -4   6   55.59    2.50
  -6  -4   6   60.99    2.70
   5   4  -6  108.99    3.90
  -5  -4   6  105.29    3.60
  -5  -4   6  109.79    3.20
  -5  -4   6  108.69    3.80
  -4  -4   6  466.55    9.60
  -4  -4   6  462.15    9.30
  -4  -4   6  463.95    8.60
   3   4  -6    7.20    1.40
  -3  -4   6    7.20    1.30
  -3  -4   6    6.20    0.80
  -3  -4   6    8.20    1.20
   2   4  -6  515.25   10.80
   2   4  -6  502.75    8.90
  -2  -4   6  513.45   10.50
  -2  -4   6  517.85    9.50
   1   4  -6  393.76    7.10
   1   4  -6  396.86    9.00
  -1  -4   6  392.56    7.60
   0   4  -6   21.60    1.20
   0   4  -6   19.40    2.10
   0  -4   6   23.50    1.50
  -1   4  -6  363.86    6.80
  -1   4  -6  343.47    8.50
   1  -4   6  370.16    7.20
  -2   4  -6  562.54   12.10
   2  -4   6  567.34   10.60
  -3   4  -6  423.56    8.20
  -3   4  -6  429.66   10.00
   3  -4   6  420.26    8.90
   3  -4   6  417.66    8.70
   3  -4   6  425.36    9.70
  -4   4  -6  127.29    5.00
  -4   4  -6  139.69    3.90
   4  -4   6  139.79    4.90
   4  -4   6  131.09    4.50
   4  -4   6  133.49    4.40
  -5   4  -6   40.70    2.60
   5  -4   6   47.70    3.10
   5  -4   6   44.10    2.80
   5  -4   6   49.10    2.90
   8   3  -6    8.80    2.00
  -8  -3   6    9.60    1.70
   7   3  -6  240.68    7.10
  -7  -3   6  238.18    6.10
   6   3  -6   73.09    3.50
  -6  -3   6   71.09    2.70
  -6  -3   6   68.99    2.80
   5   3  -6   88.89    3.60
  -5  -3   6   86.39    2.90
  -5  -3   6   83.69    3.00
   4   3  -6   58.79    2.60
  -4  -3   6   57.89    2.10
  -4  -3   6   53.59    2.40
  -4  -3   6   57.19    2.50
   3   3  -6  776.02   13.10
  -3  -3   6  781.72   13.10
  -3  -3   6  784.72   14.20
  -3  -3   6  768.82   13.60
   2   3  -6  623.94   10.70
  -2  -3   6  633.64   11.10
  -2  -3   6  624.84   12.00
   1   3  -6   60.29    1.90
   1   3  -6   57.49    2.80
  -1  -3   6   58.79    2.10
  -1  -3   6   58.89    2.70
   0   3  -6  457.25    8.20
   0   3  -6  447.86    9.70
   0  -3   6  460.75    9.60
   0  -3   6  457.45    8.20
  -1   3  -6  181.58    4.00
  -1   3  -6  177.38    5.30
   1  -3   6  171.58    5.00
   1  -3   6  180.28    4.00
  -2   3  -6   20.40    2.20
  -2   3  -6   22.80    1.50
   2  -3   6   25.00    2.20
   2  -3   6   23.60    1.50
  -3   3  -6   20.80    2.30
  -3   3  -6   19.00    1.60
   3  -3   6   13.80    1.40
   3  -3   6   15.70    1.80
   3  -3   6   15.70    1.50
  -4   3  -6   11.90    1.40
   4  -3   6    9.20    1.50
   4  -3   6    9.30    1.40
   4  -3   6   10.30    1.40
  -5   3  -6   22.10    1.80
  -5   3  -6   23.40    1.90
   5  -3   6   27.70    2.20
   5  -3   6   24.00    2.30
   5  -3   6   25.50    2.30
  -6   3  -6  151.18    4.50
  -6   3  -6  158.48    4.80
   6  -3   6  165.78    5.30
   6  -3   6  152.28    5.30
   6  -3   6  153.08    5.20
   8   2  -6  175.88    6.30
  -8  -2   6  175.48    5.40
   7   2  -6  393.76    9.60
  -7  -2   6  373.16    8.40
   6   2  -6   63.59    3.30
  -6  -2   6   55.79    2.60
  -6  -2   6   61.29    2.30
   5   2  -6  203.68    5.70
  -5  -2   6  210.38    5.00
  -5  -2   6  208.58    4.90
   4   2  -6  436.36    9.00
  -4  -2   6  438.86    8.30
  -4  -2   6  442.46    8.70
   3   2  -6  163.68    4.20
   3   2  -6  165.48    3.80
  -3  -2   6  160.48    3.80
  -3  -2   6  157.48    4.30
   2   2  -6   20.20    1.20
  -2  -2   6   19.80    1.30
  -2  -2   6   19.00    1.70
   1   2  -6   33.20    1.40
  -1  -2   6   29.80    1.90
  -1  -2   6   28.00    1.30
   0   2  -6    2.50    0.60
   0  -2   6    1.90    0.60
   0  -2   6    2.30    0.60
   0  -2   6    3.00    0.90
  -1   2  -6 1198.68   19.30
   1  -2   6 1186.88   19.00
   1  -2   6 1188.78   20.60
  -2   2  -6  439.16    8.40
   2  -2   6  463.15    8.20
   2  -2   6  450.95    9.40
  -3   2  -6    4.00    0.90
   3  -2   6    0.50    0.80
   3  -2   6    0.60    0.60
   3  -2   6    1.10    0.70
  -4   2  -6  904.31   15.60
   4  -2   6  883.41   16.40
   4  -2   6  899.71   15.60
   4  -2   6  876.61   15.70
  -5   2  -6  372.46    8.00
  -5   2  -6  372.36    7.80
   5  -2   6  369.76    8.30
   5  -2   6  376.66    8.50
   5  -2   6  366.86    8.10
  -6   2  -6  100.09    3.60
  -6   2  -6   98.49    3.70
   6  -2   6   96.69    3.80
   6  -2   6   99.79    4.00
   6  -2   6  102.69    3.90
  -7   2  -6    1.50    1.10
  -7   2  -6    1.90    1.20
   7  -2   6    2.10    1.30
   7  -2   6    3.80    1.20
   8   1  -6   83.89    4.60
  -8  -1   6   76.49    3.70
   7   1  -6   58.69    3.60
  -7  -1   6   61.79    3.00
   6   1  -6  159.98    5.30
  -6  -1   6  157.68    4.50
  -6  -1   6  159.28    3.60
   5   1  -6   59.29    2.90
  -5  -1   6   60.19    2.40
  -5  -1   6   55.29    2.10
   4   1  -6    7.10    1.20
  -4  -1   6    8.20    1.10
  -4  -1   6    8.20    1.00
   3   1  -6  936.01   16.00
   3   1  -6  940.91   15.60
  -3  -1   6  947.51   15.60
  -3  -1   6  911.31   16.00
   2   1  -6  340.27    6.70
   2   1  -6  343.57    6.50
  -2  -1   6  344.37    7.20
  -2  -1   6  361.66    7.40
   1   1  -6  422.56    7.60
  -1  -1   6  421.26    7.60
  -1  -1   6  412.86    7.20
  -1  -1   6  412.46    8.30
   0   1  -6  105.79    2.80
   0  -1   6  109.39    2.60
   0  -1   6  109.99    2.40
   0  -1   6  108.29    3.40
  -1   1  -6   83.59    2.50
  -1   1  -6   91.89    2.20
   1  -1   6   92.19    2.10
   1  -1   6   96.09    3.20
  -2   1  -6   19.50    1.00
  -2   1  -6   20.10    1.30
   2  -1   6   19.30    1.60
   2  -1   6   20.40    1.00
   2  -1   6   19.60    1.10
  -3   1  -6  288.57    6.10
   3  -1   6  296.77    5.80
   3  -1   6  288.27    5.70
   3  -1   6  290.17    6.70
  -4   1  -6  193.98    4.80
  -4   1  -6  193.38    4.70
   4  -1   6  195.18    4.70
   4  -1   6  193.28    4.60
   4  -1   6  200.48    5.30
  -5   1  -6  100.99    3.50
  -5   1  -6  106.69    3.40
   5  -1   6   99.19    3.40
   5  -1   6  101.89    3.60
   5  -1   6   98.99    3.40
  -6   1  -6  101.39    3.60
  -6   1  -6  106.49    3.80
   6  -1   6  108.19    3.80
   6  -1   6   99.89    3.80
  -7   1  -6    4.40    1.20
  -7   1  -6    5.10    1.40
   7  -1   6    4.20    1.30
   7  -1   6    4.80    1.10
  -8   1  -6    0.80    1.10
  -8   1  -6    0.90    1.10
   8  -1   6    0.40    1.20
   8   0  -6  283.37    8.60
  -8   0   6  289.27    7.50
   7   0  -6  506.95   11.80
  -7   0   6  510.25   10.60
   6   0  -6    2.10    1.20
  -6   0   6    0.40    0.80
   5   0  -6   16.90    1.90
  -5   0   6   16.80    1.20
  -5   0   6   15.70    1.50
   4   0  -6  204.18    5.30
  -4   0   6  204.98    4.70
  -4   0   6  203.68    4.60
   3   0  -6  127.99    3.60
   3   0  -6  114.09    3.10
  -3   0   6  122.49    3.20
  -3   0   6  123.99    3.40
   2   0  -6  462.75    8.40
   2   0  -6  460.85    8.30
  -2   0   6  465.95    8.40
  -2   0   6  465.35    8.80
   1   0  -6  927.51   14.80
   1   0  -6  935.91   15.20
  -1   0   6  905.51   15.80
  -1   0   6  918.81   14.90
   0   0  -6  414.86    7.60
   0   0   6  424.76    8.30
   0   0   6  426.36    7.10
   0   0   6  422.06    6.90
  -1   0  -6  799.42   13.50
   1   0   6  802.32   14.30
   1   0   6  812.32   12.50
   1   0   6  811.02   12.70
  -2   0  -6  127.19    3.30
  -2   0  -6  125.79    2.50
   2   0   6  123.39    3.70
   2   0   6  132.69    2.60
   2   0   6  131.49    2.60
  -3   0  -6  162.88    3.20
  -3   0  -6  159.98    4.00
   3   0   6  153.98    4.30
   3   0   6  159.58    3.40
   3   0   6  161.68    3.50
  -4   0  -6  466.95    8.90
  -4   0  -6  468.35    9.10
   4   0   6  476.05    8.70
   4   0   6  454.75    9.30
  -5   0  -6  490.45    9.50
  -5   0  -6  486.55    9.30
   5   0   6  466.55    9.50
   5   0   6  464.95    9.30
  -6   0  -6  281.67    6.70
  -6   0  -6  270.67    6.40
   6   0   6  282.97    6.70
   6   0   6  279.67    6.50
  -7   0  -6  248.28    6.20
  -7   0  -6  243.28    6.40
   7   0   6  243.28    6.60
   7   0   6  253.57    6.10
  -8   0  -6   10.00    1.70
  -8   0  -6    7.30    1.40
   8   0   6   13.40    2.00
   7  -1  -6    1.70    1.40
  -7   1   6    0.50    1.10
   6  -1  -6  116.09    4.60
  -6   1   6  119.59    3.90
   5  -1  -6   13.60    1.70
  -5   1   6   14.70    1.40
  -5   1   6   15.10    1.10
  -5   1   6   14.10    1.10
   4  -1  -6   24.20    1.90
  -4   1   6   25.90    1.40
  -4   1   6   24.80    1.50
   3  -1  -6  163.28    4.30
   3  -1  -6  155.88    3.80
  -3   1   6  167.08    3.90
  -3   1   6  167.68    3.90
   2  -1  -6   31.20    1.60
  -2   1   6   32.30    1.40
  -2   1   6   34.60    1.70
  -2   1   6   32.70    1.40
   1  -1  -6 1547.95   24.60
   1  -1  -6 1598.84   25.00
  -1   1   6 1578.34   24.50
  -1   1   6 1539.55   25.50
  -1   1   6 1593.54   24.40
   0  -1  -6  758.02   11.70
   0  -1  -6  746.33   12.60
   0   1   6  758.52   11.70
   0   1   6  735.83   13.20
   0   1   6  763.02   11.70
  -1  -1  -6   63.49    2.00
   1   1   6   62.59    2.40
  -2  -1  -6   17.20    1.20
  -3  -1  -6  659.23   11.80
  -3  -1  -6  683.43   10.70
   3   1   6  681.53   11.00
   3   1   6  656.13   12.20
  -4  -1  -6 1022.30   16.10
  -4  -1  -6 1004.20   17.00
  -4  -1  -6  988.70   17.20
   4   1   6 1013.00   17.40
   4   1   6 1021.80   16.60
  -5  -1  -6   58.29    2.40
  -5  -1  -6   53.69    2.50
   5   1   6   57.49    2.30
   5   1   6   59.59    2.50
  -6  -1  -6  297.17    6.80
  -6  -1  -6  299.07    7.00
   6   1   6  308.57    6.90
   6   1   6  306.37    6.70
  -7  -1  -6    8.20    1.40
  -7  -1  -6    7.40    1.50
   7   1   6    8.00    1.50
   7   1   6    7.70    1.20
  -8  -1  -6    0.40    1.10
  -8  -1  -6    0.30    1.10
  -9  -1  -6   26.90    2.50
  -9  -1  -6   31.70    2.80
   9   1   6   30.60    2.90
   7  -2  -6  125.99    5.40
  -7   2   6  130.99    4.50
  -6   2   6  214.98    5.60
   5  -2  -6   98.59    4.10
  -5   2   6  102.09    2.60
  -5   2   6  102.39    3.40
  -5   2   6   98.49    2.60
   4  -2  -6   55.29    2.80
  -4   2   6   63.19    2.40
  -4   2   6   57.49    2.00
  -4   2   6   55.69    2.00
   3  -2  -6   62.29    2.50
  -3   2   6   57.29    2.10
  -3   2   6   61.49    2.10
   2  -2  -6 2360.86   37.10
   2  -2  -6 2370.86   37.40
  -2   2   6 2399.56   37.40
   1  -2  -6 2931.01   45.00
   1  -2  -6 2805.62   45.00
  -1   2   6 2933.01   45.60
  -1   2   6 2946.11   44.60
  -1   2   6 2973.20   44.60
   0   2   6  214.38    4.90
   0   2   6  210.08    3.60
  -1  -2  -6 2400.56   37.50
   1   2   6 2425.76   38.20
  -2  -2  -6 1991.90   31.50
  -3  -2  -6    9.80    0.50
  -3  -2  -6    9.50    0.50
  -3  -2  -6    9.70    1.10
   3   2   6    8.40    1.10
   3   2   6   10.00    0.60
  -4  -2  -6    3.40    0.90
  -4  -2  -6    3.40    0.50
  -4  -2  -6    3.10    0.80
  -4  -2  -6    2.40    0.50
   4   2   6    1.50    0.70
   4   2   6    1.50    0.50
  -5  -2  -6  254.07    5.80
  -5  -2  -6  264.77    6.00
   5   2   6  259.27    5.60
   5   2   6  265.17    5.90
  -6  -2  -6   72.39    3.00
  -6  -2  -6   74.39    2.90
   6   2   6   73.79    2.70
   6   2   6   72.49    2.80
  -7  -2  -6  326.57    7.50
  -7  -2  -6  328.27    7.70
   7   2   6  341.87    7.80
   7   2   6  342.17    7.10
  -8  -2  -6   20.70    2.00
  -8  -2  -6   22.90    2.30
   8   2   6   22.50    2.30
  -9  -2  -6   -0.90    1.10
  -9  -2  -6    0.00    1.10
   9   2   6    0.30    1.20
   7  -3  -6    6.60    1.90
  -7   3   6    6.90    1.60
   6  -3  -6  449.66   10.70
  -6   3   6  436.26    9.30
   5  -3  -6    3.10    1.30
  -5   3   6    4.10    0.80
  -5   3   6    2.20    0.90
  -5   3   6    3.30    0.80
   4  -3  -6  254.47    6.60
  -4   3   6  262.97    5.30
  -4   3   6  260.37    5.70
  -4   3   6  259.67    5.30
   3  -3  -6  132.59    4.00
  -3   3   6  124.49    3.30
  -3   3   6  126.19    3.30
  -3   3   6  125.79    3.30
   2  -3  -6  571.54   10.60
   2  -3  -6  570.84   10.00
  -2   3   6  578.84   10.30
  -2   3   6  575.64   10.30
   1  -3  -6  574.04    9.90
   1  -3  -6  576.34   10.10
  -1   3   6  569.94   10.40
  -1   3   6  579.04    9.60
   0  -3  -6   33.20    1.40
   0  -3  -6   39.10    1.30
   0  -3  -6   37.30    1.30
   0   3   6   28.60    1.00
   0   3   6   39.20    1.80
  -1  -3  -6   39.80    1.50
  -1  -3  -6   37.50    1.00
  -1  -3  -6   37.50    1.00
   1   3   6   39.10    1.00
  -2  -3  -6  311.37    5.20
  -2  -3  -6  317.87    6.20
  -2  -3  -6  313.27    5.00
  -3  -3  -6  755.32   11.90
  -3  -3  -6  750.92   13.00
  -3  -3  -6  752.12   12.00
   3   3   6  758.32   13.30
  -4  -3  -6  409.46    7.20
  -4  -3  -6  406.56    7.90
  -4  -3  -6  402.36    7.80
   4   3   6  408.06    7.20
   4   3   6  401.96    8.00
  -5  -3  -6  106.99    3.30
  -5  -3  -6  107.89    3.20
   5   3   6  108.09    3.00
   5   3   6  102.99    3.20
  -6  -3  -6  270.37    6.20
  -6  -3  -6  255.87    6.20
   6   3   6  281.57    6.00
   6   3   6  283.57    6.20
  -7  -3  -6   40.70    2.40
  -7  -3  -6   38.40    2.40
   7   3   6   39.40    2.00
   7   3   6   41.20    2.40
  -8  -3  -6   63.29    3.20
  -8  -3  -6   66.79    3.10
   8   3   6   65.09    2.50
   8   3   6   73.99    3.40
  -9  -3  -6  119.69    4.40
  -9  -3  -6  122.89    4.60
   9   3   6  116.19    4.70
 -10  -3  -6  209.38    6.40
 -10  -3  -6  210.48    6.60
  10   3   6  215.18    6.90
   6  -4  -6   26.00    2.90
  -6   4   6   30.30    2.40
   5  -4  -6   29.60    2.70
  -5   4   6   29.20    1.60
  -5   4   6   28.20    2.00
   4  -4  -6    5.90    1.40
  -4   4   6    2.60    0.80
  -4   4   6    3.20    0.90
  -4   4   6    3.60    0.80
   3  -4  -6   65.29    3.00
  -3   4   6   70.89    2.40
  -3   4   6   65.49    2.30
  -3   4   6   65.09    2.40
   2  -4  -6  547.15   10.40
   2  -4  -6  543.25   10.50
   2  -4  -6  568.64    9.80
  -2   4   6  556.44    9.80
  -2   4   6  556.44   10.10
  -2   4   6  558.64   10.10
   1  -4  -6  252.97    5.30
   1  -4  -6  247.28    5.30
   1  -4  -6  251.57    5.00
  -1   4   6  246.38    5.40
  -1   4   6  254.77    5.50
   0  -4  -6  545.55    9.50
   0  -4  -6  548.15    9.40
   0  -4  -6  551.64    9.50
   0   4   6  550.54   10.20
   0   4   6  548.55    9.20
   0   4   6  556.04   10.10
  -1  -4  -6  527.15    8.70
  -1  -4  -6  522.25    9.10
   1   4   6  528.25    8.70
   1   4   6  510.65    9.70
  -2  -4  -6  441.66    7.50
  -2  -4  -6  438.66    7.20
   2   4   6  435.16    8.50
  -3  -4  -6  548.95    9.80
  -3  -4  -6  550.04    9.00
  -3  -4  -6  547.35    9.30
   3   4   6  543.85   10.10
  -4  -4  -6 2358.46   36.80
  -4  -4  -6 2374.26   36.50
  -4  -4  -6 2379.56   37.40
   4   4   6 2348.47   37.50
  -5  -4  -6 1544.45   25.50
  -5  -4  -6 1555.64   25.30
   5   4   6 1570.14   25.00
   5   4   6 1548.05   25.40
  -6  -4  -6   42.50    2.20
  -6  -4  -6   41.40    2.20
   6   4   6   42.90    2.00
   6   4   6   42.00    2.10
  -7  -4  -6  795.02   14.70
  -7  -4  -6  791.22   14.50
   7   4   6  812.22   14.70
   7   4   6  806.42   14.00
  -8  -4  -6   29.60    2.40
  -8  -4  -6   27.40    2.20
   8   4   6   28.10    2.30
   8   4   6   26.70    1.70
  -9  -4  -6    4.70    1.50
  -9  -4  -6    4.60    1.30
   9   4   6    4.90    1.40
 -10  -4  -6   60.79    3.50
 -10  -4  -6   62.09    3.60
  10   4   6   57.19    3.70
   5  -5  -6    1.50    1.40
  -5   5   6   -0.10    0.90
   4  -5  -6  157.78    5.30
  -4   5   6  150.38    4.10
  -4   5   6  155.18    4.00
   3  -5  -6   73.99    3.40
   3  -5  -6   73.29    3.20
  -3   5   6   71.39    2.50
  -3   5   6   74.29    2.60
  -3   5   6   69.29    2.60
   2  -5  -6   23.20    1.90
   2  -5  -6   22.00    1.90
  -2   5   6   21.30    1.50
  -2   5   6   20.30    1.60
  -2   5   6   20.90    1.30
   1  -5  -6    8.80    1.10
   1  -5  -6    8.60    0.90
   1  -5  -6    8.60    1.10
  -1   5   6    8.70    1.20
  -1   5   6    7.70    1.10
   0  -5  -6  361.86    6.90
   0  -5  -6  357.46    7.00
   0  -5  -6  365.66    6.60
   0   5   6  367.96    7.40
   0   5   6  359.16    7.30
  -1  -5  -6   90.69    2.40
  -1  -5  -6   93.49    2.40
   1   5   6   93.99    3.00
   1   5   6   92.89    3.00
  -2  -5  -6  183.58    3.70
  -2  -5  -6  179.68    3.90
   2   5   6  170.88    4.40
   2   5   6  183.98    4.50
   2   5   6  186.78    3.80
  -3  -5  -6  304.27    5.50
  -3  -5  -6  298.27    6.00
  -3  -5  -6  298.37    5.80
   3   5   6  297.07    6.40
   3   5   6  296.77    6.30
  -4  -5  -6  220.08    4.40
  -4  -5  -6  216.28    4.90
  -4  -5  -6  215.08    5.10
   4   5   6  211.38    5.00
   4   5   6  217.78    5.10
  -5  -5  -6   41.10    1.70
  -5  -5  -6   40.80    2.00
  -5  -5  -6   44.20    2.00
   5   5   6   40.60    2.00
   5   5   6   42.30    1.80
   5   5   6   40.70    2.00
  -6  -5  -6  870.51   15.10
  -6  -5  -6  871.71   15.30
   6   5   6  859.81   15.00
   6   5   6  870.41   15.10
   6   5   6  852.21   15.00
  -7  -5  -6   28.10    2.30
  -7  -5  -6   27.20    2.00
   7   5   6   24.80    1.90
   7   5   6   24.60    1.60
   7   5   6   22.60    1.60
  -8  -5  -6  106.59    4.00
  -8  -5  -6  114.09    3.90
   8   5   6  112.99    3.30
   8   5   6  111.39    3.30
   8   5   6  116.79    4.10
  -9  -5  -6   29.00    2.50
  -9  -5  -6   34.00    2.90
   9   5   6   29.90    2.70
 -10  -5  -6   59.99    3.60
 -10  -5  -6   60.69    3.50
  10   5   6   61.99    3.70
   5  -6  -6  385.56   10.10
  -5   6   6  373.36    8.10
   4  -6  -6  173.38    6.00
   4  -6  -6  180.38    5.90
  -4   6   6  175.68    4.60
  -4   6   6  176.18    4.60
   3  -6  -6   70.79    3.40
   3  -6  -6   75.79    3.60
  -3   6   6   66.99    2.70
  -3   6   6   67.59    2.50
   2  -6  -6  163.18    4.90
   2  -6  -6  163.28    4.80
  -2   6   6  164.58    3.90
  -2   6   6  165.28    4.30
  -2   6   6  167.58    4.40
   1  -6  -6  590.04   11.30
   1  -6  -6  594.84   11.40
  -1   6   6  603.84   11.10
  -1   6   6  604.54   11.10
  -1   6   6  602.34   10.30
   0  -6  -6  132.49    3.60
   0  -6  -6  132.19    3.00
   0  -6  -6  130.89    3.70
   0   6   6  130.49    3.80
   0   6   6  126.79    3.80
  -1  -6  -6  385.76    7.30
  -1  -6  -6  380.46    6.90
   1   6   6  382.46    7.80
   1   6   6  393.26    7.90
  -2  -6  -6  371.36    6.80
  -2  -6  -6  375.76    6.80
   2   6   6  356.36    7.50
   2   6   6  360.76    7.50
  -3  -6  -6    2.30    0.60
   3   6   6    1.20    0.70
   3   6   6    0.60    0.70
  -4  -6  -6  273.37    5.40
  -4  -6  -6  266.97    5.60
   4   6   6  272.07    6.00
   4   6   6  258.47    5.90
  -5  -6  -6  379.96    7.50
  -5  -6  -6  368.46    7.20
   5   6   6  367.26    7.60
   5   6   6  373.56    7.60
  -6  -6  -6   55.39    2.40
  -6  -6  -6   58.59    2.60
  -6  -6  -6   60.79    2.30
   6   6   6   56.19    2.40
   6   6   6   55.39    2.40
  -7  -6  -6 1016.10   17.80
  -7  -6  -6 1016.90   18.10
   7   6   6 1040.30   17.60
   7   6   6 1022.30   17.50
   7   6   6 1061.69   18.30
  -8  -6  -6    9.90    1.60
  -8  -6  -6    8.20    1.40
   8   6   6    9.40    1.20
   8   6   6    8.40    1.10
   8   6   6    9.00    1.40
  -9  -6  -6   70.99    3.30
  -9  -6  -6   75.89    3.50
   9   6   6   76.99    3.70
 -10  -6  -6   60.59    3.40
 -10  -6  -6   55.79    3.40
  10   6   6   59.49    3.50
   4  -7  -6   -0.30    1.20
   4  -7  -6    1.90    1.50
  -4   7   6   -0.30    0.90
   3  -7  -6   -0.40    1.00
   3  -7  -6    1.10    1.20
  -3   7   6    1.80    1.00
  -3   7   6    0.90    0.80
   2  -7  -6    0.50    1.00
   2  -7  -6    0.50    1.00
  -2   7   6    1.60    0.70
  -2   7   6    0.80    0.90
   1  -7  -6  167.88    4.80
   1  -7  -6  166.18    4.90
  -1   7   6  170.88    4.60
  -1   7   6  165.18    3.70
   0  -7  -6  714.73   11.90
   0  -7  -6  726.33   13.10
   0   7   6  727.43   13.20
   0   7   6  712.83   13.20
   0   7   6  714.13   12.00
  -1  -7  -6  296.47    6.30
  -1  -7  -6  302.37    5.60
   1   7   6  300.67    6.70
   1   7   6  305.17    6.70
  -2  -7  -6   27.20    1.20
  -2  -7  -6   22.00    1.40
   2   7   6   23.50    1.80
   2   7   6   22.60    1.80
  -3  -7  -6   91.89    2.50
  -3  -7  -6   92.69    2.70
   3   7   6   89.19    3.10
   3   7   6   90.89    3.20
  -4  -7  -6   16.50    1.30
  -4  -7  -6   16.30    1.30
   4   7   6   14.60    1.50
   4   7   6   14.30    1.50
  -5  -7  -6    1.60    0.80
  -5  -7  -6    1.40    0.70
   5   7   6    2.10    0.90
   5   7   6    0.90    0.90
  -6  -7  -6  135.89    3.70
  -6  -7  -6  131.29    3.70
  -6  -7  -6  127.79    3.80
   6   7   6  130.79    3.80
   6   7   6  132.79    3.90
  -7  -7  -6    9.80    1.30
  -7  -7  -6   11.50    1.50
  -7  -7  -6   11.10    1.40
   7   7   6   10.00    1.30
   7   7   6    7.60    1.20
  -8  -7  -6  261.07    6.20
  -8  -7  -6  260.37    6.40
  -8  -7  -6  252.47    6.30
   8   7   6  257.47    5.80
   8   7   6  250.97    5.80
   8   7   6  249.48    6.50
  -9  -7  -6  131.59    4.40
  -9  -7  -6  137.69    4.70
   9   7   6  132.89    4.80
 -10  -7  -6    0.80    1.20
 -10  -7  -6    0.30    1.30
  10   7   6   -0.80    1.10
   3  -8  -6   64.99    3.90
   3  -8  -6   66.19    3.80
  -3   8   6   60.69    3.00
   2  -8  -6   67.39    3.60
   2  -8  -6   65.89    3.40
  -2   8   6   68.79    3.10
   1  -8  -6  374.16    8.50
   1  -8  -6  367.36    8.60
  -1   8   6  375.36    8.20
   0  -8  -6    8.00    1.40
   0   8   6    7.10    0.80
   0   8   6    5.10    1.30
  -1  -8  -6  293.27    6.60
  -1  -8  -6  307.17    5.60
   1   8   6  303.17    7.00
  -2  -8  -6  324.97    5.90
  -2  -8  -6  308.07    6.70
   2   8   6  330.97    7.30
   2   8   6  325.17    7.30
  -3  -8  -6   17.30    1.10
  -3  -8  -6   16.90    1.50
   3   8   6   17.70    1.70
   3   8   6   14.50    1.60
  -4  -8  -6  408.26    7.50
  -4  -8  -6  408.16    8.10
   4   8   6  410.06    8.60
   4   8   6  417.86    8.60
  -5  -8  -6  113.29    3.20
  -5  -8  -6  117.99    3.50
   5   8   6  116.69    3.70
   5   8   6  115.99    3.70
  -6  -8  -6   30.40    2.00
  -6  -8  -6   34.40    1.90
   6   8   6   35.00    2.10
   6   8   6   31.30    2.00
  -7  -8  -6  627.94   11.60
  -7  -8  -6  628.14   11.90
  -7  -8  -6  613.34   11.70
   7   8   6  626.64   11.80
   7   8   6  624.94   11.80
  -8  -8  -6   40.80    2.50
  -8  -8  -6   42.10    2.40
  -8  -8  -6   41.60    2.50
   8   8   6   44.80    2.30
   8   8   6   45.70    2.30
  -9  -8  -6  122.79    4.30
  -9  -8  -6  118.19    4.10
  -9  -8  -6  123.09    4.40
   1  -9  -6   50.79    3.20
   1  -9  -6   42.90    2.90
  -1   9   6   48.40    2.80
   0  -9  -6   43.30    2.60
   0   9   6   38.50    2.60
  -1  -9  -6    0.60    0.90
   1   9   6    0.60    1.10
  -2  -9  -6   46.50    2.40
   2   9   6   39.90    2.50
  -3  -9  -6  110.09    2.60
  -3  -9  -6  107.99    3.50
   3   9   6  108.49    3.90
  -4  -9  -6   18.00    1.10
  -4  -9  -6   16.00    1.60
   4   9   6   12.90    1.60
  -5  -9  -6  188.38    5.00
   5   9   6  194.68    5.30
  -6  -9  -6  512.55   10.20
  -6  -9  -6  521.55    9.70
   6   9   6  527.35   10.50
  -7  -9  -6   78.49    3.20
  -7  -9  -6   72.49    2.80
   7   9   6   71.69    3.10
  -8  -9  -6   28.70    2.30
  -8  -9  -6   28.20    2.00
  -8  -9  -6   29.60    2.10
   8   9   6   26.10    2.00
  -9  -9  -6   19.50    2.00
  -9  -9  -6   19.70    1.90
  -9  -9  -6   20.80    2.20
   0 -10  -6   21.30    2.40
   0 -10  -6   18.60    2.20
   0  10   6   18.70    2.10
  -1 -10  -6  232.18    6.20
   1  10   6  216.28    6.20
  -2 -10  -6   62.69    2.90
   2  10   6   53.19    3.10
  -3 -10  -6   99.59    3.60
   3  10   6  100.99    4.00
  -4 -10  -6  693.93   13.10
   4  10   6  698.43   13.60
  -5 -10  -6  346.07    7.70
   5  10   6  340.47    8.00
  -6 -10  -6   10.30    1.60
   6  10   6    7.90    1.50
  -7 -10  -6  339.47    7.80
   7  10   6  328.87    7.80
  -8 -10  -6   76.69    3.50
   8  10   6   81.49    3.40
  -3 -11  -6   12.50    1.70
   3  11   6   17.30    2.20
  -4 -11  -6    8.80    1.60
   4  11   6    6.90    1.60
  -5 -11  -6   30.30    2.30
   5  11   6   27.10    2.50
  -6 -11  -6  303.67    7.40
   6  11   6  295.07    7.60
   4   7  -7  272.77    8.10
  -4  -7   7  281.07    8.00
  -4  -7   7  281.77    7.00
   3   7  -7   93.39    4.70
  -3  -7   7   96.09    3.70
   2   7  -7    7.20    1.90
  -2  -7   7    6.90    1.40
   1   7  -7   44.10    3.60
  -1  -7   7   44.40    2.60
   0   7  -7    1.30    1.50
   0  -7   7    3.10    1.10
  -6  -6   7   56.89    2.60
  -6  -6   7   62.39    3.30
  -6  -6   7   54.69    3.20
  -5  -6   7  134.69    4.60
  -5  -6   7  128.89    3.60
  -5  -6   7  131.29    4.90
   4   6  -7   36.60    2.90
  -4  -6   7   34.70    2.40
  -4  -6   7   38.40    2.90
  -4  -6   7   35.70    1.80
   3   6  -7   43.80    3.20
  -3  -6   7   38.30    2.00
  -3  -6   7   37.50    2.40
  -3  -6   7   39.90    2.90
   2   6  -7  117.69    5.00
  -2  -6   7  109.29    3.70
   1   6  -7    2.70    1.50
  -1  -6   7    2.00    1.00
   0   6  -7  105.29    4.90
   0  -6   7  104.89    3.60
  -1   6  -7   18.20    2.50
   1  -6   7   22.10    2.00
  -2   6  -7   -0.30    1.30
   2  -6   7    1.20    1.30
   2  -6   7    1.60    1.00
  -7  -5   7  100.09    3.70
  -7  -5   7  108.99    4.50
  -6  -5   7   -0.50    0.90
  -6  -5   7    0.50    0.80
  -6  -5   7    2.30    1.30
  -5  -5   7   74.59    3.50
  -5  -5   7   79.19    3.30
  -5  -5   7   71.19    2.60
  -4  -5   7   48.90    2.00
  -4  -5   7   50.39    3.00
  -4  -5   7   51.99    2.70
   3   5  -7   43.20    2.90
  -3  -5   7   38.40    2.70
  -3  -5   7   33.30    1.60
  -3  -5   7   36.20    2.20
   2   5  -7  464.25   10.70
   2   5  -7  465.55    8.30
  -2  -5   7  460.75    9.10
  -2  -5   7  456.85   10.40
   1   5  -7  385.36    9.60
   1   5  -7  407.26    7.30
  -1  -5   7  386.86    9.40
  -1  -5   7  395.96    8.00
   0   5  -7   61.49    3.60
   0   5  -7   65.49    2.20
   0  -5   7   63.69    3.50
   0  -5   7   64.79    2.60
  -1   5  -7  149.09    5.50
   1  -5   7  136.49    4.00
   1  -5   7  136.29    5.10
  -2   5  -7   57.59    3.60
   2  -5   7   52.49    2.60
   2  -5   7   46.10    3.20
  -3   5  -7   17.10    2.50
   3  -5   7   17.30    2.00
   3  -5   7   15.40    2.20
   3  -5   7   18.50    1.90
   4  -5   7    5.10    1.50
   4  -5   7    5.50    1.60
   4  -5   7    7.20    1.50
   7   4  -7   24.20    2.50
  -7  -4   7   27.80    2.20
   6   4  -7  204.28    6.10
  -6  -4   7  204.58    5.90
  -6  -4   7  205.28    5.30
  -6  -4   7  207.38    5.50
  -5  -4   7   70.39    3.20
  -5  -4   7   73.59    3.20
  -5  -4   7   76.29    2.70
  -4  -4   7   29.10    2.20
  -4  -4   7   25.20    1.50
  -4  -4   7   25.30    2.00
   3   4  -7  241.58    5.20
  -3  -4   7  245.18    6.50
  -3  -4   7  253.87    5.80
  -3  -4   7  249.97    5.20
   2   4  -7  468.25    8.50
  -2  -4   7  470.55   10.30
  -2  -4   7  478.55    9.00
   1   4  -7  286.77    5.70
   1   4  -7  292.37    7.60
  -1  -4   7  281.67    6.00
  -1  -4   7  276.97    7.30
   0   4  -7  154.98    3.70
   0   4  -7  149.49    5.20
   0  -4   7  151.28    5.10
   0  -4   7  152.68    3.90
  -1   4  -7  452.25   10.60
  -1   4  -7  480.85    8.60
   1  -4   7  461.45    8.90
   1  -4   7  457.75   10.40
  -2   4  -7   -0.70    0.60
  -2   4  -7    0.90    1.20
   2  -4   7    0.20    1.00
   2  -4   7    0.00    0.80
  -3   4  -7   63.79    2.50
   3  -4   7   59.99    2.70
   3  -4   7   62.59    2.90
   3  -4   7   61.99    3.40
  -4   4  -7    9.40    1.30
   4  -4   7    7.50    1.70
   4  -4   7    8.00    1.40
   4  -4   7    7.10    1.40
   5  -4   7   16.50    2.20
   5  -4   7   14.10    1.90
   5  -4   7   13.70    1.90
   7   3  -7  327.17    8.60
  -7  -3   7  313.47    7.40
   6   3  -7   43.60    2.90
  -6  -3   7   41.80    2.30
  -6  -3   7   42.90    2.30
   5   3  -7    3.30    1.10
  -5  -3   7    3.90    0.90
  -5  -3   7    2.80    1.00
   4   3  -7  288.37    6.60
  -4  -3   7  274.97    6.40
  -4  -3   7  280.77    6.70
  -4  -3   7  279.57    6.00
   3   3  -7  279.37    5.80
  -3  -3   7  279.77    6.80
  -3  -3   7  277.77    5.70
  -3  -3   7  276.47    6.00
   2   3  -7  413.46    7.70
  -2  -3   7  400.86    7.80
  -2  -3   7  415.66    9.00
   1   3  -7  135.79    3.40
  -1  -3   7  136.79    3.40
  -1  -3   7  135.29    4.50
   0   3  -7    4.50    0.80
   0  -3   7    6.20    0.90
   0  -3   7    2.80    1.10
  -1   3  -7   16.40    1.30
   1  -3   7   19.50    1.30
   1  -3   7   13.70    1.80
  -2   3  -7  113.19    3.20
   2  -3   7  107.39    3.20
   2  -3   7  112.09    4.30
  -3   3  -7    2.80    0.90
   3  -3   7    2.20    1.10
   3  -3   7    2.40    0.90
   3  -3   7    2.10    0.90
  -4   3  -7    4.10    1.00
   4  -3   7    3.40    1.10
   4  -3   7    3.50    1.10
   4  -3   7    6.10    1.50
  -5   3  -7   36.50    2.20
   5  -3   7   32.70    2.40
   5  -3   7   31.40    2.30
   5  -3   7   31.40    2.60
  -6   3  -7   31.50    2.30
   6  -3   7   32.90    2.60
   6  -3   7   31.60    2.70
   6  -3   7   37.60    2.90
   7   2  -7    1.80    1.40
  -7  -2   7    0.70    1.00
   6   2  -7    5.10    1.40
  -6  -2   7    2.60    1.00
  -6  -2   7    3.90    0.90
   5   2  -7    1.20    0.90
  -5  -2   7    1.20    0.80
  -5  -2   7    1.10    0.80
   4   2  -7    2.80    0.90
  -4  -2   7    2.30    0.90
  -4  -2   7    1.70    0.70
   3   2  -7  365.96    7.50
   3   2  -7  370.86    7.20
  -3  -2   7  372.16    8.00
  -3  -2   7  370.86    7.40
  -3  -2   7  370.66    7.20
   2   2  -7  538.55    9.70
  -2  -2   7  540.05    9.60
  -2  -2   7  550.14   10.80
   1   2  -7   24.50    1.40
  -1  -2   7   26.60    2.00
  -1  -2   7   26.50    1.30
   0   2  -7  172.28    4.00
   0  -2   7  166.88    5.00
   0  -2   7  174.58    3.70
  -1   2  -7  223.68    4.90
   1  -2   7  220.58    4.40
   1  -2   7  212.48    5.80
   2  -2   7  331.07    6.40
   2  -2   7  329.77    7.80
  -3   2  -7  676.23   12.40
   3  -2   7  691.13   12.30
   3  -2   7  706.93   12.20
   3  -2   7  681.53   13.50
  -4   2  -7  176.08    4.70
   4  -2   7  178.38    4.60
   4  -2   7  178.28    5.40
   4  -2   7  182.48    4.70
  -5   2  -7   54.49    2.60
   5  -2   7   50.29    2.60
   5  -2   7   53.39    3.00
   5  -2   7   56.29    2.80
  -6   2  -7   28.40    2.20
  -6   2  -7   27.90    2.10
   6  -2   7   28.70    2.50
   6  -2   7   28.90    2.30
  -7   2  -7  109.29    4.00
  -7   2  -7  107.09    4.20
   7  -2   7  116.59    4.70
   7  -2   7  104.49    4.30
   7   1  -7  225.88    7.00
  -7  -1   7  243.68    6.30
   6   1  -7   -0.70    1.00
  -6  -1   7    0.40    0.80
   5   1  -7  289.57    7.20
  -5  -1   7  281.37    6.40
  -5  -1   7  293.57    6.20
   4   1  -7  148.99    4.40
  -4  -1   7  153.88    4.00
  -4  -1   7  153.38    4.20
   3   1  -7  120.69    3.20
   3   1  -7  113.79    3.40
  -3  -1   7  114.49    3.60
   2   1  -7  596.14   10.40
   2   1  -7  576.94   10.30
  -2  -1   7  587.44   10.20
  -2  -1   7  585.94   11.20
   1   1  -7  395.26    7.50
  -1  -1   7  394.66    7.00
  -1  -1   7  395.36    8.30
  -1  -1   7  393.26    7.30
   0   1  -7   15.50    1.20
   0  -1   7   15.50    0.90
   0  -1   7   14.50    1.60
   0  -1   7   15.50    1.00
  -1   1  -7  300.77    6.10
   1  -1   7  301.67    5.60
   1  -1   7  301.37    5.30
   1  -1   7  293.17    7.00
  -2   1  -7  791.52   12.90
  -2   1  -7  785.02   13.70
   2  -1   7  786.12   12.90
   2  -1   7  785.12   12.90
   2  -1   7  787.72   14.70
  -3   1  -7    0.90    0.80
   3  -1   7    1.70    0.90
   3  -1   7   -0.50    0.50
   3  -1   7   -0.20    0.50
  -4   1  -7  201.08    5.10
   4  -1   7  197.08    4.70
   4  -1   7  198.68    5.60
   4  -1   7  198.98    4.80
  -5   1  -7  398.76    8.60
  -5   1  -7  405.26    8.40
   5  -1   7  418.56    9.10
   5  -1   7  400.86    8.50
   5  -1   7  410.66    8.40
  -6   1  -7   84.99    3.50
  -6   1  -7   89.99    3.40
   6  -1   7   86.79    3.60
   6  -1   7   89.59    3.50
  -7   1  -7   32.40    2.50
  -7   1  -7   30.80    2.30
   7  -1   7   25.40    2.30
   7  -1   7   32.10    2.80
   7   0  -7   50.29    3.50
  -7   0   7   50.09    2.90
   6   0  -7  116.69    4.70
  -6   0   7  115.29    3.90
   5   0  -7   64.49    3.20
  -5   0   7   63.89    2.70
  -5   0   7   66.89    2.40
   4   0  -7  323.17    7.50
  -4   0   7  343.17    7.00
  -4   0   7  345.57    7.00
   3   0  -7   79.19    2.60
   3   0  -7   75.19    2.70
  -3   0   7   79.59    2.80
  -3   0   7   81.09    2.60
   2   0  -7  799.32   13.70
   2   0  -7  803.12   13.60
  -2   0   7  810.62   13.60
  -2   0   7  798.22   14.30
   1   0  -7   28.10    1.20
   1   0  -7   30.40    1.50
  -1   0   7   30.20    1.30
  -1   0   7   30.90    1.90
  -1   0   7   30.60    1.20
   0   0  -7  847.72   14.80
   0   0   7  898.91   13.90
   0   0   7  897.21   14.10
   0   0   7  898.51   15.80
  -1   0  -7  747.83   13.00
   1   0   7  765.22   12.00
   1   0   7  763.22   11.80
   1   0   7  742.43   13.80
  -2   0  -7   27.90    1.00
  -2   0  -7   24.90    1.50
   2   0   7   26.50    1.90
   2   0   7   28.70    1.00
   2   0   7   27.50    1.00
  -3   0  -7  615.14    9.90
  -3   0  -7  595.34   11.00
   3   0   7  591.24   10.00
   3   0   7  578.74   11.50
   3   0   7  599.14   10.10
  -4   0  -7  187.58    4.80
   4   0   7  185.98    4.30
   4   0   7  185.18    5.10
  -5   0  -7  132.49    4.00
  -5   0  -7  124.69    3.80
   5   0   7  125.89    3.70
   5   0   7  117.69    4.00
  -6   0  -7    1.50    0.90
  -6   0  -7    3.80    1.20
   6   0   7    2.40    1.00
   6   0   7    2.50    1.00
  -7   0  -7  173.58    5.30
  -7   0  -7  176.98    5.20
   7   0   7  172.48    5.30
   7   0   7  175.98    5.20
  -8   0  -7   -1.20    1.10
  -8   0  -7   -0.30    1.00
   8   0   7   -2.60    0.90
   7  -1  -7  184.78    6.50
  -7   1   7  192.98    5.60
   6  -1  -7   11.80    1.90
  -6   1   7   14.80    1.70
   5  -1  -7  383.16    9.00
  -5   1   7  387.36    7.30
  -5   1   7  383.16    8.00
   4  -1  -7   36.60    2.30
  -4   1   7   36.50    1.80
  -4   1   7   36.30    1.90
   3  -1  -7    3.90    0.80
   3  -1  -7    7.40    1.10
  -3   1   7    3.70    0.80
  -3   1   7    6.90    1.00
   2  -1  -7   60.59    2.10
   2  -1  -7   60.99    2.20
  -2   1   7   63.29    2.50
  -2   1   7   62.29    2.00
  -2   1   7   59.59    1.90
   1  -1  -7  282.27    5.70
   1  -1  -7  281.37    5.30
  -1   1   7  282.87    5.20
  -1   1   7  282.97    6.30
  -1   1   7  287.17    5.10
   0   1   7   45.20    1.10
   0   1   7   49.50    2.20
   0   1   7   45.60    1.10
   0   1   7   45.30    1.10
  -1  -1  -7   10.40    1.10
   1   1   7   12.70    1.40
  -2  -1  -7  883.61   15.10
   2   1   7  884.11   15.70
  -3  -1  -7  180.28    4.50
  -3  -1  -7  182.88    3.30
   3   1   7  186.88    5.00
   3   1   7  187.88    3.60
  -4  -1  -7  787.62   12.60
  -4  -1  -7  772.12   14.00
   4   1   7  788.02   13.10
   4   1   7  780.12   14.40
  -5  -1  -7    5.40    1.10
  -5  -1  -7    4.00    1.10
   5   1   7    3.50    1.00
   5   1   7    5.30    0.90
  -6  -1  -7   89.89    3.40
  -6  -1  -7   95.29    3.60
   6   1   7   95.09    3.50
   6   1   7   97.39    3.30
  -7  -1  -7  282.27    7.00
  -7  -1  -7  292.17    7.30
   7   1   7  303.77    7.00
  -8  -1  -7   56.39    3.10
  -8  -1  -7   55.79    3.20
   8   1   7   55.99    3.30
  -9  -1  -7    2.00    1.30
  -9  -1  -7    4.40    1.40
   9   1   7    3.30    1.40
   7  -2  -7    6.30    1.80
  -7   2   7    5.00    1.40
   6  -2  -7  187.98    6.30
  -6   2   7  189.68    5.30
   5  -2  -7  105.49    4.30
  -5   2   7  106.79    2.90
  -5   2   7  105.59    3.60
  -5   2   7  105.99    2.90
   4  -2  -7   70.99    3.20
  -4   2   7   71.89    2.50
  -4   2   7   69.39    2.60
   3  -2  -7  103.99    3.40
   3  -2  -7  102.09    3.00
  -3   2   7  101.39    3.00
  -3   2   7  104.39    3.10
   2  -2  -7  512.35    9.60
   2  -2  -7  521.95    9.40
  -2   2   7  525.35    9.80
   1  -2  -7  261.07    5.40
   1  -2  -7  265.67    5.20
  -1   2   7  264.37    4.80
  -1   2   7  271.67    5.90
  -1   2   7  267.57    4.90
   0  -2  -7  633.84   10.10
   0   2   7  626.04   11.60
   0   2   7  639.44    9.90
  -1  -2  -7  420.26    7.80
   1   2   7  415.16    8.40
  -2  -2  -7  280.57    5.90
   2   2   7  280.97    6.30
  -3  -2  -7  306.47    6.40
   3   2   7  298.17    6.70
  -4  -2  -7  184.88    3.40
   4   2   7  175.88    4.80
   4   2   7  178.78    3.70
  -5  -2  -7  214.68    5.30
  -5  -2  -7  215.58    5.40
   5   2   7  217.68    4.80
   5   2   7  211.68    5.40
  -6  -2  -7  877.71   15.70
  -6  -2  -7  863.91   15.90
   6   2   7  892.71   15.50
   6   2   7  872.71   15.70
  -7  -2  -7  302.07    7.10
  -7  -2  -7  288.67    7.20
   7   2   7  279.27    6.70
   7   2   7  308.67    7.10
  -8  -2  -7   -0.60    1.00
  -8  -2  -7    0.50    1.10
   8   2   7   -0.50    0.70
   8   2   7    0.80    1.00
  -9  -2  -7  212.68    6.20
  -9  -2  -7  211.08    6.50
   9   2   7  213.88    6.60
   6  -3  -7   47.40    3.30
  -6   3   7   43.90    2.70
   5  -3  -7  367.26    9.00
  -5   3   7  367.06    8.00
  -5   3   7  372.46    7.10
  -5   3   7  373.26    7.10
   4  -3  -7  105.69    4.00
  -4   3   7  105.39    3.00
  -4   3   7  107.09    3.40
  -4   3   7  104.19    3.00
   3  -3  -7    4.40    1.10
  -3   3   7    4.90    0.90
  -3   3   7    4.10    0.90
  -3   3   7    3.80    0.80
   2  -3  -7  199.48    4.50
   2  -3  -7  194.38    4.70
  -2   3   7  196.68    4.70
   1  -3  -7 1163.28   18.80
   1  -3  -7 1156.78   18.80
  -1   3   7 1140.09   19.40
  -1   3   7 1146.39   18.20
   0  -3  -7    2.80    0.60
   0  -3  -7    2.80    0.50
   0   3   7    2.30    0.80
   0   3   7    3.60    0.40
   1   3   7  252.07    5.80
   2   3   7  866.71   15.30
  -3  -3  -7    1.40    0.70
   3   3   7    1.70    0.80
  -4  -3  -7  535.25   10.30
  -4  -3  -7  553.04    9.00
  -4  -3  -7  543.85    9.00
   4   3   7  555.64    9.10
   4   3   7  547.15   10.50
  -5  -3  -7    1.90    0.80
  -5  -3  -7    2.20    0.50
  -5  -3  -7    1.70    0.90
  -5  -3  -7    2.20    0.50
   5   3   7    1.30    0.60
   5   3   7    2.10    0.80
  -6  -3  -7    1.30    1.00
  -6  -3  -7    3.10    1.00
   6   3   7    1.70    0.80
   6   3   7    3.20    0.90
  -7  -3  -7   33.60    2.30
  -7  -3  -7   34.40    2.40
   7   3   7   32.50    2.10
   7   3   7   36.30    2.10
  -8  -3  -7   40.90    2.60
  -8  -3  -7   42.30    2.80
   8   3   7   42.60    2.60
   8   3   7   39.00    2.20
  -9  -3  -7   56.39    3.40
  -9  -3  -7   54.29    3.20
   9   3   7   49.99    3.20
   6  -4  -7  145.59    5.80
  -6   4   7  154.68    4.80
   5  -4  -7   67.89    3.70
  -5   4   7   60.49    2.80
   4  -4  -7   14.50    1.90
  -4   4   7   13.50    1.50
  -4   4   7   14.10    1.30
  -4   4   7   13.70    1.30
   3  -4  -7  144.39    4.50
  -3   4   7  143.49    3.80
  -3   4   7  142.99    3.80
  -3   4   7  141.49    3.80
   2  -4  -7  433.56    8.10
   2  -4  -7  423.86    8.60
  -2   4   7  435.06    8.10
  -2   4   7  430.36    8.40
  -2   4   7  431.66    8.40
   1  -4  -7   10.70    1.10
   1  -4  -7    9.90    1.10
   1  -4  -7   10.60    1.10
  -1   4   7    9.00    1.20
  -1   4   7   10.30    1.30
   0  -4  -7  542.85    9.40
   0  -4  -7  532.25    9.60
   0  -4  -7  538.55    9.30
   0   4   7  553.94   10.30
   0   4   7  543.55    9.10
  -1  -4  -7  385.56    6.60
  -1  -4  -7  376.26    6.50
  -1  -4  -7  381.06    7.20
   1   4   7  367.16    7.70
   1   4   7  381.06    6.40
  -2  -4  -7   54.39    1.30
  -2  -4  -7   54.39    1.50
  -2  -4  -7   54.79    2.00
   2   4   7   58.89    2.40
  -3  -4  -7  493.35    7.80
  -3  -4  -7  479.95    9.10
  -3  -4  -7  484.45    8.10
   3   4   7  480.05    9.50
  -4  -4  -7  434.76    8.60
  -4  -4  -7  442.56    7.70
  -4  -4  -7  452.25    7.50
   4   4   7  435.16    8.80
  -5  -4  -7   43.50    1.70
  -5  -4  -7   41.00    2.20
  -5  -4  -7   43.10    2.10
   5   4   7   40.30    1.70
   5   4   7   43.40    2.20
  -6  -4  -7  693.73   12.90
  -6  -4  -7  716.23   13.20
   6   4   7  699.93   12.50
   6   4   7  704.73   12.90
  -7  -4  -7  204.78    5.60
  -7  -4  -7  204.98    5.40
   7   4   7  204.88    5.30
   7   4   7  206.98    5.10
  -8  -4  -7   44.30    2.70
  -8  -4  -7   38.00    2.70
   8   4   7   39.80    2.10
   8   4   7   42.40    2.60
  -9  -4  -7  168.68    5.60
  -9  -4  -7  183.28    5.50
   9   4   7  172.88    5.60
 -10  -4  -7   98.99    4.30
 -10  -4  -7   93.99    4.40
  10   4   7   91.79    4.40
   5  -5  -7   67.19    3.90
  -5   5   7   72.59    3.10
   4  -5  -7    7.30    1.60
  -4   5   7    5.90    1.10
  -4   5   7    9.60    1.30
   3  -5  -7   -0.30    0.90
  -3   5   7   -0.20    0.70
  -3   5   7    1.00    0.80
  -3   5   7    1.10    0.70
   2  -5  -7   44.50    2.40
   2  -5  -7   42.90    2.40
  -2   5   7   47.30    2.00
  -2   5   7   44.70    2.20
  -2   5   7   47.00    2.20
   1  -5  -7  846.22   15.00
   1  -5  -7  881.81   14.60
   1  -5  -7  856.31   15.20
  -1   5   7  872.61   15.20
  -1   5   7  893.91   15.30
   0  -5  -7   33.60    1.70
   0  -5  -7   33.10    1.50
   0  -5  -7   35.70    1.60
   0   5   7   37.40    2.10
   0   5   7   37.20    2.00
  -1  -5  -7  826.42   13.80
  -1  -5  -7  811.92   13.60
  -1  -5  -7  836.72   13.60
   1   5   7  823.82   14.70
   1   5   7  820.52   13.50
   1   5   7  825.52   14.60
  -2  -5  -7  300.47    6.10
  -2  -5  -7  319.87    5.90
  -2  -5  -7  314.67    5.60
   2   5   7  319.47    6.90
   2   5   7  314.97    5.80
  -3  -5  -7   12.10    1.20
  -3  -5  -7   12.00    0.80
  -3  -5  -7   14.20    1.00
   3   5   7   12.00    1.30
  -4  -5  -7 1359.56   22.00
  -4  -5  -7 1362.46   22.50
  -4  -5  -7 1387.46   21.60
   4   5   7 1366.96   22.90
  -5  -5  -7  363.86    6.80
  -5  -5  -7  360.76    7.50
   5   5   7  368.06    7.70
  -6  -5  -7  219.18    5.50
  -6  -5  -7  221.48    5.40
   6   5   7  220.98    5.10
   6   5   7  220.48    5.40
  -7  -5  -7  127.99    4.10
  -7  -5  -7  114.99    3.80
   7   5   7  120.89    3.80
   7   5   7  117.49    3.70
  -8  -5  -7   39.20    2.60
  -8  -5  -7   35.40    2.60
   8   5   7   32.70    2.30
   8   5   7   37.20    2.00
   8   5   7   35.50    2.00
  -9  -5  -7   35.30    2.70
  -9  -5  -7   37.30    2.80
   9   5   7   36.00    2.70
 -10  -5  -7  105.29    4.50
 -10  -5  -7  111.09    4.70
  10   5   7  127.59    5.00
   4  -6  -7   16.80    2.30
  -4   6   7   15.30    1.50
  -4   6   7   13.70    1.50
   3  -6  -7    1.20    1.10
   3  -6  -7    1.60    1.10
  -3   6   7   -0.20    0.80
  -3   6   7    1.70    0.80
   2  -6  -7    1.30    1.00
   2  -6  -7    0.70    1.00
  -2   6   7    1.80    0.70
  -2   6   7    1.50    0.90
  -2   6   7    1.00    0.90
   1  -6  -7    3.50    1.00
   1  -6  -7    3.50    0.80
   1  -6  -7    3.80    1.00
  -1   6   7    2.50    0.90
  -1   6   7    2.70    1.00
  -1   6   7    2.50    0.70
   0  -6  -7  261.07    5.70
   0  -6  -7  252.17    5.60
   0  -6  -7  255.37    5.10
   0   6   7  245.68    5.90
   0   6   7  248.78    5.90
  -1  -6  -7  665.63   11.50
  -1  -6  -7  682.43   11.60
   1   6   7  662.53   12.40
   1   6   7  666.93   12.40
  -2  -6  -7   15.30    1.10
  -2  -6  -7   15.90    1.10
   2   6   7   12.60    1.40
   2   6   7   11.20    1.30
  -3  -6  -7  789.62   13.70
  -3  -6  -7  830.62   13.30
   3   6   7  791.52   14.50
   3   6   7  816.62   14.60
  -4  -6  -7  224.28    4.60
  -4  -6  -7  228.38    5.10
   4   6   7  231.68    5.60
   4   6   7  220.78    5.50
  -5  -6  -7  137.99    3.80
  -5  -6  -7  137.69    3.40
   5   6   7  129.89    3.90
   5   6   7  135.29    4.00
  -6  -6  -7  267.27    5.70
  -6  -6  -7  278.87    6.30
  -6  -6  -7  259.97    6.00
   6   6   7  270.87    6.20
   6   6   7  270.87    6.20
  -7  -6  -7   60.39    2.90
  -7  -6  -7   64.49    2.60
  -7  -6  -7   67.09    2.90
   7   6   7   66.79    2.70
   7   6   7   61.29    2.70
   7   6   7   65.29    2.70
  -8  -6  -7   46.10    2.70
  -8  -6  -7   45.40    2.80
   8   6   7   41.60    2.20
   8   6   7   40.70    2.50
   8   6   7   44.00    2.30
  -9  -6  -7   99.19    4.10
  -9  -6  -7   93.49    3.90
   9   6   7   95.29    4.00
 -10  -6  -7   51.79    3.40
 -10  -6  -7   50.69    3.20
  10   6   7   46.60    3.30
   3  -7  -7   11.40    1.90
   3  -7  -7    9.10    1.80
  -3   7   7   11.00    1.50
  -3   7   7    9.40    1.20
   2  -7  -7   21.00    2.20
   2  -7  -7   20.50    2.10
  -2   7   7   20.70    1.50
  -2   7   7   22.20    1.90
   1  -7  -7   64.49    2.90
   1  -7  -7   58.59    2.90
  -1   7   7   56.69    2.60
  -1   7   7   59.39    2.70
  -1   7   7   56.99    2.10
   0  -7  -7  115.09    3.60
   0  -7  -7  103.39    2.80
   0  -7  -7  112.59    3.50
   0   7   7  107.99    3.70
   0   7   7  101.89    3.60
  -1  -7  -7  535.55    9.80
  -1  -7  -7  528.45    9.30
   1   7   7  522.15   10.40
   1   7   7  524.75   10.40
  -2  -7  -7   12.70    1.20
  -2  -7  -7   14.10    1.10
   2   7   7   15.40    1.60
   2   7   7   16.60    1.80
  -3  -7  -7    0.40    0.60
  -3  -7  -7    0.80    0.60
   3   7   7    0.90    0.90
   3   7   7    1.10    0.90
  -4  -7  -7  472.55    8.90
  -4  -7  -7  477.15    8.70
   4   7   7  471.15    9.50
   4   7   7  471.75    9.50
  -5  -7  -7  201.48    4.60
  -5  -7  -7  204.98    4.90
   5   7   7  205.68    5.30
   5   7   7  208.38    5.30
  -6  -7  -7  342.97    7.10
  -6  -7  -7  354.66    7.50
   6   7   7  363.16    7.70
   6   7   7  358.76    7.70
  -7  -7  -7  493.15    9.90
  -7  -7  -7  517.15   10.20
  -7  -7  -7  501.15    9.80
   7   7   7  503.65    9.90
   7   7   7  511.45   10.00
  -8  -7  -7  361.96    8.00
  -8  -7  -7  359.26    8.30
  -8  -7  -7  378.46    8.20
   8   7   7  365.46    7.80
   8   7   7  380.56    8.30
   8   7   7  362.76    7.80
  -9  -7  -7   20.20    2.20
  -9  -7  -7   20.80    2.10
   9   7   7   18.70    2.10
   2  -8  -7  117.09    4.70
   2  -8  -7  116.59    4.50
  -2   8   7  112.09    3.90
   1  -8  -7    7.30    1.40
   1  -8  -7    6.90    1.50
  -1   8   7    7.80    1.40
  -1   8   7    7.10    1.20
   0  -8  -7  116.89    3.90
   0  -8  -7  117.29    4.00
   0   8   7  116.89    4.00
   0   8   7  116.29    3.00
   0   8   7  119.69    4.00
  -1  -8  -7  123.89    3.00
  -1  -8  -7  119.19    3.70
   1   8   7  120.09    4.10
   1   8   7  116.69    4.00
  -2  -8  -7   34.80    1.50
  -2  -8  -7   33.20    1.90
   2   8   7   38.40    2.40
   2   8   7   37.60    2.40
  -3  -8  -7  954.40   15.50
  -3  -8  -7  923.51   15.90
   3   8   7  916.31   16.70
   3   8   7  935.11   16.80
  -4  -8  -7  425.06    8.00
  -4  -8  -7  427.36    8.20
   4   8   7  420.16    8.90
   4   8   7  427.36    9.00
  -5  -8  -7   29.80    1.80
  -5  -8  -7   32.40    1.90
   5   8   7   30.50    2.10
   5   8   7   33.10    2.20
  -6  -8  -7  249.88    5.80
  -6  -8  -7  243.68    5.60
   6   8   7  242.18    6.00
   6   8   7  252.07    6.20
  -7  -8  -7  168.08    4.60
  -7  -8  -7  162.58    4.60
   7   8   7  172.48    4.80
   7   8   7  170.08    4.70
  -8  -8  -7   53.29    2.80
  -8  -8  -7   48.50    2.60
  -8  -8  -7   48.20    2.60
   8   8   7   52.99    2.60
   8   8   7   51.39    2.50
  -9  -8  -7  193.18    5.70
  -9  -8  -7  185.78    5.40
  -9  -8  -7  196.28    5.50
   9   8   7  185.98    6.00
   9   8   7  181.18    5.80
   1  -9  -7  171.48    5.40
   1  -9  -7  160.38    5.50
  -1   9   7  161.88    5.00
   0  -9  -7   64.19    3.10
   0  -9  -7   67.89    3.40
   0   9   7   62.29    3.20
  -1  -9  -7  135.69    4.30
   1   9   7  140.99    4.60
  -2  -9  -7   42.30    2.30
  -2  -9  -7   44.20    1.60
   2   9   7   46.50    2.70
  -3  -9  -7   35.80    2.00
  -3  -9  -7   34.20    1.50
   3   9   7   33.70    2.40
   3   9   7   35.80    2.50
  -4  -9  -7    3.90    1.00
  -4  -9  -7    4.00    0.80
   4   9   7    2.80    1.10
   4   9   7    3.30    1.20
  -5  -9  -7   36.60    2.20
   5   9   7   37.60    2.40
   5   9   7   40.30    2.60
  -6  -9  -7  100.39    3.20
  -6  -9  -7   96.59    3.40
   6   9   7   98.19    3.70
   6   9   7   96.19    3.70
  -7  -9  -7  200.08    5.10
  -7  -9  -7  195.58    5.20
   7   9   7  196.38    5.30
   7   9   7  195.38    5.40
  -8  -9  -7   50.39    2.70
  -8  -9  -7   45.80    2.60
   8   9   7   45.70    2.60
   8   9   7   45.20    2.60
  -9  -9  -7   26.50    2.40
  -9  -9  -7   26.50    2.30
  -9  -9  -7   23.10    2.20
   9   9   7   25.30    2.10
  -1 -10  -7    8.70    1.50
   1  10   7   10.10    1.80
  -2 -10  -7   44.60    2.50
   2  10   7   47.30    3.00
  -3 -10  -7  186.48    5.10
   3  10   7  201.58    5.80
  -4 -10  -7   22.50    1.90
   4  10   7   15.00    1.90
  -5 -10  -7  163.68    4.70
   5  10   7  160.68    5.10
  -6 -10  -7  184.18    5.10
   6  10   7  191.18    5.50
  -7 -10  -7  101.09    3.80
  -7 -10  -7   95.49    3.70
   7  10   7  109.39    4.00
  -8 -10  -7   24.50    2.00
  -8 -10  -7   22.00    2.20
   8  10   7   20.40    2.00
  -3 -11  -7    2.10    1.10
   3  11   7    1.00    1.30
  -4 -11  -7  180.18    5.20
   4  11   7  175.48    5.60
  -5 -11  -7  166.58    5.00
   5  11   7  166.08    5.40
  -6 -11  -7    4.00    1.30
   6  11   7    7.00    1.60
  -4  -6   8   32.90    3.00
  -4  -6   8   31.20    2.40
  -3  -6   8   44.10    2.60
  -3  -6   8   44.60    3.20
   2   6  -8    0.20    1.30
  -2  -6   8    0.90    1.20
  -2  -6   8    0.60    1.00
   1   6  -8  100.79    4.90
  -1  -6   8   95.99    4.70
  -1  -6   8   99.59    3.50
   0   6  -8  142.09    6.00
   0  -6   8  152.08    4.50
   0  -6   8  143.89    5.70
  -1   6  -8    0.50    1.40
   1  -6   8    1.80    1.40
   1  -6   8    0.40    1.00
  -5  -5   8  141.69    4.00
  -5  -5   8  137.89    4.60
  -5  -5   8  140.29    5.00
  -4  -5   8   71.39    3.10
  -4  -5   8   76.99    3.80
  -4  -5   8   67.69    2.50
  -3  -5   8   30.60    2.80
  -3  -5   8   32.60    1.70
  -3  -5   8   32.30    2.10
   2   5  -8  132.09    3.40
  -2  -5   8  127.49    5.10
  -2  -5   8  129.39    3.90
  -1  -5   8    0.30    0.80
  -1  -5   8   -0.20    1.10
   0   5  -8   87.29    4.40
   0  -5   8   91.19    4.40
   0  -5   8   91.89    3.10
   1  -5   8   10.60    2.00
   1  -5   8   14.80    1.60
   2  -5   8   10.90    1.50
   2  -5   8    9.20    1.90
   3  -5   8   11.60    1.70
   3  -5   8    9.00    1.60
   3  -5   8   12.70    2.20
  -6  -4   8    9.50    1.40
  -6  -4   8    8.00    1.60
  -6  -4   8    8.20    1.50
  -5  -4   8    1.70    1.10
  -5  -4   8    3.70    1.00
  -5  -4   8    1.80    1.10
  -4  -4   8    1.50    0.70
  -4  -4   8    2.00    1.00
  -4  -4   8    3.30    1.20
   3   4  -8   17.10    1.40
  -3  -4   8   15.80    1.40
  -3  -4   8   16.80    1.60
  -3  -4   8   16.60    2.00
   2   4  -8   69.69    2.40
  -2  -4   8   68.59    2.60
  -2  -4   8   73.99    3.70
   1   4  -8  384.66    7.30
  -1  -4   8  367.36    7.50
  -1  -4   8  370.86    9.20
   0   4  -8   12.50    1.20
   0  -4   8   13.40    1.40
   0  -4   8   17.90    2.20
  -1   4  -8   80.69    2.70
   1  -4   8   76.09    3.90
   1  -4   8   81.39    2.80
  -2   4  -8  149.99    3.90
   2  -4   8  147.59    5.40
   2  -4   8  145.19    4.10
  -3   4  -8   -0.70    0.70
   3  -4   8    0.70    0.90
   3  -4   8   -0.30    1.10
   3  -4   8    0.40    0.90
   4  -4   8    0.10    0.90
   4  -4   8    1.40    1.00
   4  -4   8    0.80    1.10
   7   3  -8    4.90    1.50
  -7  -3   8    5.00    1.40
   6   3  -8  363.46    8.80
  -6  -3   8  346.47    9.50
  -6  -3   8  350.26    7.80
   5   3  -8  354.26    8.20
  -5  -3   8  358.76    7.60
  -5  -3   8  353.46    8.00
  -5  -3   8  365.66    8.20
  -4  -3   8   15.60    1.80
  -4  -3   8   16.00    1.60
  -4  -3   8   16.10    1.50
   3   3  -8  138.89    3.70
  -3  -3   8  141.89    4.70
  -3  -3   8  135.49    3.70
  -3  -3   8  142.59    3.90
   2   3  -8  415.96    7.90
  -2  -3   8  396.56    9.20
  -2  -3   8  412.26    7.90
   1   3  -8   33.10    1.70
  -1  -3   8   33.20    2.50
  -1  -3   8   30.50    1.60
   0   3  -8  403.56    7.80
   0  -3   8  416.66    9.60
   0  -3   8  407.56    7.60
  -1   3  -8  792.32   13.80
   1  -3   8  795.12   15.70
   1  -3   8  798.12   13.60
  -2   3  -8   19.90    1.50
   2  -3   8   18.50    2.20
   2  -3   8   19.20    1.50
   3  -3   8    3.50    1.00
   3  -3   8    3.10    0.90
   3  -3   8    2.40    1.20
  -4   3  -8    7.20    1.20
   4  -3   8    6.40    1.20
   4  -3   8    4.60    1.40
   4  -3   8    5.10    1.20
  -5   3  -8    0.50    0.90
   5  -3   8   -2.40    0.90
   5  -3   8    0.20    0.90
   5  -3   8   -0.40    0.80
   7   2  -8   63.99    3.80
  -7  -2   8   72.39    3.30
   6   2  -8   18.70    2.20
  -6  -2   8   20.30    1.90
   5   2  -8   64.39    3.20
  -5  -2   8   66.59    2.90
  -5  -2   8   67.09    2.80
   4   2  -8  158.98    4.60
  -4  -2   8  158.08    4.70
  -4  -2   8  156.08    4.20
   3   2  -8  419.76    8.20
  -3  -2   8  435.36    9.30
  -3  -2   8  416.66    8.20
   2   2  -8  176.78    4.20
  -2  -2   8  166.08    5.10
  -2  -2   8  170.88    4.00
   1   2  -8  253.07    5.50
  -1  -2   8  252.57    6.60
  -1  -2   8  251.87    5.10
   0   2  -8   13.90    1.30
   0  -2   8   10.90    1.70
   0  -2   8   13.90    1.10
  -1   2  -8   29.10    1.60
   1  -2   8   28.60    1.40
   1  -2   8   29.10    2.30
  -2   2  -8    1.00    0.80
   2  -2   8    2.10    1.10
   2  -2   8    1.60    0.60
  -3   2  -8   69.89    2.80
   3  -2   8   73.29    2.60
   3  -2   8   80.49    3.70
   3  -2   8   69.49    2.50
  -4   2  -8   38.60    2.20
   4  -2   8   38.40    2.10
   4  -2   8   38.40    2.10
   4  -2   8   39.50    2.80
  -5   2  -8    8.00    1.30
   5  -2   8    6.70    1.50
   5  -2   8    7.30    1.30
   5  -2   8    5.90    1.20
  -6   2  -8  228.08    6.20
   6  -2   8  217.58    6.70
   6  -2   8  230.88    6.30
   7   1  -8   36.80    3.20
  -7  -1   8   31.30    2.50
   6   1  -8  158.58    5.40
  -6  -1   8  156.68    4.70
   5   1  -8  268.47    6.80
  -5  -1   8  267.27    6.10
  -5  -1   8  251.37    6.10
   4   1  -8    1.30    0.80
  -4  -1   8    1.10    0.70
  -4  -1   8    0.80    0.80
   3   1  -8   53.39    2.20
   3   1  -8   57.29    2.40
  -3  -1   8   56.39    2.70
   2   1  -8  160.58    4.00
  -2  -1   8  156.08    3.70
  -2  -1   8  156.48    4.70
   1   1  -8   19.90    1.40
  -1  -1   8   18.40    1.20
  -1  -1   8   17.90    1.10
  -1  -1   8   15.80    1.70
   0   1  -8  385.46    7.50
   0  -1   8  382.16    6.60
   0  -1   8  376.66    7.00
   0  -1   8  374.36    8.50
  -1   1  -8 1401.26   22.90
   1  -1   8 1428.96   21.90
   1  -1   8 1384.76   22.20
   1  -1   8 1385.06   24.20
  -2   1  -8   10.90    1.30
   2  -1   8   11.50    0.90
   2  -1   8    8.60    1.50
   2  -1   8   12.10    0.90
  -3   1  -8 1014.00   17.50
   3  -1   8 1013.50   16.60
   3  -1   8 1001.10   18.50
   3  -1   8 1005.90   16.70
  -4   1  -8   44.50    2.40
   4  -1   8   41.70    1.90
   4  -1   8   40.30    2.00
   4  -1   8   40.10    2.70
  -5   1  -8    7.00    1.30
   5  -1   8    6.70    1.40
   5  -1   8    6.80    1.20
  -6   1  -8   20.80    2.10
   6  -1   8   21.90    2.30
   6  -1   8   26.50    2.10
  -7   1  -8   39.00    2.70
  -7   1  -8   37.00    2.50
   7  -1   8   37.70    2.70
   7  -1   8   37.40    2.70
   7   0  -8   27.50    2.90
  -7   0   8   24.90    2.30
   6   0  -8  117.19    4.70
  -6   0   8  111.69    4.00
   5   0  -8   14.10    1.80
  -5   0   8   10.90    1.40
  -5   0   8   10.80    1.30
   4   0  -8  166.88    4.70
  -4   0   8  162.18    4.40
  -4   0   8  164.38    4.50
   3   0  -8    1.30    0.80
   3   0  -8    1.10    0.70
  -3   0   8    1.80    0.90
   2   0  -8   51.79    2.10
   2   0  -8   51.19    2.00
  -2   0   8   46.50    2.50
   1   0  -8  669.43   11.80
  -1   0   8  660.93   12.70
  -1   0   8  667.53   11.20
  -1   0   8  669.63   11.00
   0   0  -8  182.18    4.40
   0   0   8  184.08    5.10
   0   0   8  185.98    3.40
  -1   0  -8    1.70    0.70
   1   0   8    0.20    0.30
   1   0   8    1.20    0.90
   1   0   8    0.40    0.30
  -2   0  -8    2.90    0.80
   2   0   8    4.90    0.50
   2   0   8    4.10    0.50
   2   0   8    4.00    0.50
   2   0   8    3.30    1.10
  -3   0  -8   92.09    3.20
   3   0   8   99.79    2.40
   3   0   8   96.49    3.80
   3   0   8   97.89    2.50
  -4   0  -8    1.70    0.90
   4   0   8    2.50    0.70
   4   0   8    2.50    1.10
  -5   0  -8   70.29    3.10
   5   0   8   71.29    3.30
   5   0   8   68.39    2.60
  -6   0  -8  152.78    4.80
  -6   0  -8  146.99    4.60
   6   0   8  155.68    4.50
   6   0   8  141.29    4.80
  -7   0  -8   -0.60    1.00
  -7   0  -8    0.90    1.00
   7   0   8    1.30    1.00
   7   0   8   -0.10    0.90
  -8   0  -8   24.00    2.30
  -8   0  -8   27.50    2.70
   8   0   8   21.40    2.40
   7  -1  -8   29.90    3.00
  -7   1   8   26.70    2.40
   6  -1  -8   17.00    2.20
  -6   1   8   15.10    1.80
   5  -1  -8   95.09    4.00
  -5   1   8   92.99    3.40
  -5   1   8  101.49    3.10
   4  -1  -8   13.10    1.60
  -4   1   8   11.40    1.30
  -4   1   8   16.00    1.50
   3  -1  -8   32.10    1.90
   3  -1  -8   32.60    1.80
  -3   1   8   34.20    1.80
  -3   1   8   33.30    2.00
   2  -1  -8  315.57    6.50
   2  -1  -8  307.87    6.30
  -2   1   8  326.07    7.10
   1  -1  -8   22.20    1.50
   1  -1  -8   22.40    1.10
  -1   1   8   19.50    1.70
  -1   1   8   23.40    1.00
  -1   1   8   23.40    1.00
   0  -1  -8 1007.30   16.90
   0   1   8 1005.70   17.80
  -1  -1  -8  883.71   15.30
   1   1   8  916.81   16.30
   2   1   8   85.29    3.30
  -3  -1  -8 1560.84   25.70
   3   1   8 1555.74   26.40
  -4  -1  -8   18.10    1.70
   4   1   8   16.90    1.80
   4   1   8   16.60    1.10
  -5  -1  -8   15.50    1.70
   5   1   8   16.10    1.40
   5   1   8   12.50    1.60
  -6  -1  -8   42.20    2.60
  -6  -1  -8   44.10    2.60
   6   1   8   48.50    2.70
  -7  -1  -8  498.45   10.80
  -7  -1  -8  505.15   10.60
   7   1   8  518.45   10.70
  -8  -1  -8    1.00    1.10
  -8  -1  -8    0.00    1.10
   8   1   8   -2.10    0.90
   6  -2  -8   -0.90    1.20
  -6   2   8    0.60    1.00
   5  -2  -8   35.60    2.70
  -5   2   8   38.80    1.90
  -5   2   8   37.00    1.90
  -5   2   8   38.60    2.30
   4  -2  -8  221.08    6.00
  -4   2   8  228.38    5.30
  -4   2   8  226.28    5.40
   3  -2  -8   64.19    2.40
   3  -2  -8   63.09    2.70
  -3   2   8   63.89    2.60
  -3   2   8   59.39    2.40
   2  -2  -8   97.49    2.90
   2  -2  -8   96.39    3.00
  -2   2   8   99.09    3.30
   1  -2  -8  207.88    4.20
   1  -2  -8  197.08    4.60
  -1   2   8  198.68    5.10
  -1   2   8  204.98    3.80
   0  -2  -8  188.98    4.50
   0   2   8  196.48    5.10
   1   2   8  427.26    8.90
   2   2   8 1000.30   17.80
  -3  -2  -8  620.04   11.60
   3   2   8  641.84   12.30
  -4  -2  -8   10.90    1.40
   4   2   8    9.30    0.70
   4   2   8    7.30    1.30
  -5  -2  -8   46.80    2.50
   5   2   8   49.99    1.90
   5   2   8   50.49    2.60
  -6  -2  -8   92.39    3.60
  -6  -2  -8   96.69    3.60
   6   2   8   94.89    3.20
   6   2   8   89.49    3.50
  -7  -2  -8    0.40    0.90
  -7  -2  -8    1.40    1.10
   7   2   8    1.60    0.90
   7   2   8    1.20    0.90
  -8  -2  -8  236.88    6.70
  -8  -2  -8  242.78    6.50
   8   2   8  233.68    6.50
   8   2   8  232.18    6.10
  -9  -2  -8   19.50    2.20
  -9  -2  -8   19.90    2.40
   9   2   8   18.80    2.30
   6  -3  -8  133.29    5.40
  -6   3   8  130.59    4.40
  -5   3   8  121.89    4.00
  -4   3   8    6.40    1.00
  -4   3   8    6.60    1.10
  -4   3   8   10.00    1.30
   3  -3  -8  294.77    6.80
   3  -3  -8  290.17    6.20
  -3   3   8  290.27    6.40
  -3   3   8  285.47    6.20
   2  -3  -8 1797.72   28.40
   2  -3  -8 1732.73   28.60
  -2   3   8 1772.22   28.90
   1  -3  -8  617.44   11.00
  -1   3   8  614.34   11.60
  -1   3   8  623.94   10.20
   0  -3  -8  322.17    6.50
   0  -3  -8  328.47    5.80
   0   3   8  327.07    7.20
   0   3   8  330.07    5.50
  -1  -3  -8  190.48    4.40
   1   3   8  184.38    4.90
   2   3   8   59.19    2.70
  -3  -3  -8  838.52   14.70
   3   3   8  841.12   15.30
  -4  -3  -8    4.40    0.40
  -4  -3  -8    3.30    1.00
   4   3   8    2.30    1.00
  -5  -3  -8  147.09    4.40
   5   3   8  156.98    3.50
   5   3   8  152.58    4.60
  -6  -3  -8    7.60    1.40
  -6  -3  -8   10.20    1.50
   6   3   8    6.80    1.30
   6   3   8    8.80    1.10
  -7  -3  -8  405.36    8.90
  -7  -3  -8  396.06    9.10
   7   3   8  411.76    8.50
   7   3   8  405.46    8.70
  -8  -3  -8    0.70    1.10
  -8  -3  -8    0.30    1.00
   8   3   8   -0.70    0.90
   8   3   8   -0.50    0.80
  -9  -3  -8  430.76   10.20
  -9  -3  -8  435.96   10.00
   9   3   8  429.46   10.00
   5  -4  -8    5.30    1.60
  -5   4   8    8.80    1.40
   4  -4  -8  183.98    5.60
  -4   4   8  171.28    4.40
  -4   4   8  179.18    4.70
  -4   4   8  169.78    4.40
   3  -4  -8    8.40    1.40
  -3   4   8   13.90    1.40
  -3   4   8   11.10    1.30
  -3   4   8   11.40    1.40
   2  -4  -8   61.59    2.40
   2  -4  -8   64.79    2.70
  -2   4   8   65.29    2.70
  -2   4   8   64.09    2.70
   1  -4  -8  383.66    7.50
   1  -4  -8  384.26    7.40
  -1   4   8  380.16    8.00
   0  -4  -8   68.99    2.40
   0  -4  -8   69.49    2.10
   0   4   8   66.69    1.80
   0   4   8   68.69    2.80
  -1  -4  -8   24.00    1.00
  -1  -4  -8   23.50    1.50
   1   4   8   20.60    1.70
   1   4   8   22.40    0.90
  -2  -4  -8  625.94   11.30
   2   4   8  638.74   12.00
  -3  -4  -8    1.00    0.80
   3   4   8    1.20    0.80
  -4  -4  -8  802.92   12.80
  -4  -4  -8  810.12   14.30
  -4  -4  -8  812.42   12.60
   4   4   8  787.12   14.70
  -5  -4  -8  101.79    2.50
  -5  -4  -8   96.99    3.40
   5   4   8  100.29    2.50
   5   4   8  104.49    3.60
  -6  -4  -8   37.10    2.30
  -6  -4  -8   36.40    2.30
   6   4   8   41.10    1.80
   6   4   8   37.90    2.30
  -7  -4  -8   16.40    2.00
  -7  -4  -8   18.30    1.90
   7   4   8   16.40    1.60
   7   4   8   13.30    1.60
  -8  -4  -8  357.06    8.20
  -8  -4  -8  340.97    8.40
   8   4   8  346.67    7.90
   8   4   8  356.76    7.80
  -9  -4  -8  166.48    5.60
  -9  -4  -8  170.18    5.50
   9   4   8  166.48    5.40
   5  -5  -8   95.19    4.60
  -5   5   8   94.59    3.60
   4  -5  -8   34.70    2.80
  -4   5   8   30.50    2.10
  -4   5   8   27.40    1.90
  -4   5   8   32.90    2.00
   3  -5  -8  342.37    8.20
  -3   5   8  339.37    7.20
  -3   5   8  343.77    7.30
  -3   5   8  358.36    7.40
   2  -5  -8  200.08    4.60
   2  -5  -8  188.08    5.20
  -2   5   8  195.08    5.00
  -2   5   8  191.48    4.60
  -2   5   8  193.28    5.00
   1  -5  -8    4.00    0.90
   1  -5  -8    2.40    0.80
   1  -5  -8    2.70    0.90
  -1   5   8    4.80    1.10
  -1   5   8    3.40    1.00
   0  -5  -8  896.91   14.90
   0  -5  -8  868.91   14.70
   0  -5  -8  858.91   14.80
   0   5   8  869.61   15.70
   0   5   8  887.51   15.70
  -1  -5  -8  191.78    4.50
  -1  -5  -8  193.88    4.00
  -1  -5  -8  199.38    4.10
   1   5   8  197.48    4.00
   1   5   8  199.68    5.20
  -2  -5  -8   19.60    1.00
  -2  -5  -8   20.10    1.40
  -2  -5  -8   18.90    0.90
   2   5   8   17.50    1.60
  -3  -5  -8  637.94   10.30
  -3  -5  -8  643.74   10.60
   3   5   8  636.04   12.10
  -4  -5  -8  712.23   13.00
  -4  -5  -8  727.83   11.70
   4   5   8  722.03   13.40
  -5  -5  -8   71.89    2.90
  -5  -5  -8   73.09    2.00
   5   5   8   75.19    3.10
  -6  -5  -8  215.38    5.60
  -6  -5  -8  217.48    4.70
   6   5   8  220.48    5.60
   6   5   8  218.98    4.80
  -7  -5  -8  229.88    6.00
  -7  -5  -8  238.78    6.20
   7   5   8  240.08    5.90
   7   5   8  238.08    5.60
  -8  -5  -8    4.20    1.40
  -8  -5  -8    3.90    1.30
   8   5   8    2.70    1.00
   8   5   8    2.00    1.00
  -9  -5  -8  239.48    6.60
  -9  -5  -8  245.38    6.90
   9   5   8  248.58    6.70
   4  -6  -8   34.10    3.10
  -4   6   8   30.20    2.10
  -4   6   8   23.30    1.90
   3  -6  -8   17.50    2.10
  -3   6   8   14.80    1.60
  -3   6   8   14.90    1.50
  -3   6   8   16.30    1.60
   2  -6  -8   76.39    3.20
   2  -6  -8   74.59    3.30
  -2   6   8   72.69    2.90
  -2   6   8   68.79    2.90
  -2   6   8   71.09    2.60
   1  -6  -8  124.89    3.90
   1  -6  -8  125.39    3.40
   1  -6  -8  127.99    4.00
  -1   6   8  126.49    4.00
  -1   6   8  132.09    4.00
   0  -6  -8  203.58    4.90
   0  -6  -8  205.98    4.80
   0  -6  -8  215.78    4.70
   0   6   8  207.78    5.40
   0   6   8  207.18    5.40
  -1  -6  -8   20.30    1.40
  -1  -6  -8   26.10    1.50
  -1  -6  -8   23.10    1.40
   1   6   8   24.10    2.00
   1   6   8   23.40    1.90
  -2  -6  -8  724.63   12.00
  -2  -6  -8  707.43   12.50
   2   6   8  727.33   13.50
   2   6   8  719.13   13.40
  -3  -6  -8  205.08    4.70
  -3  -6  -8  198.58    4.00
   3   6   8  194.28    5.20
   3   6   8  196.48    5.30
  -4  -6  -8   79.29    2.80
  -4  -6  -8   77.79    2.10
   4   6   8   79.89    3.10
   4   6   8   72.89    3.10
  -5  -6  -8   53.19    2.50
  -5  -6  -8   53.79    1.80
   5   6   8   50.19    2.60
   5   6   8   55.39    2.60
  -6  -6  -8    0.60    0.90
  -6  -6  -8    1.20    0.60
   6   6   8   -2.10    0.70
   6   6   8   -0.30    0.80
  -7  -6  -8   22.40    1.90
  -7  -6  -8   25.90    1.70
  -7  -6  -8   22.50    2.10
   7   6   8   21.90    1.70
   7   6   8   23.40    2.00
   7   6   8   25.80    2.00
  -8  -6  -8  111.49    4.00
  -8  -6  -8  111.79    4.20
   8   6   8  113.49    3.80
   8   6   8  115.29    3.80
   8   6   8  110.39    3.80
  -9  -6  -8   96.89    4.20
  -9  -6  -8  100.39    4.00
   9   6   8   99.59    4.00
   3  -7  -8  113.79    4.60
   3  -7  -8  113.09    4.70
  -3   7   8  112.99    3.60
  -3   7   8  113.39    3.90
   2  -7  -8    0.60    1.10
   2  -7  -8    0.40    1.00
  -2   7   8    0.70    0.70
  -2   7   8   -1.40    0.90
  -2   7   8    1.50    1.00
   1  -7  -8   39.20    1.80
   1  -7  -8   39.70    2.40
   1  -7  -8   40.60    2.40
  -1   7   8   42.00    2.40
  -1   7   8   39.90    2.40
  -1   7   8   40.50    1.90
   0  -7  -8  460.95    9.20
   0  -7  -8  452.65    9.30
   0  -7  -8  465.25    8.50
   0   7   8  460.35    9.50
   0   7   8  454.45    9.40
  -1  -7  -8  472.95    8.60
  -1  -7  -8  466.75    9.00
  -1  -7  -8  459.75    8.80
   1   7   8  459.75    9.60
   1   7   8  463.25    9.60
  -2  -7  -8   -0.50    0.60
  -2  -7  -8    0.90    0.60
   2   7   8    0.30    0.90
   2   7   8    0.90    0.90
  -3  -7  -8  267.57    5.40
  -3  -7  -8  274.07    5.70
   3   7   8  267.67    6.50
   3   7   8  271.17    6.50
  -4  -7  -8  324.77    6.20
   4   7   8  312.47    7.30
   4   7   8  318.07    7.30
  -5  -7  -8   43.70    1.80
  -5  -7  -8   47.70    2.30
   5   7   8   42.50    2.50
   5   7   8   41.10    2.40
  -6  -7  -8  134.29    3.50
  -6  -7  -8  126.29    4.10
   6   7   8  133.19    4.20
   6   7   8  145.29    4.40
  -7  -7  -8   66.69    2.50
  -7  -7  -8   61.09    2.90
   7   7   8   55.79    2.80
   7   7   8   64.79    2.90
  -8  -7  -8    9.30    1.50
  -8  -7  -8   10.20    1.70
  -8  -7  -8    8.90    1.30
   8   7   8    9.20    1.40
   8   7   8   10.60    1.50
  -9  -7  -8  222.78    6.40
  -9  -7  -8  216.48    5.80
  -9  -7  -8  227.58    6.30
   9   7   8  223.78    6.90
   9   7   8  232.28    6.90
   9   7   8  230.88    6.20
   2  -8  -8   29.70    2.70
   2  -8  -8   30.10    2.80
  -2   8   8   27.90    2.30
   1  -8  -8  193.78    5.60
   1  -8  -8  189.18    5.70
  -1   8   8  183.28    4.40
  -1   8   8  198.68    5.40
  -1   8   8  190.88    5.40
   0  -8  -8   99.49    3.70
   0  -8  -8  101.29    3.70
   0  -8  -8  104.09    2.90
   0   8   8  101.49    2.90
   0   8   8  101.19    3.80
   0   8   8  102.89    3.80
  -1  -8  -8   52.19    2.00
  -1  -8  -8   52.89    2.50
  -1  -8  -8   57.09    2.70
   1   8   8   51.49    2.80
   1   8   8   55.39    2.80
  -2  -8  -8  266.87    5.50
  -2  -8  -8  262.87    5.80
   2   8   8  258.77    6.50
   2   8   8  258.47    6.60
  -3  -8  -8    0.50    0.70
  -3  -8  -8    1.10    0.70
   3   8   8   -0.30    1.00
   3   8   8    1.40    1.10
  -4  -8  -8  145.19    3.80
  -4  -8  -8  136.49    3.60
   4   8   8  138.69    4.50
   4   8   8  144.69    4.50
  -5  -8  -8   80.79    2.70
  -5  -8  -8   85.19    3.00
   5   8   8   85.79    3.40
   5   8   8   89.59    3.60
  -6  -8  -8    6.60    1.20
  -6  -8  -8    5.10    1.00
   6   8   8    6.70    1.40
   6   8   8    3.00    1.10
  -7  -8  -8   12.20    1.40
  -7  -8  -8   14.10    1.70
   7   8   8    9.00    1.50
   7   8   8   10.10    1.50
  -8  -8  -8  177.28    5.30
  -8  -8  -8  187.98    5.00
   8   8   8  184.68    5.10
   8   8   8  198.78    5.30
  -9  -8  -8  197.78    5.90
  -9  -8  -8  206.38    5.70
  -9  -8  -8  207.78    5.80
   9   8   8  203.68    5.40
   9   8   8  204.58    5.50
   1  -9  -8    4.80    1.40
   1  -9  -8    9.30    1.70
  -1   9   8    8.50    1.60
   0  -9  -8    5.90    1.40
   0  -9  -8    4.80    1.30
   0   9   8    4.50    1.40
  -1  -9  -8   98.69    3.70
  -1  -9  -8   91.59    3.50
  -1  -9  -8   96.79    2.80
   1   9   8   92.99    3.90
   1   9   8   99.39    3.90
  -2  -9  -8   17.10    1.70
  -2  -9  -8   17.40    1.30
   2   9   8   17.00    2.00
   2   9   8   15.60    1.90
  -3  -9  -8  592.74   10.30
  -3  -9  -8  571.54   10.80
   3   9   8  572.64   11.70
   3   9   8  578.34   11.70
  -4  -9  -8  251.57    5.70
  -4  -9  -8  258.07    5.50
   4   9   8  258.77    6.60
   4   9   8  256.27    6.60
  -5  -9  -8  300.57    6.30
  -5  -9  -8  290.07    6.40
   5   9   8  307.97    7.30
   5   9   8  290.77    7.20
  -6  -9  -8  296.37    6.60
  -6  -9  -8  295.77    6.60
   6   9   8  307.17    7.30
   6   9   8  297.57    7.20
  -7  -9  -8    7.90    1.30
  -7  -9  -8    9.00    1.30
   7   9   8    7.30    1.40
   7   9   8    8.50    1.50
  -8  -9  -8    7.40    1.30
  -8  -9  -8   -0.30    0.90
   8   9   8    1.60    1.00
   8   9   8    3.00    1.20
  -1 -10  -8   -1.00    0.90
  -1 -10  -8   -0.70    1.10
   1  10   8    0.80    1.20
  -2 -10  -8    9.20    1.50
   2  10   8    7.30    1.60
  -3 -10  -8   25.70    2.00
   3  10   8   21.70    2.20
  -4 -10  -8  277.47    6.40
   4  10   8  275.87    7.20
   4  10   8  277.57    7.10
  -5 -10  -8  453.15    9.30
   5  10   8  479.55   10.20
   5  10   8  458.05   10.10
  -6 -10  -8   69.29    3.00
  -6 -10  -8   68.99    2.80
   6  10   8   65.89    3.30
   6  10   8   67.89    3.30
  -7 -10  -8   31.40    2.00
  -7 -10  -8   29.00    2.20
   7  10   8   32.00    2.40
   7  10   8   33.70    2.50
  -4  -5   9   10.30    1.90
  -4  -5   9   12.60    1.40
  -4  -5   9   12.60    1.70
  -3  -5   9    9.60    1.50
  -3  -5   9   11.60    1.20
  -3  -5   9   11.30    2.00
  -2  -5   9    8.10    1.30
  -2  -5   9   10.50    2.00
  -1  -5   9  139.39    5.60
  -1  -5   9  139.49    4.00
   0  -5   9  230.98    5.60
   0  -5   9  253.07    7.80
   1  -5   9    3.20    1.60
   1  -5   9    2.80    1.00
  -5  -4   9   48.20    3.10
  -5  -4   9   44.30    2.70
  -5  -4   9   44.60    2.40
  -4  -4   9   80.39    2.90
  -4  -4   9   89.39    4.00
  -4  -4   9   77.29    3.20
   3   4  -9   85.39    2.90
  -3  -4   9   77.09    3.90
  -3  -4   9   78.79    2.80
  -3  -4   9   79.69    3.00
   2   4  -9  440.36    8.50
  -2  -4   9  438.46    8.70
  -2  -4   9  451.55   10.60
   1   4  -9   58.49    2.30
  -1  -4   9   56.79    3.50
  -1  -4   9   54.29    2.30
   0   4  -9  269.67    5.90
   0  -4   9  261.77    7.70
   0  -4   9  264.37    5.80
  -1   4  -9   64.09    2.50
   1  -4   9   68.89    2.60
   1  -4   9   67.39    3.90
   2  -4   9   11.10    1.40
   2  -4   9    7.90    1.80
   3  -4   9    2.40    1.10
   3  -4   9    3.20    1.10
   3  -4   9    2.20    1.40
   6   3  -9  111.79    4.40
  -6  -3   9  111.49    4.00
  -6  -3   9  113.59    4.30
  -5  -3   9    0.10    1.00
  -5  -3   9    0.90    0.90
  -5  -3   9   -0.10    1.00
  -4  -3   9  218.68    5.40
  -4  -3   9  207.38    5.20
  -4  -3   9  211.18    6.20
   3   3  -9  187.38    4.70
  -3  -3   9  187.38    4.70
  -3  -3   9  187.18    4.70
  -3  -3   9  197.88    6.00
   2   3  -9  148.59    3.90
  -2  -3   9  147.19    3.80
  -2  -3   9  142.09    5.10
   1   3  -9    5.00    1.00
  -1  -3   9    5.90    1.50
  -1  -3   9    6.90    1.00
   0   3  -9  237.08    5.30
   0  -3   9  222.38    6.80
   0  -3   9  231.58    5.00
  -1   3  -9    1.20    0.80
   1  -3   9    2.60    0.80
   1  -3   9    0.90    1.20
  -2   3  -9  188.88    4.80
   2  -3   9  183.48    4.50
   2  -3   9  178.78    4.60
   2  -3   9  192.58    6.30
  -3   3  -9  140.59    4.10
   3  -3   9  137.09    4.10
   3  -3   9  147.89    5.60
   3  -3   9  145.79    4.10
   4  -3   9    1.20    1.30
   4  -3   9    1.50    1.00
   4  -3   9    2.40    1.00
   6   2  -9    1.00    1.20
  -6  -2   9    0.80    1.00
   5   2  -9  249.78    6.60
  -5  -2   9  244.58    6.40
  -5  -2   9  252.87    6.10
   4   2  -9   18.10    1.70
  -4  -2   9   14.80    1.50
  -4  -2   9   16.60    1.90
  -4  -2   9   18.40    1.70
   3   2  -9   78.89    2.80
  -3  -2   9   75.19    3.50
  -3  -2   9   74.79    2.70
   2   2  -9   78.29    2.70
  -2  -2   9   79.19    2.50
  -2  -2   9   79.09    3.60
   1   2  -9   28.30    1.70
  -1  -2   9   23.50    1.40
  -1  -2   9   24.50    2.40
   0   2  -9  225.18    5.20
   0  -2   9  229.58    4.60
   0  -2   9  223.08    6.50
  -1   2  -9    1.70    0.80
   1  -2   9    1.90    0.60
   1  -2   9    2.00    1.20
  -2   2  -9   61.79    2.60
   2  -2   9   66.69    2.30
   2  -2   9   63.99    3.50
   2  -2   9   64.29    2.20
  -3   2  -9   46.00    2.40
   3  -2   9   48.30    3.10
   3  -2   9   50.89    2.20
   3  -2   9   47.90    2.00
  -4   2  -9  103.09    3.60
   4  -2   9   94.49    3.30
   4  -2   9   97.69    3.20
   4  -2   9  102.19    4.50
  -5   2  -9   13.60    1.70
   5  -2   9   15.90    2.20
   5  -2   9   16.50    2.20
   5  -2   9   15.40    2.20
   6   1  -9    5.90    1.50
  -6  -1   9    5.20    1.30
   5   1  -9    1.50    1.10
  -5  -1   9    2.30    1.00
  -5  -1   9    1.10    1.00
   4   1  -9  167.28    4.70
  -4  -1   9  161.48    4.90
  -4  -1   9  157.08    4.40
   3   1  -9  243.58    5.70
   3   1  -9  253.07    5.70
  -3  -1   9  236.98    6.40
  -3  -1   9  253.07    5.50
   2   1  -9   83.19    2.80
  -2  -1   9   81.49    2.40
  -2  -1   9   82.19    3.60
   1   1  -9   91.99    3.00
  -1  -1   9   93.09    3.80
  -1  -1   9   96.99    2.50
   0   1  -9  123.89    3.60
   0  -1   9  127.39    4.50
   0  -1   9  129.59    2.80
  -1   1  -9  279.87    6.20
   1  -1   9  276.47    5.00
   1  -1   9  275.07    7.30
  -2   1  -9  440.26    8.80
   2  -1   9  443.06    7.70
   2  -1   9  442.16   10.10
   2  -1   9  443.96    7.80
   3  -1   9  176.28    3.90
   3  -1   9  171.18    4.00
   3  -1   9  178.38    5.70
  -4   1  -9   12.10    1.60
   4  -1   9   15.20    1.40
   4  -1   9   15.80    1.40
   4  -1   9   13.60    1.90
  -5   1  -9   83.09    3.40
   5  -1   9   82.69    3.10
   5  -1   9   82.49    3.90
  -6   1  -9  189.98    5.70
   6  -1   9  190.38    6.10
   6   0  -9   37.60    2.80
  -6   0   9   34.40    2.40
   5   0  -9  443.66   10.00
  -5   0   9  455.65    9.20
  -5   0   9  466.45    9.50
   4   0  -9    1.60    0.90
  -4   0   9    1.50    0.80
  -4   0   9    0.20    0.80
   3   0  -9  257.17    5.90
   3   0  -9  258.97    5.80
  -3   0   9  254.77    6.40
   2   0  -9  102.89    2.80
   2   0  -9   99.89    3.20
  -2   0   9  103.89    2.80
  -2   0   9  100.59    3.80
   1   0  -9  172.48    4.40
  -1   0   9  172.08    5.10
  -1   0   9  171.28    3.50
   0   0  -9  292.37    6.40
   0   0   9  301.27    7.40
   0   0   9  295.87    5.40
   0   0   9  303.47    5.10
  -1   0  -9  305.07    6.50
   1   0   9  300.67    7.50
  -2   0  -9   24.00    1.80
   2   0   9   27.10    0.90
   2   0   9   26.90    2.40
   2   0   9   27.40    1.00
  -3   0  -9  161.08    4.60
   3   0   9  163.88    5.30
   3   0   9  163.88    3.40
  -4   0  -9  162.68    4.70
   4   0   9  157.08    5.20
   4   0   9  164.08    3.80
  -5   0  -9   27.80    2.20
   5   0   9   33.40    2.60
   5   0   9   30.10    1.80
  -6   0  -9    2.60    1.20
   6   0   9    3.60    1.30
   6   0   9    3.00    1.00
  -7   0  -9   83.59    3.80
   7   0   9   75.39    3.80
   6  -1  -9  149.59    5.40
  -6   1   9  138.29    4.60
   5  -1  -9   32.50    2.50
  -5   1   9   31.60    2.30
  -5   1   9   34.80    2.10
   4  -1  -9   24.30    2.10
  -4   1   9   19.90    1.80
  -4   1   9   24.90    1.90
   3  -1  -9   64.79    2.60
   3  -1  -9   72.99    2.70
  -3   1   9   68.79    3.00
   2  -1  -9   14.90    1.40
   2  -1  -9   16.80    1.30
  -2   1   9   18.20    1.90
   1  -1  -9  317.77    6.70
  -1   1   9  313.17    5.60
  -1   1   9  322.07    5.80
  -1   1   9  320.67    5.70
  -1   1   9  316.37    7.50
   0  -1  -9 1140.29   19.70
   0   1   9 1213.38   20.80
  -1  -1  -9   -0.40    0.60
   1   1   9   -0.40    0.80
  -2  -1  -9  108.99    3.40
   2   1   9  112.09    4.10
  -3  -1  -9    5.30    1.10
   3   1   9    5.70    1.40
  -4  -1  -9   91.99    3.40
   4   1   9   84.39    3.70
  -5  -1  -9    4.70    1.30
   5   1   9    0.60    1.00
  -6  -1  -9   51.79    2.90
   6   1   9   55.99    3.10
  -7  -1  -9   20.20    2.30
   7   1   9   19.90    2.20
  -8  -1  -9  229.08    6.50
  -8  -1  -9  224.48    6.70
   8   1   9  218.28    7.90
   6  -2  -9   53.69    3.50
  -6   2   9   59.09    3.10
   5  -2  -9  179.88    5.80
  -5   2   9  196.08    5.30
   4  -2  -9    0.10    0.90
  -4   2   9    1.00    0.90
  -4   2   9    0.50    0.80
   3  -2  -9  309.57    6.80
   3  -2  -9  321.17    7.10
  -3   2   9  304.87    6.80
  -3   2   9  318.07    7.10
   2  -2  -9    0.50    0.70
   2  -2  -9    2.20    0.70
  -2   2   9    0.90    0.90
   1  -2  -9   20.30    1.60
   1  -2  -9   19.40    1.10
  -1   2   9   18.00    0.90
  -1   2   9   18.30    1.80
   0  -2  -9  164.98    4.20
   0   2   9  159.08    4.80
  -1  -2  -9  700.53   12.80
   1   2   9  741.03   13.80
  -2  -2  -9    1.10    0.80
   2   2   9    2.00    0.90
  -3  -2  -9  252.07    5.90
   3   2   9  239.68    6.40
  -4  -2  -9   27.80    2.00
   4   2   9   29.00    2.20
  -5  -2  -9  330.37    7.70
   5   2   9  349.96    6.40
   5   2   9  332.27    8.00
  -6  -2  -9  124.59    4.30
   6   2   9  124.39    3.50
   6   2   9  118.39    4.30
  -7  -2  -9   82.99    3.80
   7   2   9   80.49    3.40
   7   2   9   80.19    3.50
  -8  -2  -9   35.30    2.80
  -8  -2  -9   42.90    2.80
   8   2   9   36.40    2.60
   5  -3  -9   15.80    2.10
  -5   3   9   14.30    1.70
   4  -3  -9  148.69    5.00
  -4   3   9  155.48    4.30
  -4   3   9  147.99    4.40
  -4   3   9  158.08    4.30
   3  -3  -9   48.40    2.50
   3  -3  -9   45.30    2.30
  -3   3   9   46.40    2.40
  -3   3   9   51.09    2.30
   2  -3  -9  100.89    3.20
   2  -3  -9   99.79    3.10
  -2   3   9   95.89    3.50
   1  -3  -9  247.78    5.10
   1  -3  -9  236.98    5.40
  -1   3   9  247.18    6.10
   0  -3  -9  489.15    9.20
   0  -3  -9  489.15    8.00
   0   3   9  471.35    9.90
   0   3   9  488.05    7.70
  -1  -3  -9   15.40    1.40
   1   3   9   15.00    1.70
  -2  -3  -9  537.35   10.20
   2   3   9  539.65   11.00
   3   3   9  148.99    4.60
  -4  -3  -9   31.80    2.10
   4   3   9   32.30    2.30
  -5  -3  -9  328.27    7.50
   5   3   9  329.47    5.80
   5   3   9  314.67    7.70
  -6  -3  -9  650.53   13.00
   6   3   9  664.53   13.10
   6   3   9  668.53   11.60
  -7  -3  -9    4.90    1.40
  -7  -3  -9    2.90    1.20
   7   3   9    2.30    1.10
   7   3   9    2.70    0.90
  -8  -3  -9  181.88    5.60
  -8  -3  -9  181.08    5.80
   8   3   9  178.18    5.30
  -5   4   9   36.10    2.40
   4  -4  -9    5.00    1.40
  -4   4   9    3.50    1.10
  -4   4   9    3.90    1.10
  -4   4   9    3.60    1.10
   3  -4  -9  262.87    6.60
  -3   4   9  257.87    6.10
  -3   4   9  257.17    6.00
  -3   4   9  261.57    6.10
   2  -4  -9  168.78    4.30
   2  -4  -9  166.78    4.50
  -2   4   9  167.08    4.70
   1  -4  -9   63.09    2.30
   1  -4  -9   66.19    2.50
  -1   4   9   58.19    2.80
   0  -4  -9  131.49    3.00
   0  -4  -9  123.09    3.60
   0   4   9  128.79    4.10
   0   4   9  129.59    3.10
  -1  -4  -9  510.05    9.70
   1   4   9  518.95   10.50
  -2  -4  -9  143.69    3.90
   2   4   9  152.08    4.60
  -3  -4  -9  432.76    8.60
   3   4   9  427.76    9.20
  -4  -4  -9  188.58    5.00
   4   4   9  178.68    5.20
  -5  -4  -9   11.90    1.70
   5   4   9   10.90    1.50
  -6  -4  -9    6.10    1.40
   6   4   9    3.20    0.70
   6   4   9    2.50    1.10
  -7  -4  -9    5.20    1.50
   7   4   9    5.30    1.00
   7   4   9    4.30    1.20
  -8  -4  -9   31.10    2.80
  -8  -4  -9   29.60    2.50
   8   4   9   24.60    2.20
  -9  -4  -9  241.48    7.20
  -9  -4  -9  259.87    7.10
   4  -5  -9   52.59    3.30
  -4   5   9   65.99    2.90
  -4   5   9   63.79    2.70
  -4   5   9   61.09    2.60
   3  -5  -9   76.89    3.50
  -3   5   9   83.89    3.10
  -3   5   9   81.89    3.00
  -3   5   9   76.59    3.10
   2  -5  -9   35.90    2.00
   2  -5  -9   30.30    2.20
  -2   5   9   35.50    2.30
  -2   5   9   35.30    2.30
  -2   5   9   35.10    2.00
   1  -5  -9   50.29    2.20
   1  -5  -9   53.69    2.40
  -1   5   9   53.59    2.60
  -1   5   9   50.39    2.60
   0  -5  -9  188.78    4.30
   0  -5  -9  187.68    4.50
   0   5   9  182.08    5.10
  -1  -5  -9   27.10    1.30
  -1  -5  -9   27.80    1.70
  -1  -5  -9   27.30    1.20
   1   5   9   28.80    2.10
  -2  -5  -9  415.66    6.90
  -2  -5  -9  408.16    8.20
  -2  -5  -9  416.06    6.90
   2   5   9  414.96    8.90
  -3  -5  -9    0.60    0.80
   3   5   9    1.00    0.90
  -4  -5  -9  420.66    8.80
  -4  -5  -9  448.46    7.40
   4   5   9  441.36    9.40
  -5  -5  -9  632.44   12.10
   5   5   9  625.14   12.30
  -6  -5  -9  663.53   12.90
   6   5   9  679.43   13.10
  -7  -5  -9   22.50    2.20
   7   5   9   21.40    1.60
   7   5   9   24.80    2.20
  -8  -5  -9  175.58    5.40
  -8  -5  -9  180.78    5.70
   8   5   9  186.08    5.30
   8   5   9  186.58    5.90
  -9  -5  -9   21.90    2.30
  -9  -5  -9   20.70    2.40
   3  -6  -9   32.00    2.60
  -3   6   9   33.70    2.10
  -3   6   9   30.30    2.10
  -3   6   9   29.60    2.20
   2  -6  -9   44.80    2.60
  -2   6   9   45.20    2.20
  -2   6   9   38.20    2.40
  -2   6   9   41.00    2.50
   1  -6  -9    0.10    0.90
   1  -6  -9    1.00    0.90
   1  -6  -9   -0.10    0.70
  -1   6   9    0.90    0.90
  -1   6   9    0.50    0.90
   0  -6  -9  171.98    4.30
   0  -6  -9  170.18    4.40
   0  -6  -9  172.98    4.20
   0   6   9  168.98    4.90
   0   6   9  163.38    4.90
  -1  -6  -9  675.23   11.80
  -1  -6  -9  691.63   12.10
  -1  -6  -9  673.63   11.70
   1   6   9  681.33   13.10
   1   6   9  681.13   13.10
  -2  -6  -9   84.39    2.90
  -2  -6  -9   81.49    2.20
  -2  -6  -9   80.49    2.30
   2   6   9   83.79    3.40
   2   6   9   80.19    3.40
  -3  -6  -9  352.76    7.30
  -3  -6  -9  362.76    6.30
   3   6   9  354.06    8.10
  -4  -6  -9   41.50    1.40
   4   6   9   35.00    2.40
  -5  -6  -9   16.70    1.20
  -5  -6  -9   17.80    1.80
   5   6   9   17.40    1.80
  -6  -6  -9    6.80    1.40
   6   6   9    8.30    1.40
  -7  -6  -9   24.10    2.30
   7   6   9   16.80    1.90
  -8  -6  -9   45.80    2.80
  -8  -6  -9   43.50    2.90
   8   6   9   45.40    2.60
   8   6   9   50.19    2.70
   8   6   9   46.80    2.70
  -9  -6  -9  183.18    5.70
  -9  -6  -9  179.38    5.90
   3  -7  -9   25.50    2.60
  -3   7   9   24.30    2.00
  -3   7   9   23.60    2.10
   2  -7  -9    5.60    1.50
   2  -7  -9    8.10    1.50
  -2   7   9    5.70    1.30
  -2   7   9    6.70    1.10
  -2   7   9    6.50    1.40
   1  -7  -9   13.10    1.40
   1  -7  -9   11.60    1.60
   1  -7  -9   12.40    1.70
  -1   7   9   10.10    1.60
  -1   7   9   11.80    1.30
  -1   7   9   12.50    1.70
   0  -7  -9   90.39    3.20
   0  -7  -9   92.49    3.30
   0  -7  -9   94.39    2.90
   0   7   9   90.49    3.60
   0   7   9   95.69    3.60
  -1  -7  -9  104.09    3.30
  -1  -7  -9  106.79    3.20
  -1  -7  -9  106.89    3.20
   1   7   9  112.39    4.00
   1   7   9  114.69    4.00
  -2  -7  -9  345.07    7.10
  -2  -7  -9  344.67    6.80
   2   7   9  355.46    8.10
   2   7   9  364.86    8.10
  -3  -7  -9  216.88    4.50
  -3  -7  -9  216.68    5.10
   3   7   9  217.88    5.90
   3   7   9  216.38    5.90
  -4  -7  -9  251.47    4.90
  -4  -7  -9  234.08    5.60
   4   7   9  248.48    6.30
   4   7   9  237.98    6.30
  -5  -7  -9   64.19    2.80
  -5  -7  -9   66.59    2.10
   5   7   9   62.09    3.00
   5   7   9   62.69    3.00
  -6  -7  -9   91.39    3.50
   6   7   9   96.79    3.70
   6   7   9   95.39    3.70
  -7  -7  -9  109.99    3.90
   7   7   9  106.39    3.90
   7   7   9  104.89    3.90
  -8  -7  -9  216.28    6.10
   8   7   9  217.88    5.80
   8   7   9  207.98    5.80
  -9  -7  -9  121.39    4.60
  -9  -7  -9  122.99    4.50
   9   7   9  112.99    4.10
   9   7   9  125.09    4.20
   1  -8  -9   97.09    3.90
   1  -8  -9   95.79    4.00
  -1   8   9   92.59    3.80
  -1   8   9   99.39    3.80
  -1   8   9   92.69    3.00
   0  -8  -9   71.59    3.10
   0  -8  -9   73.89    3.20
   0  -8  -9   83.49    2.70
   0   8   9   80.69    3.40
   0   8   9   76.29    3.40
  -1  -8  -9  196.08    4.50
  -1  -8  -9  193.28    5.10
  -1  -8  -9  186.58    4.90
   1   8   9  198.28    5.60
   1   8   9  201.68    5.60
  -2  -8  -9    1.00    0.70
  -2  -8  -9    2.30    0.80
   2   8   9    2.80    1.20
   2   8   9    3.80    1.30
  -3  -8  -9  268.97    5.60
  -3  -8  -9  259.27    5.80
   3   8   9  277.57    6.90
   3   8   9  260.87    6.80
  -4  -8  -9   59.99    2.20
  -4  -8  -9   64.49    2.50
   4   8   9   59.59    3.10
   4   8   9   64.09    3.10
  -5  -8  -9    3.90    0.90
   5   8   9    1.20    1.00
   5   8   9    2.20    1.10
  -6  -8  -9  264.87    6.40
   6   8   9  267.97    6.80
   6   8   9  275.57    6.80
  -7  -8  -9  269.77    6.70
   7   8   9  285.07    7.00
   7   8   9  271.47    6.90
  -8  -8  -9    5.70    1.40
   8   8   9    3.70    1.40
   8   8   9    7.60    1.50
   0  -9  -9   88.29    3.70
   0  -9  -9   91.39    3.80
   0   9   9   91.49    3.80
   0   9   9   88.09    3.90
  -1  -9  -9   24.20    1.60
  -1  -9  -9   28.30    2.10
  -1  -9  -9   25.40    2.20
   1   9   9   20.40    2.20
   1   9   9   22.50    2.20
  -2  -9  -9  452.55    8.50
  -2  -9  -9  457.05    9.20
   2   9   9  450.45    9.90
   2   9   9  458.85   10.00
  -3  -9  -9  396.16    8.00
  -3  -9  -9  392.66    7.70
   3   9   9  406.46    9.10
   3   9   9  396.76    9.10
  -4  -9  -9    5.10    1.00
  -4  -9  -9    6.90    1.00
   4   9   9    7.40    1.50
   4   9   9    5.80    1.50
  -5  -9  -9   63.29    3.10
  -5  -9  -9   57.09    2.50
   5   9   9   61.59    3.20
   5   9   9   61.89    3.20
  -6  -9  -9    4.00    1.10
   6   9   9    1.10    1.10
   6   9   9    1.50    1.20
  -7  -9  -9    7.30    1.30
   7   9   9    4.80    1.40
   7   9   9    5.30    1.40
  -8  -9  -9   15.00    1.90
   8   9   9   17.10    2.00
   8   9   9   20.30    2.10
  -2 -10  -9   34.80    2.40
   2  10   9   33.70    2.80
   2  10   9   33.20    2.70
  -3 -10  -9   86.49    3.30
   3  10   9   83.59    3.90
   3  10   9   91.29    3.90
  -4 -10  -9    8.50    1.60
   4  10   9    6.10    1.60
   4  10   9    5.90    1.50
  -5 -10  -9   42.80    2.20
   5  10   9   40.90    2.90
   5  10   9   37.90    2.70
  -6 -10  -9  167.88    4.50
   6  10   9  159.28    5.30
   6  10   9  168.88    5.40
  -7 -10  -9  143.29    4.40
   7  10   9  145.59    4.90
   7  10   9  145.29    4.90
   3   4 -10   28.90    1.90
  -3  -4  10   28.90    1.90
  -3  -4  10   24.00    2.70
   2   4 -10   11.70    1.30
  -2  -4  10   12.00    2.20
   1   4 -10   83.79    2.90
  -1  -4  10   81.89    4.40
   0   4 -10   78.69    2.90
   0  -4  10   75.59    4.30
   1  -4  10   -0.10    1.20
  -4  -3  10    4.10    1.40
  -4  -3  10    5.70    1.20
  -4  -3  10    4.80    1.10
   3   3 -10  109.99    3.50
  -3  -3  10  108.79    3.50
  -3  -3  10  106.59    3.50
  -3  -3  10  111.39    4.70
   2   3 -10  103.59    3.30
  -2  -3  10   91.69    4.40
  -2  -3  10  101.99    3.90
   1   3 -10   48.50    2.30
  -1  -3  10   46.50    3.30
   0   3 -10   72.69    2.80
   0  -3  10   74.39    4.00
  -1   3 -10   71.39    2.80
   1  -3  10   74.99    4.20
  -2   3 -10   49.40    2.40
   2  -3  10   50.59    3.60
  -3   3 -10   96.39    3.50
   3  -3  10  100.99    4.80
  -5  -2  10   35.60    2.40
  -5  -2  10   39.90    2.50
  -5  -2  10   39.70    2.70
  -4  -2  10  174.78    4.70
  -4  -2  10  172.38    4.80
  -4  -2  10  171.38    5.50
   3   2 -10  433.56    8.80
  -3  -2  10  430.76    8.40
  -3  -2  10  429.16   10.00
   2   2 -10   32.30    2.00
  -2  -2  10   32.10    1.70
  -2  -2  10   29.00    2.60
   1   2 -10  154.98    4.20
  -1  -2  10  147.79    5.40
  -1  -2  10  154.98    4.30
   0   2 -10  319.47    7.00
   0  -2  10  331.47    8.60
  -1   2 -10  103.39    3.40
   1  -2  10  105.89    4.60
  -2   2 -10   12.40    1.50
   2  -2  10   10.10    1.90
  -3   2 -10   37.70    2.30
   3  -2  10   38.60    3.10
   4  -2  10   18.60    2.50
  -5   2 -10   64.39    3.10
   5  -2  10   60.49    3.80
  -5  -1  10   67.79    3.10
  -5  -1  10   67.09    3.20
  -4  -1  10   49.00    2.90
  -4  -1  10   44.50    2.40
  -4  -1  10   46.70    2.50
   3   1 -10    8.40    1.30
  -3  -1  10    6.90    1.50
  -3  -1  10    7.40    1.10
   2   1 -10    0.80    0.80
  -2  -1  10    2.00    1.30
  -2  -1  10    2.20    0.80
   1   1 -10   29.80    1.90
  -1  -1  10   27.60    1.40
  -1  -1  10   31.40    2.60
   0   1 -10    4.10    1.00
   0  -1  10    3.20    1.40
  -1   1 -10   54.79    2.50
   1  -1  10   58.59    3.40
  -2   1 -10   81.79    3.10
   2  -1  10   86.39    4.10
  -3   1 -10   14.50    1.70
   3  -1  10   14.70    2.10
  -4   1 -10  202.88    5.60
   4  -1  10  204.78    6.50
  -5   1 -10  254.87    6.80
   5  -1  10  268.37    7.70
  -6   1 -10   12.70    1.80
   6  -1  10   12.20    2.10
  -5   0  10   40.60    2.40
  -5   0  10   42.00    2.70
  -4   0  10   59.79    3.00
  -4   0  10   51.49    2.60
   3   0 -10   79.09    3.00
  -3   0  10   79.09    3.50
   2   0 -10   52.39    2.40
  -2   0  10   50.39    1.90
  -2   0  10   51.39    3.00
   1   0 -10  486.05    9.40
  -1   0  10  473.05    8.20
  -1   0  10  479.85   10.60
   0   0 -10  355.46    7.50
   0   0  10  349.87    8.60
  -1   0 -10    8.10    1.20
   1   0  10   11.10    1.80
  -2   0 -10  176.78    4.80
   2   0  10  174.88    5.70
  -3   0 -10  368.16    8.10
   3   0  10  382.46    9.30
  -4   0 -10    6.10    1.30
   4   0  10    8.10    1.70
  -5   0 -10  205.38    5.80
   5   0  10  214.18    6.60
  -6   0 -10   26.90    2.40
   6   0  10   23.20    2.60
  -5   1  10   33.50    2.40
  -4   1  10   96.89    3.50
  -4   1  10   98.29    3.70
   3  -1 -10   71.69    2.90
  -3   1  10   75.79    3.30
   2  -1 -10   73.29    2.80
  -2   1  10   65.59    3.20
   1  -1 -10    0.80    0.70
  -1   1  10    0.40    1.00
  -1   1  10    0.20    0.40
   0  -1 -10    2.70    0.90
   0   1  10    0.30    1.00
  -1  -1 -10  123.29    3.80
   1   1  10  119.79    4.50
  -2  -1 -10    2.20    0.90
   2   1  10    3.00    1.20
  -3  -1 -10    1.40    1.00
   3   1  10    0.90    1.00
  -4  -1 -10   73.49    3.20
   4   1  10   71.19    3.60
  -5  -1 -10  227.88    6.20
   5   1  10  237.68    6.80
  -6  -1 -10  124.29    4.50
   6   1  10  124.89    4.80
  -7  -1 -10   95.19    4.10
   7   1  10   89.69    4.10
  -5   2  10   -0.20    0.90
  -4   2  10   86.69    3.30
  -4   2  10   86.89    3.40
   3  -2 -10  127.49    3.90
  -3   2  10  138.19    4.40
  -3   2  10  128.89    3.90
   2  -2 -10   -0.60    0.70
  -2   2  10   -0.60    0.90
   1  -2 -10  395.16    8.00
  -1   2  10  389.26    8.80
   0  -2 -10  248.48    5.80
   0   2  10  249.97    6.60
  -1  -2 -10  159.78    4.40
   1   2  10  155.48    5.00
  -2  -2 -10  330.67    7.20
   2   2  10  325.67    8.00
  -3  -2 -10  120.69    3.80
   3   2  10  115.09    4.40
  -4  -2 -10    7.50    1.40
   4   2  10    8.40    1.60
  -5  -2 -10  202.28    5.70
   5   2  10  204.98    6.10
  -6  -2 -10  148.19    4.90
   6   2  10  148.59    5.10
  -7  -2 -10    2.30    1.30
   7   2  10    4.30    1.40
  -8  -2 -10   98.69    4.30
   8   2  10   90.49    4.00
  -5   3  10   20.70    2.10
  -4   3  10   20.40    1.90
  -4   3  10   23.20    2.00
  -4   3  10   22.00    1.90
   3  -3 -10   94.39    3.40
  -3   3  10   99.39    3.60
  -3   3  10   97.49    3.40
   2  -3 -10  494.45    9.60
  -2   3  10  482.35   10.10
   1  -3 -10   35.20    2.00
  -1   3  10   27.90    2.20
   0  -3 -10    0.10    0.70
   0   3  10    0.40    0.90
  -1  -3 -10  445.46    8.90
   1   3  10  445.96    9.70
  -2  -3 -10  260.47    6.00
   2   3  10  257.57    6.80
  -3  -3 -10    5.10    1.10
   3   3  10    2.80    1.10
  -4  -3 -10    5.00    1.20
   4   3  10    3.00    1.10
  -5  -3 -10   24.50    2.20
   5   3  10   26.60    2.40
  -6  -3 -10  127.29    4.50
   6   3  10  130.89    4.70
  -7  -3 -10  116.19    4.50
   7   3  10  119.59    4.50
  -8  -3 -10    3.80    1.50
   8   3  10    3.50    1.20
  -4   4  10  304.87    7.00
  -4   4  10  294.97    7.00
  -4   4  10  304.77    6.90
   3  -4 -10  479.65    9.50
  -3   4  10  469.05    9.70
  -3   4  10  472.35    9.80
  -3   4  10  470.75    9.50
   2  -4 -10  234.48    5.60
  -2   4  10  235.28    6.10
   1  -4 -10    1.70    0.90
  -1   4  10    2.00    1.10
   0  -4 -10  165.58    4.40
   0   4  10  168.88    5.10
  -1  -4 -10   50.99    2.30
   1   4  10   48.00    2.80
  -2  -4 -10  238.68    5.60
   2   4  10  229.88    6.30
  -3  -4 -10    1.90    1.00
   3   4  10    3.20    1.20
  -4  -4 -10   -0.30    0.80
   4   4  10    1.40    1.00
  -5  -4 -10   40.80    2.50
   5   4  10   37.20    2.50
  -6  -4 -10   94.59    3.80
   6   4  10   87.39    3.70
  -7  -4 -10   13.20    1.90
   7   4  10   16.80    2.00
  -8  -4 -10  195.08    6.10
   8   4  10  189.98    5.70
  -4   5  10   -0.10    1.00
  -4   5  10    2.30    1.10
  -4   5  10    1.10    1.10
  -3   5  10    1.80    1.10
  -3   5  10    3.00    1.00
  -3   5  10    1.60    1.10
   2  -5 -10   21.50    1.80
  -2   5  10   23.30    1.80
  -2   5  10   24.40    2.20
  -2   5  10   23.50    2.10
   1  -5 -10   64.29    2.60
  -1   5  10   65.69    3.10
  -1   5  10   69.59    3.10
   0  -5 -10  102.59    3.30
   0   5  10  104.79    3.90
  -1  -5 -10  214.68    5.20
   1   5  10  213.08    5.90
  -2  -5 -10  124.89    3.70
   2   5  10  122.99    4.30
  -3  -5 -10  394.96    8.10
   3   5  10  367.46    8.60
   4   5  10  345.37    8.20
  -5  -5 -10   24.20    2.10
   5   5  10   21.40    2.10
  -6  -5 -10  118.49    4.20
   6   5  10  111.09    4.20
  -7  -5 -10   97.99    4.00
   7   5  10   97.49    3.90
  -8  -5 -10   20.30    2.30
   8   5  10   17.60    2.10
  -3   6  10  121.19    3.90
  -3   6  10  120.69    4.10
  -3   6  10  120.79    4.10
   2  -6 -10  134.29    3.90
  -2   6  10  135.99    4.40
  -2   6  10  131.59    4.40
  -2   6  10  123.39    3.80
   1  -6 -10  324.77    6.90
  -1   6  10  325.67    7.70
  -1   6  10  328.57    7.70
   0  -6 -10  143.19    3.90
   0   6  10  131.69    4.50
   0   6  10  139.29    4.60
  -1  -6 -10    9.40    1.20
   1   6  10   16.40    2.00
   1   6  10    9.60    1.50
  -2  -6 -10  378.16    7.90
   2   6  10  386.56    8.70
  -3  -6 -10  175.58    4.70
   3   6  10  177.68    5.30
  -4  -6 -10   46.50    2.40
   4   6  10   44.60    2.80
  -5  -6 -10  123.79    4.10
   5   6  10  124.79    4.50
  -6  -6 -10  528.35   10.80
   6   6  10  521.85   11.10
  -7  -6 -10    6.30    1.50
   7   6  10    2.80    1.10
  -8  -6 -10   72.29    3.70
   8   6  10   77.09    3.50
  -2   7  10   47.80    2.90
  -2   7  10   44.80    2.70
  -2   7  10   47.40    2.40
   1  -7 -10   28.50    1.80
  -1   7  10   24.30    2.30
  -1   7  10   26.50    1.80
  -1   7  10   22.20    2.20
   0  -7 -10  169.68    4.40
   0   7  10  179.18    5.30
   0   7  10  172.38    5.20
  -1  -7 -10  254.07    5.80
   1   7  10  260.67    6.70
   1   7  10  257.87    6.70
  -2  -7 -10   61.89    2.60
   2   7  10   66.99    3.20
   2   7  10   62.39    3.20
  -3  -7 -10   87.89    3.00
   3   7  10   85.79    3.70
   3   7  10   84.89    3.70
  -4  -7 -10   29.20    1.90
   4   7  10   23.90    2.20
   4   7  10   24.60    2.30
   5   7  10    3.50    1.30
   5   7  10    2.10    1.10
  -6  -7 -10   23.80    2.20
   6   7  10   28.70    2.40
   6   7  10   24.40    2.30
  -7  -7 -10  237.28    6.40
   7   7  10  243.88    6.60
   7   7  10  246.98    6.60
  -8  -7 -10   36.30    2.70
   8   7  10   39.70    2.70
   8   7  10   36.30    2.60
  -1   8  10  117.99    4.30
  -1   8  10  127.49    4.40
  -1   8  10  119.69    3.70
   0  -8 -10   24.60    1.80
   0   8  10   26.30    2.50
   0   8  10   20.60    2.20
  -1  -8 -10    0.30    0.80
   1   8  10   -0.30    1.10
   1   8  10    0.40    1.10
  -2  -8 -10  125.49    3.70
   2   8  10  130.39    4.60
   2   8  10  130.79    4.60
  -3  -8 -10   75.59    2.80
   3   8  10   75.09    3.50
   3   8  10   66.89    3.40
  -4  -8 -10    5.40    1.10
   4   8  10    7.80    1.50
   4   8  10    8.40    1.60
  -5  -8 -10   44.60    2.40
   5   8  10   42.20    2.80
   5   8  10   44.10    2.80
  -6  -8 -10   30.90    2.30
   6   8  10   30.60    2.50
   6   8  10   30.40    2.50
  -7  -8 -10   59.99    3.10
   7   8  10   70.69    3.40
   7   8  10   66.99    3.40
  -8  -8 -10  254.67    6.80
   8   8  10  265.17    6.90
   8   8  10  242.48    6.70
  -1  -9 -10   32.80    1.90
   1   9  10   32.60    2.70
   1   9  10   34.00    2.70
  -2  -9 -10   13.80    1.40
   2   9  10   13.90    2.00
   2   9  10   14.40    1.90
  -3  -9 -10  266.47    6.00
   3   9  10  285.07    7.30
   3   9  10  263.07    7.10
  -4  -9 -10   54.39    2.50
   4   9  10   52.09    3.20
   4   9  10   54.79    3.20
  -5  -9 -10   12.00    1.50
   5   9  10    6.60    1.60
   5   9  10    8.90    1.70
   6   9  10   11.50    1.80
   6   9  10   10.90    1.80
  -7  -9 -10  193.58    5.60
   7   9  10  207.58    6.10
   7   9  10  202.78    6.00
   3  10  10   74.29    3.70
   3  10  10   72.49    3.70
  -4 -10 -10   68.19    3.90
   4  10  10   68.19    3.60
   4  10  10   73.49    3.60
  -5 -10 -10  233.08    5.60
   5  10  10  239.78    6.80
   5  10  10  234.08    6.70
  -3  -3  11  136.09    4.20
   2   3 -11    1.00    0.80
  -2  -3  11   -0.20    1.20
   1   3 -11    1.00    0.90
  -1  -3  11   -0.50    1.30
   0   3 -11   52.49    2.50
   0  -3  11   56.19    3.80
  -1   3 -11   32.60    2.10
   1  -3  11   35.40    3.40
  -4  -2  11  259.17    7.50
  -4  -2  11  279.57    6.70
   3   2 -11   53.39    2.70
  -3  -2  11   49.50    3.30
   2   2 -11   36.00    2.20
  -2  -2  11   37.70    3.10
   1   2 -11   10.50    1.40
  -1  -2  11    7.20    1.80
   0   2 -11    6.50    1.20
   0  -2  11    4.20    1.60
  -1   2 -11    3.80    1.00
   1  -2  11    4.90    1.70
  -2   2 -11  207.88    5.60
   2  -2  11  217.58    7.20
  -3   2 -11   12.00    1.70
   3  -2  11    9.80    2.10
  -4  -1  11   99.79    3.70
  -4  -1  11  102.39    4.30
   3   1 -11  327.37    7.40
  -3  -1  11  328.37    8.40
   2   1 -11    2.90    1.00
  -2  -1  11    2.50    1.40
   1   1 -11   13.20    1.50
  -1  -1  11   14.40    2.10
   0   1 -11    8.00    1.30
   0  -1  11    6.10    1.60
  -1   1 -11    5.00    1.20
   1  -1  11    5.60    1.60
  -2   1 -11   85.99    3.30
   2  -1  11   88.49    4.40
  -3   1 -11  146.59    4.60
   3  -1  11  154.78    5.90
  -4   1 -11    7.40    1.40
   4  -1  11    5.40    1.70
  -4   0  11   81.99    3.30
  -4   0  11   81.09    3.70
   3   0 -11    1.00    0.90
  -3   0  11    2.50    1.20
   2   0 -11  230.38    5.70
  -2   0  11  225.88    6.60
   1   0 -11   14.00    1.50
  -1   0  11   17.50    2.20
   0   0 -11   28.70    2.00
   0   0  11   28.70    2.70
  -1   0 -11   84.39    3.20
   1   0  11   86.99    4.10
  -2   0 -11  249.08    6.20
   2   0  11  250.57    7.30
  -3   0 -11   14.20    1.80
   3   0  11   16.20    2.20
   4   0  11   89.29    4.30
  -5   0 -11  155.58    5.10
   5   0  11  161.98    5.90
  -4   1  11    1.10    1.00
  -4   1  11    1.30    1.10
   3  -1 -11  231.98    5.90
  -3   1  11  234.38    6.50
   2  -1 -11    0.60    0.90
  -2   1  11    2.20    1.20
   1  -1 -11  372.46    7.80
  -1   1  11  351.96    8.70
   0  -1 -11  123.99    3.90
   0   1  11  115.39    4.60
  -1  -1 -11   60.89    2.70
   1   1  11   60.09    3.40
  -2  -1 -11    4.80    1.20
   2   1  11    6.40    1.60
  -3  -1 -11  169.68    5.00
   3   1  11  173.08    5.80
   4   1  11   82.89    4.00
  -5  -1 -11   24.10    2.30
   5   1  11   24.70    2.60
  -6  -1 -11    0.50    1.10
   6   1  11    0.80    1.20
  -4   2  11   15.70    1.70
  -4   2  11   18.30    1.90
   3  -2 -11    0.50    0.90
  -3   2  11   -0.70    0.90
  -3   2  11    0.30    0.80
   2  -2 -11  111.79    3.70
  -2   2  11  113.79    4.30
   1  -2 -11   39.40    2.20
  -1   2  11   38.90    2.80
   0  -2 -11    6.30    1.10
   0   2  11    6.20    1.50
  -1  -2 -11   31.70    2.10
   1   2  11   33.20    2.60
  -2  -2 -11  223.08    5.70
   2   2  11  230.78    6.70
  -3  -2 -11    5.00    1.20
   3   2  11    4.60    1.50
   4   2  11   19.70    2.30
  -5  -2 -11   -0.10    0.90
   5   2  11    0.20    1.10
  -6  -2 -11   77.49    3.60
   6   2  11   73.49    3.80
  -7  -2 -11  216.28    6.50
   7   2  11  210.68    6.60
  -4   3  11   17.80    1.90
  -4   3  11   19.60    1.90
   3  -3 -11  119.29    4.00
  -3   3  11  118.59    4.20
  -3   3  11  111.19    3.80
   2  -3 -11   -0.80    0.80
  -2   3  11   -0.30    1.00
   1  -3 -11  270.27    6.30
  -1   3  11  274.57    7.10
   0  -3 -11    6.40    1.20
   0   3  11    4.90    1.40
  -1  -3 -11   19.50    1.80
   1   3  11   17.10    2.10
  -2  -3 -11   79.29    3.10
   2   3  11   74.69    3.70
  -3  -3 -11  273.77    6.60
   3   3  11  267.07    7.30
   4   3  11   16.20    2.10
  -5  -3 -11  394.56    9.10
   5   3  11  407.26    9.60
  -6  -3 -11  220.98    6.30
   6   3  11  212.88    6.50
  -7  -3 -11    5.10    1.50
   7   3  11    4.90    1.50
   3  -4 -11   18.10    1.80
  -3   4  11   16.00    1.70
  -3   4  11   20.50    2.10
  -3   4  11   20.10    2.10
   2  -4 -11  411.96    8.60
  -2   4  11  399.56    9.10
   1  -4 -11  165.08    4.60
  -1   4  11  161.38    5.10
   0  -4 -11   39.50    2.20
   0   4  11   43.80    2.80
  -1  -4 -11    3.70    1.10
   1   4  11    2.60    1.20
  -2  -4 -11   19.40    1.80
   2   4  11   26.20    2.40
  -3  -4 -11    4.80    1.20
   3   4  11    3.70    1.30
  -4  -4 -11  460.95    9.70
   4   4  11  468.05   10.40
  -5  -4 -11  311.97    7.60
   5   4  11  312.07    8.00
  -6  -4 -11    3.00    1.20
   6   4  11    0.00    1.00
  -7  -4 -11  101.49    4.20
   7   4  11   88.99    4.00
  -8  -4 -11    1.90    1.40
   8   4  11   -0.30    1.00
  -3   5  11  128.69    4.20
  -3   5  11  121.89    4.30
  -3   5  11  133.29    4.40
   2  -5 -11   63.59    2.90
  -2   5  11   61.89    3.20
  -2   5  11   61.79    3.20
   1  -5 -11  134.09    4.10
  -1   5  11  138.19    4.70
   0  -5 -11   79.99    3.00
   0   5  11   83.39    3.70
  -1  -5 -11    3.90    1.00
   1   5  11    7.20    1.50
  -2  -5 -11   25.00    1.90
   2   5  11   26.90    2.50
  -3  -5 -11   16.00    1.70
   3   5  11    9.50    1.60
  -4  -5 -11    4.50    1.20
   4   5  11    4.40    1.30
  -5  -5 -11   44.60    2.70
   5   5  11   49.60    3.10
  -6  -5 -11  235.28    6.50
   6   5  11  232.98    6.70
  -7  -5 -11    8.00    1.70
   7   5  11    7.90    1.60
  -8  -5 -11  118.99    4.80
   8   5  11  118.49    4.60
   2  -6 -11  108.49    3.70
  -2   6  11  105.09    4.10
  -2   6  11  106.19    3.70
  -2   6  11  113.09    4.20
   1  -6 -11  138.29    4.00
  -1   6  11  131.09    4.60
  -1   6  11  125.29    4.50
   0  -6 -11  104.99    3.50
   0   6  11  111.19    4.20
   0   6  11  113.69    4.30
  -1  -6 -11   24.80    1.80
   1   6  11   22.90    2.20
  -2  -6 -11    0.60    0.80
   2   6  11    3.80    1.30
  -3  -6 -11    9.40    1.40
   3   6  11   10.20    1.70
  -4  -6 -11  447.36    9.30
   4   6  11  449.86   10.10
   5   6  11  170.48    5.50
  -6  -6 -11    5.60    1.40
   6   6  11    3.30    1.30
  -7  -6 -11   27.80    2.60
   7   6  11   29.40    2.70
  -8  -6 -11    4.00    1.50
   8   6  11    0.90    1.20
   1  -7 -11  183.28    4.90
  -1   7  11  179.98    5.50
  -1   7  11  180.88    5.50
   0  -7 -11  200.38    5.10
   0   7  11  192.58    5.80
   0   7  11  201.18    5.90
  -1  -7 -11    6.90    1.20
   1   7  11    5.50    1.50
   1   7  11    5.90    1.50
  -2  -7 -11   64.79    2.70
   2   7  11   62.29    3.40
   2   7  11   61.59    3.30
  -3  -7 -11  129.19    4.00
   3   7  11  129.79    4.70
   3   7  11  129.49    4.70
  -4  -7 -11   42.70    2.40
   4   7  11   39.20    2.90
   4   7  11   40.00    2.80
  -5  -7 -11   21.70    2.10
   5   7  11   17.30    2.10
   5   7  11   15.70    2.00
  -6  -7 -11   49.00    2.80
   6   7  11   41.00    3.00
   6   7  11   47.40    3.10
  -7  -7 -11    1.10    1.10
   7   7  11    2.70    1.40
   7   7  11    3.10    1.30
   8   7  11  190.98    5.90
   0  -8 -11   89.29    3.20
   0   8  11   89.79    3.90
   0   8  11   86.69    4.00
  -1  -8 -11  144.49    4.10
   1   8  11  142.89    5.00
   1   8  11  149.79    5.10
  -2  -8 -11    0.80    0.80
   2   8  11    1.10    1.20
   2   8  11    1.80    1.20
  -3  -8 -11   -0.10    0.80
   3   8  11    1.30    1.20
   3   8  11    0.10    1.10
  -4  -8 -11  125.39    4.00
   4   8  11  130.49    4.80
   4   8  11  139.79    4.90
  -5  -8 -11    7.20    1.40
   5   8  11    8.80    1.80
   5   8  11    5.30    1.50
   6   8  11  271.67    7.30
   6   8  11  269.87    7.30
  -7  -8 -11  116.49    4.30
   7   8  11  119.99    4.60
   7   8  11  115.09    4.50
  -2  -9 -11   67.69    2.70
   2   9  11   63.19    3.50
   2   9  11   64.59    3.60
  -3  -9 -11  200.48    5.10
   3   9  11  200.48    6.20
   3   9  11  213.28    6.40
  -4  -9 -11   54.79    2.60
   4   9  11   55.49    3.40
   4   9  11   56.19    3.30
  -5  -9 -11   86.09    3.30
   5   9  11   78.69    3.90
   5   9  11   86.29    4.00
  -6  -9 -11  410.76    8.90
   6   9  11  417.56    9.70
   6   9  11  410.66    9.70
   1   2 -12    5.60    1.20
  -1  -2  12    7.30    1.90
   0   2 -12   11.90    1.60
   0  -2  12   12.00    2.30
  -1   2 -12  188.38    5.20
   1  -2  12  182.28    6.80
   2   1 -12   68.69    3.00
  -2  -1  12   70.19    4.00
   1   1 -12  107.59    3.80
  -1  -1  12  133.19    5.40
   0   1 -12    3.30    1.10
   0  -1  12    2.30    1.50
  -1   1 -12   17.50    1.90
   1  -1  12   23.80    2.90
  -2   1 -12   -1.20    0.90
   2  -1  12    0.30    1.20
  -3   1 -12   18.70    2.00
   3  -1  12   18.10    2.60
   3   0 -12    3.00    1.20
  -3   0  12    5.80    1.60
   2   0 -12    8.00    1.40
  -2   0  12    5.50    1.70
   1   0 -12   25.40    2.20
  -1   0  12   24.30    2.60
   0   0 -12    8.80    1.40
   0   0  12   11.80    2.00
  -1   0 -12   52.09    2.70
   1   0  12   45.30    3.30
  -2   0 -12   70.79    3.20
   2   0  12   64.29    3.90
  -3   0 -12  484.35   10.30
   3   0  12  484.55   11.80
  -4   0 -12   18.70    2.10
   4   0  12   17.30    2.50
   3  -1 -12   35.60    2.50
  -3   1  12   38.60    3.00
   2  -1 -12  268.67    6.50
  -2   1  12  269.47    7.40
   1  -1 -12  145.89    4.40
  -1   1  12  138.99    5.20
   0  -1 -12    0.60    0.90
   0   1  12    0.30    1.10
  -1  -1 -12    3.50    1.20
   1   1  12    4.60    1.60
  -2  -1 -12   40.60    2.50
   2   1  12   40.50    3.20
  -3  -1 -12   51.09    2.80
   3   1  12   42.20    3.20
  -4  -1 -12  136.79    4.70
   4   1  12  137.69    5.50
   5   1  12   74.19    4.10
   3  -2 -12   47.30    2.70
  -3   2  12   42.00    3.00
  -3   2  12   42.20    2.50
   2  -2 -12   40.80    2.40
  -2   2  12   43.70    3.00
   1  -2 -12  180.38    5.00
  -1   2  12  181.68    5.90
   0  -2 -12   23.40    2.10
   0   2  12   21.30    2.50
  -1  -2 -12   10.80    1.50
   1   2  12   10.30    1.80
  -2  -2 -12   21.60    2.10
   2   2  12   19.20    2.40
  -3  -2 -12  262.67    6.60
   3   2  12  243.28    7.40
  -4  -2 -12    5.30    1.30
   4   2  12    7.50    1.70
   5   2  12   88.19    4.40
  -6  -2 -12   72.39    3.70
   6   2  12   71.39    4.00
   3  -3 -12   29.20    2.50
  -3   3  12   33.20    2.70
  -3   3  12   30.30    2.30
   2  -3 -12  179.38    5.10
  -2   3  12  172.68    5.60
   1  -3 -12   33.20    2.30
  -1   3  12   37.20    2.80
   0  -3 -12   52.09    2.70
   0   3  12   55.89    3.30
  -1  -3 -12  117.09    3.90
   1   3  12  117.59    4.70
  -2  -3 -12  201.38    5.50
   2   3  12  206.88    6.40
  -3  -3 -12  169.48    5.10
   3   3  12  179.78    6.00
  -4  -3 -12   11.50    1.70
   4   3  12   11.70    1.90
   5   3  12   58.39    3.60
  -6  -3 -12    1.50    1.20
   6   3  12    1.10    1.30
   2  -4 -12  332.17    7.50
  -2   4  12  320.47    8.10
   1  -4 -12   47.40    2.50
  -1   4  12   45.40    3.00
   0  -4 -12  171.58    4.90
   0   4  12  172.38    5.70
  -1  -4 -12    0.10    0.90
   1   4  12    0.00    1.10
  -2  -4 -12   37.50    2.40
   2   4  12   38.60    2.90
  -3  -4 -12  102.09    3.80
   3   4  12  100.59    4.40
  -4  -4 -12   27.70    2.30
   4   4  12   27.30    2.70
   5   4  12  131.69    5.10
  -6  -4 -12   39.00    2.80
   6   4  12   42.40    3.10
  -7  -4 -12   -0.40    1.10
   7   4  12    0.40    1.10
   2  -5 -12    0.90    1.00
  -2   5  12    0.40    1.20
  -2   5  12    2.40    1.30
   1  -5 -12   26.60    2.10
  -1   5  12   26.50    2.50
   0  -5 -12   36.60    2.30
   0   5  12   36.10    2.80
  -1  -5 -12   15.10    1.70
   1   5  12   14.50    2.00
  -2  -5 -12    6.60    1.30
   2   5  12    9.10    1.70
  -3  -5 -12    6.50    1.30
   3   5  12    6.50    1.70
  -4  -5 -12  231.98    6.20
   4   5  12  239.58    7.00
   5   5  12  156.58    5.50
  -6  -5 -12    2.10    1.20
   6   5  12   -0.10    1.10
  -7  -5 -12   34.30    3.00
   7   5  12   32.40    2.90
   1  -6 -12  218.38    5.60
  -1   6  12  222.58    6.40
  -1   6  12  223.48    6.40
   0  -6 -12  318.57    7.20
   0   6  12  317.17    8.10
   0   6  12  314.77    8.00
  -1  -6 -12   12.70    1.60
   1   6  12   13.30    1.90
  -2  -6 -12   14.70    1.80
   2   6  12   14.00    2.00
  -3  -6 -12  158.68    4.80
   3   6  12  161.38    5.40
  -4  -6 -12   80.29    3.40
   4   6  12   77.89    4.00
  -5  -6 -12  407.76    9.10
   5   6  12  410.06    9.80
  -6  -6 -12  379.86    9.00
   6   6  12  371.16    9.30
  -7  -6 -12   48.80    3.20
   7   6  12   44.10    3.10
   0  -7 -12   55.59    2.70
   0   7  12   49.00    3.20
   0   7  12   53.89    3.30
  -1  -7 -12   47.30    2.50
   1   7  12   49.00    3.20
   1   7  12   40.70    3.10
  -2  -7 -12   36.80    2.30
   2   7  12   26.10    2.50
   2   7  12   41.70    3.00
  -3  -7 -12  137.39    4.30
   3   7  12  131.89    5.00
   3   7  12  142.29    5.20
  -4  -7 -12    7.00    1.40
   4   7  12    5.90    1.60
  -5  -7 -12  142.79    4.70
   5   7  12  139.29    5.10
   6   7  12    4.30    1.50
  -2  -8 -12   28.50    2.10
   2   8  12   29.00    2.80
   2   8  12   30.10    2.80
  -3  -8 -12    8.60    1.50
   3   8  12    8.80    1.80
   3   8  12    3.60    1.50
  -4  -8 -12   34.80    2.30
   4   8  12   35.60    2.90
   4   8  12   32.70    2.90
  -5  -8 -12   45.10    2.60
   5   8  12   38.40    3.00
   5   8  12   50.19    3.30
  -6  -8 -12   60.49    3.10
   6   8  12   61.99    3.60
   6   8  12   62.59    3.70
   0   0 -13    4.40    1.30
   0   0  13    6.10    1.70
  -1   0 -13   93.19    3.70
   1   0  13   97.09    4.80
  -2   0 -13  103.89    4.00
   2   0  13   91.99    4.80
   1  -1 -13   20.00    2.10
  -1   1  13   22.30    2.60
   0  -1 -13  133.49    4.50
   0   1  13  130.39    5.40
  -1  -1 -13  104.09    3.90
   1   1  13  111.89    5.10
  -2  -1 -13   13.70    1.80
   2   1  13   18.20    2.60
  -3  -1 -13   70.79    3.40
   3   1  13   75.69    4.30
   1  -2 -13  139.89    4.60
  -1   2  13  139.69    5.30
   0  -2 -13   20.70    2.10
   0   2  13   20.00    2.50
  -1  -2 -13   39.90    2.50
   1   2  13   39.40    3.20
  -2  -2 -13   53.39    2.90
   2   2  13   49.40    3.60
  -3  -2 -13   33.50    2.60
   3   2  13   38.00    3.40
  -4  -2 -13    9.90    1.80
   4   2  13   10.30    2.00
   1  -3 -13    6.70    1.40
  -1   3  13    7.70    1.80
   0  -3 -13    9.60    1.60
   0   3  13   13.80    2.20
  -1  -3 -13   18.80    2.00
   1   3  13   19.60    2.40
  -2  -3 -13    7.90    1.50
   2   3  13    4.80    1.60
  -3  -3 -13   67.19    3.30
   3   3  13   70.59    4.00
  -4  -3 -13    4.60    1.40
   4   3  13    5.10    1.70
  -5  -3 -13  329.17    8.20
   5   3  13  325.57    9.00
   1  -4 -13   44.60    2.60
  -1   4  13   43.20    3.10
   0  -4 -13    2.60    1.20
   0   4  13    3.80    1.50
  -1  -4 -13   15.60    1.80
   1   4  13   17.70    2.30
  -2  -4 -13   90.89    3.70
   2   4  13   91.19    4.40
  -3  -4 -13   39.00    2.60
   3   4  13   42.20    3.20
  -4  -4 -13   68.39    3.30
   4   4  13   65.19    3.80
  -5  -4 -13  261.77    7.00
   5   4  13  256.27    7.70
   0  -5 -13   45.70    2.60
   0   5  13   45.90    3.20
  -1  -5 -13    2.80    1.10
   1   5  13    1.60    1.20
  -2  -5 -13   55.19    2.90
   2   5  13   51.89    3.50
  -3  -5 -13   42.20    2.70
   3   5  13   45.50    3.20
  -4  -5 -13  127.09    4.50
   4   5  13  135.19    5.30
  -5  -5 -13   -1.40    1.10
   5   5  13   -1.40    1.10
  -1  -6 -13    1.80    1.10
   1   6  13    0.80    1.30
  -2  -6 -13   48.00    2.70
   2   6  13   49.10    3.30
  -3  -6 -13    9.20    1.60
   3   6  13   11.20    1.90
  -4  -6 -13   84.39    3.70
   4   6  13   89.89    4.30
  -5  -6 -13  147.09    5.00
   5   6  13  156.98    5.70
  -2  -7 -13  187.88    5.30
   2   7  13  193.98    6.40
   2   7  13  185.68    6.10
  -3  -7 -13   73.89    3.30
   3   7  13   76.79    4.00
  -4  -7 -13   65.49    3.20
   4   7  13   70.09    3.90
  -5  -7 -13    4.40    1.40
   5   7  13    5.90    1.70
  -2  -4 -14   21.90    2.30

_computing_structure_solution     'SHELXT 2014/4 (Sheldrick, 2014)'
;
_shelx_hkl_checksum              24815
loop_
_space_group_symop_operation_xyz
'x, y, z'
'-x, -y, -z'
loop_
_atom_site_label
_atom_site_type_symbol
_atom_site_fract_x
_atom_site_fract_y
_atom_site_fract_z
_atom_site_U_iso_or_equiv
_atom_site_adp_type
_atom_site_occupancy
_atom_site_site_symmetry_order
_atom_site_calc_flag
_atom_site_refinement_flags_posn
_atom_site_refinement_flags_adp
Co01 Co 0.66966(3) 0.75417(3) 0.70688(3) 0.02418(10) Uani 1 1 d . .
O1 O 0.8383(2) 0.7070(2) 0.91919(14) 0.0355(4) Uani 1 1 d . .
N1 N 0.41694(17) 0.60962(17) 0.69422(13) 0.0125(3) Uani 1 1 d . .
C1 C 0.5668(2) 0.5855(2) 0.73407(15) 0.0131(3) Uani 1 1 d . .
N2 N 0.62356(17) 0.42403(17) 0.80771(13) 0.0131(3) Uani 1 1 d . .
O2 O 0.9064(2) 0.6950(2) 0.48817(14) 0.0345(3) Uani 1 1 d . .
C2 C 0.3769(2) 0.4672(2) 0.74693(15) 0.0141(3) Uani 1 1 d . .
C3 C 0.5072(2) 0.3506(2) 0.81813(15) 0.0142(3) Uani 1 1 d . .
O3 O 0.4037(2) 1.08428(19) 0.67131(18) 0.0419(4) Uani 1 1 d . .
C4 C 0.2181(2) 0.4526(2) 0.72885(19) 0.0214(4) Uani 1 1 d . .
H4A H 0.2268 0.4400 0.6449 0.032 Uiso 1 1 calc R U
H4B H 0.1184 0.5537 0.7370 0.032 Uiso 1 1 calc R U
H4C H 0.2047 0.3545 0.7928 0.032 Uiso 1 1 calc R U
C5 C 0.5277(2) 0.1757(2) 0.89356(17) 0.0200(4) Uani 1 1 d . .
H5A H 0.4185 0.1627 0.9023 0.030 Uiso 1 1 calc R U
H5B H 0.5624 0.1532 0.9771 0.030 Uiso 1 1 calc R U
H5C H 0.6158 0.0965 0.8507 0.030 Uiso 1 1 calc R U
C6 C 0.3209(2) 0.7646(2) 0.59974(15) 0.0145(3) Uani 1 1 d . .
H6 H 0.3916 0.8346 0.5730 0.017 Uiso 1 1 calc R U
C9 C 0.7882(2) 0.3441(2) 0.86732(16) 0.0156(3) Uani 1 1 d . .
H9 H 0.8475 0.4243 0.8313 0.019 Uiso 1 1 calc R U
C8 C 0.1494(2) 0.8682(2) 0.65511(17) 0.0219(4) Uani 1 1 d . .
H8A H 0.0976 0.9754 0.5924 0.033 Uiso 1 1 calc R U
H8B H 0.1674 0.8886 0.7297 0.033 Uiso 1 1 calc R U
H8C H 0.0728 0.8072 0.6789 0.033 Uiso 1 1 calc R U
C7 C 0.3053(2) 0.7292(2) 0.48162(17) 0.0217(4) Uani 1 1 d . .
H7A H 0.2612 0.8351 0.4158 0.033 Uiso 1 1 calc R U
H7B H 0.2264 0.6713 0.5008 0.033 Uiso 1 1 calc R U
H7C H 0.4184 0.6584 0.4523 0.033 Uiso 1 1 calc R U
C10 C 0.9071(2) 0.1830(2) 0.83351(18) 0.0231(4) Uani 1 1 d . .
H10A H 0.9107 0.2018 0.7427 0.035 Uiso 1 1 calc R U
H10B H 0.8642 0.0940 0.8787 0.035 Uiso 1 1 calc R U
H10C H 1.0228 0.1497 0.8574 0.035 Uiso 1 1 calc R U
C11 C 0.7595(2) 0.3227(3) 1.00814(17) 0.0238(4) Uani 1 1 d . .
H11A H 0.8697 0.2845 1.0429 0.036 Uiso 1 1 calc R U
H11B H 0.7074 0.2397 1.0487 0.036 Uiso 1 1 calc R U
H11C H 0.6828 0.4302 1.0237 0.036 Uiso 1 1 calc R U
C21 C 0.5056(2) 0.9512(2) 0.68243(17) 0.0185(4) Uani 1 1 d . .
N26 N 0.7715(2) 0.7171(2) 0.83655(17) 0.0271(4) Uani 1 1 d . .
C27 C 0.8120(2) 0.7196(2) 0.57274(16) 0.0179(3) Uani 1 1 d . .
loop_
_atom_site_aniso_label
_atom_site_aniso_U_11
_atom_site_aniso_U_22
_atom_site_aniso_U_33
_atom_site_aniso_U_23
_atom_site_aniso_U_13
_atom_site_aniso_U_12
Co01 0.02421(15) 0.02110(15) 0.03270(16) -0.00752(11) -0.00033(11) -0.01464(11)
O1 0.0306(8) 0.0511(10) 0.0293(8) -0.0149(7) -0.0085(6) -0.0144(7)
N1 0.0124(6) 0.0113(6) 0.0129(6) -0.0034(5) -0.0013(5) -0.0036(5)
C1 0.0128(8) 0.0137(8) 0.0115(7) -0.0048(6) 0.0003(6) -0.0034(6)
N2 0.0122(7) 0.0123(7) 0.0133(7) -0.0037(5) -0.0015(5) -0.0030(5)
O2 0.0320(8) 0.0429(9) 0.0309(8) -0.0122(7) 0.0019(7) -0.0169(7)
C2 0.0153(8) 0.0132(8) 0.0149(8) -0.0064(6) 0.0011(6) -0.0057(6)
C3 0.0153(8) 0.0141(8) 0.0138(8) -0.0064(6) 0.0016(6) -0.0055(6)
O3 0.0392(9) 0.0266(8) 0.0614(11) -0.0180(8) -0.0234(8) -0.0008(7)
C4 0.0176(9) 0.0167(8) 0.0317(10) -0.0062(7) -0.0051(7) -0.0072(7)
C5 0.0230(9) 0.0141(8) 0.0218(9) -0.0022(7) -0.0035(7) -0.0075(7)
C6 0.0147(8) 0.0120(8) 0.0146(8) -0.0013(6) -0.0043(6) -0.0036(6)
C9 0.0124(8) 0.0158(8) 0.0163(8) -0.0033(6) -0.0042(6) -0.0027(6)
C8 0.0195(9) 0.0170(9) 0.0200(9) -0.0039(7) -0.0021(7) 0.0008(7)
C7 0.0265(10) 0.0227(9) 0.0157(8) -0.0052(7) -0.0052(7) -0.0077(8)
C10 0.0170(9) 0.0198(9) 0.0269(10) -0.0080(8) -0.0037(7) 0.0001(7)
C11 0.0222(9) 0.0306(10) 0.0180(9) -0.0069(8) -0.0059(7) -0.0074(8)
C21 0.0195(9) 0.0157(9) 0.0234(9) -0.0067(7) -0.0078(7) -0.0060(7)
N26 0.0220(8) 0.0263(9) 0.0322(9) -0.0090(7) -0.0003(7) -0.0087(7)
C27 0.0169(8) 0.0195(9) 0.0188(9) -0.0034(7) -0.0021(7) -0.0098(7)
loop_
_atom_type_symbol
_atom_type_description
_atom_type_scat_dispersion_real
_atom_type_scat_dispersion_imag
_atom_type_scat_source
C C 0.0033 0.0016 'International Tables Vol C Tables 4.2.6.8 and 6.1.1.4'
H H 0.0000 0.0000 'International Tables Vol C Tables 4.2.6.8 and 6.1.1.4'
N N 0.0061 0.0033 'International Tables Vol C Tables 4.2.6.8 and 6.1.1.4'
O O 0.0106 0.0060 'International Tables Vol C Tables 4.2.6.8 and 6.1.1.4'
Co Co 0.3494 0.9721 'International Tables Vol C Tables 4.2.6.8 and 6.1.1.4'
loop_
_geom_angle_atom_site_label_1
_geom_angle_atom_site_label_2
_geom_angle_atom_site_label_3
_geom_angle
N26 Co01 C21 108.26(8)
N26 Co01 C27 113.58(8)
C21 Co01 C27 114.77(8)
N26 Co01 C1 111.47(7)
C21 Co01 C1 108.28(7)
C27 Co01 C1 100.21(7)
C1 N1 C2 111.12(13)
C1 N1 C6 122.35(14)
C2 N1 C6 126.38(14)
N2 C1 N1 104.41(14)
N2 C1 Co01 127.05(12)
N1 C1 Co01 128.25(12)
C1 N2 C3 111.19(14)
C1 N2 C9 122.15(14)
C3 N2 C9 126.66(14)
C3 C2 N1 106.51(14)
C3 C2 C4 127.95(16)
N1 C2 C4 125.52(15)
C2 C3 N2 106.70(14)
C2 C3 C5 128.00(16)
N2 C3 C5 125.31(15)
C2 C4 H4A 109.5
C2 C4 H4B 109.5
H4A C4 H4B 109.5
C2 C4 H4C 109.5
H4A C4 H4C 109.5
H4B C4 H4C 109.5
C3 C5 H5A 109.5
C3 C5 H5B 109.5
H5A C5 H5B 109.5
C3 C5 H5C 109.5
H5A C5 H5C 109.5
H5B C5 H5C 109.5
N1 C6 C8 112.50(14)
N1 C6 C7 112.02(14)
C8 C6 C7 113.05(15)
N1 C6 H6 106.2
C8 C6 H6 106.2
C7 C6 H6 106.2
N2 C9 C11 111.41(14)
N2 C9 C10 112.54(14)
C11 C9 C10 113.39(15)
N2 C9 H9 106.3
C11 C9 H9 106.3
C10 C9 H9 106.3
C6 C8 H8A 109.5
C6 C8 H8B 109.5
H8A C8 H8B 109.5
C6 C8 H8C 109.5
H8A C8 H8C 109.5
H8B C8 H8C 109.5
C6 C7 H7A 109.5
C6 C7 H7B 109.5
H7A C7 H7B 109.5
C6 C7 H7C 109.5
H7A C7 H7C 109.5
H7B C7 H7C 109.5
C9 C10 H10A 109.5
C9 C10 H10B 109.5
H10A C10 H10B 109.5
C9 C10 H10C 109.5
H10A C10 H10C 109.5
H10B C10 H10C 109.5
C9 C11 H11A 109.5
C9 C11 H11B 109.5
H11A C11 H11B 109.5
C9 C11 H11C 109.5
H11A C11 H11C 109.5
H11B C11 H11C 109.5
O3 C21 Co01 174.78(16)
O1 N26 Co01 173.87(16)
O2 C27 Co01 178.49(17)
loop_
_geom_bond_atom_site_label_1
_geom_bond_atom_site_label_2
_geom_bond_distance
Co01 N26 1.7282(18)
Co01 C21 1.7353(17)
Co01 C27 1.7722(18)
Co01 C1 2.0017(17)
O1 N26 1.156(2)
N1 C1 1.362(2)
N1 C2 1.397(2)
N1 C6 1.482(2)
C1 N2 1.361(2)
N2 C3 1.395(2)
N2 C9 1.480(2)
O2 C27 1.140(2)
C2 C3 1.354(2)
C2 C4 1.493(2)
C3 C5 1.495(2)
O3 C21 1.147(2)
C4 H4A 0.9800
C4 H4B 0.9800
C4 H4C 0.9800
C5 H5A 0.9800
C5 H5B 0.9800
C5 H5C 0.9800
C6 C8 1.522(2)
C6 C7 1.523(2)
C6 H6 1.0000
C9 C11 1.520(2)
C9 C10 1.525(2)
C9 H9 1.0000
C8 H8A 0.9800
C8 H8B 0.9800
C8 H8C 0.9800
C7 H7A 0.9800
C7 H7B 0.9800
C7 H7C 0.9800
C10 H10A 0.9800
C10 H10B 0.9800
C10 H10C 0.9800
C11 H11A 0.9800
C11 H11B 0.9800
C11 H11C 0.9800
