#------------------------------------------------------------------------------
#$Date: 2019-11-24 11:56:43 +0200 (Sun, 24 Nov 2019) $
#$Revision: 237860 $
#$URL: file:///home/coder/svn-repositories/cod/cif/4/08/88/4088860.cif $
#------------------------------------------------------------------------------
#
# This file is available in the Crystallography Open Database (COD),
# http://www.crystallography.net/
#
# All data on this site have been placed in the public domain by the
# contributors.
#
data_4088860
loop_
_publ_author_name
'Allen, Thomas H.'
'Geib, Steven J.'
'Curran, Dennis P.'
_publ_section_title
;
 Radical and Thermal Reactions of N-Heterocyclic Carbene Boranes with
 Diazo Compounds
;
_journal_issue                   17
_journal_name_full               Organometallics
_journal_page_first              2975
_journal_paper_doi               10.1021/acs.organomet.6b00497
_journal_volume                  35
_journal_year                    2016
_chemical_formula_sum            'C11 H17 B N4 O4'
_chemical_formula_weight         280.09
_space_group_crystal_system      triclinic
_space_group_IT_number           2
_space_group_name_Hall           '-P 1'
_space_group_name_H-M_alt        'P -1'
_atom_sites_solution_hydrogens   mixed
_audit_creation_method           SHELXL-2014/7
_cell_angle_alpha                90.0104(18)
_cell_angle_beta                 96.5593(17)
_cell_angle_gamma                91.4265(19)
_cell_formula_units_Z            2
_cell_length_a                   7.8797(3)
_cell_length_b                   8.5109(4)
_cell_length_c                   10.1918(4)
_cell_measurement_reflns_used    5600
_cell_measurement_temperature    230(2)
_cell_measurement_theta_max      68.259
_cell_measurement_theta_min      4.367
_cell_volume                     678.81(5)
_computing_structure_refinement  'SHELXL-2014/7 (Sheldrick, 2014)'
_diffrn_ambient_temperature      230(2)
_diffrn_measured_fraction_theta_full 0.978
_diffrn_measured_fraction_theta_max 0.976
_diffrn_measurement_device_type  'Bruker X8 Prospector Ultra Cu ImuS'
_diffrn_radiation_type           CuK\a
_diffrn_radiation_wavelength     1.54178
_diffrn_reflns_av_R_equivalents  0.0191
_diffrn_reflns_av_unetI/netI     0.0175
_diffrn_reflns_Laue_measured_fraction_full 0.978
_diffrn_reflns_Laue_measured_fraction_max 0.976
_diffrn_reflns_limit_h_max       9
_diffrn_reflns_limit_h_min       -9
_diffrn_reflns_limit_k_max       8
_diffrn_reflns_limit_k_min       -9
_diffrn_reflns_limit_l_max       12
_diffrn_reflns_limit_l_min       -12
_diffrn_reflns_number            10760
_diffrn_reflns_point_group_measured_fraction_full 0.978
_diffrn_reflns_point_group_measured_fraction_max 0.976
_diffrn_reflns_theta_full        67.679
_diffrn_reflns_theta_max         68.365
_diffrn_reflns_theta_min         4.367
_exptl_absorpt_coefficient_mu    0.869
_exptl_absorpt_correction_T_max  0.99
_exptl_absorpt_correction_T_min  0.86
_exptl_absorpt_correction_type   multi-scan
_exptl_absorpt_process_details   'Bruker Sadabs'
_exptl_crystal_colour            colorless
_exptl_crystal_density_diffrn    1.370
_exptl_crystal_description       needle
_exptl_crystal_F_000             296
_exptl_crystal_size_max          0.180
_exptl_crystal_size_mid          0.040
_exptl_crystal_size_min          0.015
_refine_diff_density_max         0.216
_refine_diff_density_min         -0.190
_refine_diff_density_rms         0.047
_refine_ls_extinction_coef       0.0044(17)
_refine_ls_extinction_expression Fc^*^=kFc[1+0.001xFc^2^\l^3^/sin(2\q)]^-1/4^
_refine_ls_extinction_method     'SHELXL-2014/7 (Sheldrick 2014'
_refine_ls_goodness_of_fit_ref   1.472
_refine_ls_hydrogen_treatment    refU
_refine_ls_matrix_type           full
_refine_ls_number_parameters     218
_refine_ls_number_reflns         2430
_refine_ls_number_restraints     0
_refine_ls_restrained_S_all      1.472
_refine_ls_R_factor_all          0.0365
_refine_ls_R_factor_gt           0.0338
_refine_ls_shift/su_max          0.000
_refine_ls_shift/su_mean         0.000
_refine_ls_structure_factor_coef Fsqd
_refine_ls_weighting_details
'w=1/[\s^2^(Fo^2^)+(0.0680P)^2^] where P=(Fo^2^+2Fc^2^)/3'
_refine_ls_weighting_scheme      calc
_refine_ls_wR_factor_gt          0.1143
_refine_ls_wR_factor_ref         0.1179
_reflns_Friedel_coverage         0.000
_reflns_number_gt                2234
_reflns_number_total             2430
_reflns_threshold_expression     'I > 2\s(I)'
_cod_data_source_file            om6b00497_si_002.cif
_cod_data_source_block           tomallen3_a
_cod_database_code               4088860
_shelx_shelxl_version_number     2014/7
_shelx_space_group_comment
;
The symmetry employed for this shelxl refinement is uniquely defined
by the following loop, which should always be used as a source of
symmetry information in preference to the above space-group names.
They are only intended as comments.
;
_shelx_estimated_absorpt_t_min   0.859
_shelx_estimated_absorpt_t_max   0.987
_shelx_res_file
;

    tomallen3_a.res created by SHELXL-2014/7


TITL TomAllen3 in P-1
CELL 1.54178   7.87970   8.51090  10.19180  90.0104  96.5593  91.4265
ZERR 2 0.00030 0.00040 0.00040 0.0018 0.0017 0.0019
LATT 1
SFAC C  H  B  N  O
UNIT 22  34  2  8  8
L.S. 10
BOND $H
acta
FMAP 2
PLAN 20
SIZE 0.015 0.040 0.180
TEMP -43.140
WGHT    0.068000
EXTI    0.004436
FVAR       1.14091
B1    3    0.853817    0.590484    0.316733    11.00000    0.03600    0.05235 =
         0.02797   -0.00685    0.00077    0.00918
C1    1    0.776778    0.595333    0.456197    11.00000    0.03008    0.03494 =
         0.02684   -0.00144   -0.00250    0.00410
H1A   2    0.960426    0.681513    0.313152    11.00000    0.05290
N1    4    0.727863    0.472142    0.526786    11.00000    0.03378    0.03294 =
         0.03869    0.00344   -0.00516    0.00215
H1N   2    0.900456    0.472793    0.297715    11.00000    0.05661
O1    5    0.357142    0.765171   -0.108988    11.00000    0.04015    0.04722 =
         0.02255    0.00052    0.00427    0.00638
C2    1    0.681280    0.522706    0.645640    11.00000    0.03630    0.05086 =
         0.03595    0.01341    0.00425    0.00230
H2    2    0.643953    0.445915    0.706949    11.00000    0.05431
N2    4    0.758195    0.722334    0.531280    11.00000    0.03646    0.03431 =
         0.02403   -0.00034    0.00301    0.00225
O2    5    0.256224    0.939689    0.042736    11.00000    0.04748    0.03092 =
         0.03495   -0.00325    0.00073    0.00782
C3    1    0.699793    0.679114    0.649019    11.00000    0.03947    0.04863 =
         0.02590    0.00233    0.00653    0.00623
H3    2    0.680442    0.757084    0.713080    11.00000    0.04060
N3    4    0.715979    0.632290    0.201997    11.00000    0.03627    0.04119 =
         0.02429   -0.00613    0.00368    0.00374
H3N   2    0.721964    0.601552    0.121406    11.00000    0.04547
O3    5    0.597655    0.639917   -0.058599    11.00000    0.04397    0.05456 =
         0.02606   -0.00387    0.00811    0.01171
C4    1    0.725092    0.307270    0.485784    11.00000    0.05099    0.03299 =
         0.07094   -0.00183   -0.01495    0.00228
AFIX 137
H4B   2    0.841074    0.269984    0.492322    11.00000    0.07045
H4B   2    0.672862    0.297674    0.395142    11.00000    0.07257
H4C   2    0.659502    0.244837    0.542702    11.00000    0.08889
AFIX   0
N4    4    0.598502    0.729323    0.216409    11.00000    0.03448    0.03405 =
         0.02585   -0.00307    0.00394   -0.00123
O4    5    0.369877    0.960525    0.250684    11.00000    0.06951    0.05106 =
         0.03607   -0.01644    0.00138    0.01825
C5    1    0.783227    0.884750    0.491585    11.00000    0.05781    0.03197 =
         0.03855   -0.00116    0.00626   -0.00227
AFIX 137
H5A   2    0.680490    0.919979    0.439511    11.00000    0.06474
H5B   2    0.878443    0.892053    0.439211    11.00000    0.06171
H5C   2    0.807430    0.950464    0.569577    11.00000    0.07809
AFIX   0
C6    1    0.485747    0.772811    0.114932    11.00000    0.03614    0.02937 =
         0.02479   -0.00153    0.00519   -0.00136
C7    1    0.487692    0.719462   -0.019491    11.00000    0.03461    0.03491 =
         0.02361    0.00110    0.00555    0.00035
C8    1    0.207554    0.827204   -0.060319    11.00000    0.03797    0.03471 =
         0.02852   -0.00226    0.00409    0.00449
C9    1    0.369867    0.893417    0.146200    11.00000    0.04215    0.03131 =
         0.02988   -0.00343    0.00398    0.00077
C10   1    0.099396    0.695556   -0.010596    11.00000    0.04347    0.04292 =
         0.04363   -0.00261    0.00816   -0.00446
AFIX 137
H10A  2    0.166687    0.638967    0.058830    11.00000    0.05824
H10B  2    0.061234    0.624124   -0.082741    11.00000    0.04778
H10C  2    0.000937    0.739191    0.023995    11.00000    0.06353
AFIX   0
C11   1    0.116939    0.917157   -0.173826    11.00000    0.05284    0.05082 =
         0.03725    0.00346   -0.00299    0.01173
AFIX 137
H11A  2    0.193246    0.998566   -0.201735    11.00000    0.07423
H11B  2    0.016438    0.964872   -0.145851    11.00000    0.07256
H11C  2    0.082833    0.845906   -0.246920    11.00000    0.05356

AFIX   0
HKLF 4

REM  TomAllen3 in P-1
REM R1 =  0.0338 for    2234 Fo > 4sig(Fo)  and  0.0365 for all    2430 data
REM    218 parameters refined using      0 restraints

END

WGHT      0.0658      0.1125

REM Highest difference peak  0.216,  deepest hole -0.190,  1-sigma level  0.047
Q1    1   0.8125  0.5945  0.3831  11.00000  0.05    0.22
Q2    1   0.1533  0.7656 -0.0275  11.00000  0.05    0.21
Q3    1   0.1506  0.8755 -0.1111  11.00000  0.05    0.18
Q4    1   0.4775  0.7367  0.0564  11.00000  0.05    0.18
Q5    1   0.7265  0.7121  0.5812  11.00000  0.05    0.17
Q6    1  -0.0312  0.9148 -0.1405  11.00000  0.05    0.17
Q7    1   0.8243  0.3062  0.4161  11.00000  0.05    0.17
Q8    1   0.4394  0.8296  0.1277  11.00000  0.05    0.17
Q9    1   0.4121  0.8015  0.1355  11.00000  0.05    0.16
Q10   1   0.9671  0.7552  0.3322  11.00000  0.05    0.16
Q11   1   0.9819  0.6217  0.3198  11.00000  0.05    0.15
Q12   1   0.3295  0.8766  0.2471  11.00000  0.05    0.15
Q13   1   0.5984  0.7826  0.2877  11.00000  0.05    0.14
Q14   1   0.8167  0.5101  0.5162  11.00000  0.05    0.14
Q15   1   0.7087  0.5985 -0.0053  11.00000  0.05    0.14
Q16   1   0.7400  0.4002  0.4984  11.00000  0.05    0.14
Q17   1   0.4036  0.9546  0.2011  11.00000  0.05    0.13
Q18   1   0.6780  0.9638  0.5451  11.00000  0.05    0.12
Q19   1   0.6816  0.6768  0.0053  11.00000  0.05    0.12
Q20   1   0.7460  0.7592  0.2127  11.00000  0.05    0.12
;
_shelx_res_checksum              23226
_shelx_hkl_file
;
  -1   0   0 2384.66   45.90
  -4   0   0   19.80    1.40
  -4   0   0   20.60    2.30
  -5   0   0   20.60    1.70
  -5   0   0   19.40    2.40
  -6   0   0   87.29    5.00
  -6   0   0   75.39    2.90
   6   0   0   74.29    2.60
   6   0   0   84.89    3.40
   6   0   0   80.39    2.80
  -7   0   0   15.10    1.30
   7   0   0   16.80    1.30
   7   0   0   14.90    1.70
   7   0   0   13.00    1.30
  -8   0   0  132.79    3.60
   8   0   0  132.49    3.70
  -9   0   0   14.20    0.90
   9   0   0   13.90    1.00
   9  -1   0    8.10    0.80
  -9   1   0    6.40    0.70
   8  -1   0  206.78    4.80
   8  -1   0  207.78    5.50
   8  -1   0  211.88    5.10
  -8   1   0  207.98    5.10
   7  -1   0  196.18    5.10
   7  -1   0  198.78    4.90
   7  -1   0  204.38    5.70
   7  -1   0  205.58    4.90
  -7   1   0  214.18    5.20
   6  -1   0    5.80    0.80
   6  -1   0    5.10    1.00
   6  -1   0    5.20    1.10
   6  -1   0    3.90    0.80
  -6   1   0    5.40    1.90
  -5   1   0  486.15   13.70
  -5   1   0  488.25   10.30
  -5   1   0  485.45   11.10
  -4   1   0  388.86    8.20
  -4   1   0  400.76    8.80
  -3   1   0  581.34   11.70
  -3   1   0  588.54   13.70
  -2   1   0    1.00    0.60
  -2   1   0    1.50    0.40
  -1   1   0   81.89    2.00
  -1   1   0   84.29    2.30
   0  -1   0  234.58    4.60
   0  -1   0  244.68    4.80
  -1  -1   0   -2.60    0.30
  -1  -1   0   -0.90    0.50
  -2  -1   0  561.04   11.10
  -2  -1   0  589.44   11.70
  -3  -1   0   59.89    2.70
  -3  -1   0   59.89    2.00
  -4  -1   0    0.40    0.80
  -4  -1   0    0.20    0.50
  -5  -1   0    9.10    1.70
  -5  -1   0    7.30    1.10
  -6  -1   0    0.20    0.60
   6   1   0    0.20    0.70
   6   1   0   -0.40    0.80
  -7  -1   0   37.30    1.80
   7   1   0   37.60    2.00
   7   1   0   35.30    1.90
  -8  -1   0   30.90    1.60
   8   1   0   32.60    1.70
   8   1   0   33.90    1.70
   9   1   0   54.89    1.80
   9  -2   0    0.80    0.40
   9  -2   0    0.60    0.50
  -9   2   0    0.50    0.50
   8  -2   0   25.90    1.40
   8  -2   0   21.20    1.70
   8  -2   0   25.60    1.50
  -8   2   0   26.90    1.60
   7  -2   0  150.28    4.60
   7  -2   0  142.99    3.90
   7  -2   0  150.08    3.70
   7  -2   0  143.19    4.00
   7  -2   0  147.29    3.90
   7  -2   0  148.49    3.90
   6  -2   0   25.20    1.50
   6  -2   0   27.40    1.50
   6  -2   0   30.20    1.60
   6  -2   0   27.90    1.50
   6  -2   0   26.60    1.40
   6  -2   0   25.30    1.90
  -6   2   0   26.70    1.80
   5  -2   0    3.60    0.70
  -5   2   0    3.30    1.00
  -5   2   0    1.20    1.60
  -5   2   0    2.90    0.70
  -4   2   0    0.00    0.40
  -4   2   0    0.10    0.60
  -4   2   0   -0.60    1.20
  -3   2   0   38.40    1.70
  -2   2   0   18.90    1.50
  -2   2   0   18.70    1.10
   1  -2   0 1204.18   22.40
   1  -2   0 1198.28   22.90
  -1   2   0 1217.08   22.50
   0  -2   0  916.81   17.00
   0  -2   0  871.41   16.60
  -1  -2   0 6461.75  119.29
  -1  -2   0 6361.06  120.09
  -2  -2   0 2619.24   49.30
  -2  -2   0 2711.13   49.40
  -2  -2   0 2730.33   49.90
  -3  -2   0  128.29    3.50
  -3  -2   0  134.79    4.00
  -3  -2   0  124.49    3.20
  -4  -2   0   30.90    2.10
  -4  -2   0   28.00    1.50
  -4  -2   0   29.60    1.70
   4   2   0   29.80    1.50
  -5  -2   0    6.60    1.10
  -6  -2   0    7.90    1.10
  -6  -2   0    5.60    0.90
   6   2   0    6.50    1.00
   6   2   0    5.30    1.00
  -7  -2   0    2.30    0.80
   7   2   0    3.50    0.90
   7   2   0    2.20    0.90
   8   2   0    0.50    0.60
   8   2   0   -0.50    0.60
   9   2   0    6.00    0.70
   9  -3   0   18.00    0.90
   9  -3   0   17.30    1.00
  -9   3   0   18.80    1.00
   8  -3   0    0.50    0.60
   8  -3   0    1.80    0.50
   8  -3   0    0.60    0.50
   8  -3   0    1.10    0.80
   8  -3   0    0.20    0.50
  -8   3   0    1.30    0.70
  -8   3   0    1.50    1.00
   7  -3   0  275.77    6.10
   7  -3   0  271.57    6.30
   7  -3   0  270.27    6.00
   7  -3   0  259.07    6.90
   7  -3   0  267.57    6.20
   7  -3   0  271.67    6.30
  -7   3   0  266.27    6.80
   6  -3   0  121.29    3.40
   6  -3   0  119.39    3.30
   6  -3   0  123.39    4.10
   6  -3   0  122.89    3.50
   6  -3   0  126.79    3.60
   6  -3   0  119.59    3.50
   6  -3   0  130.69    3.50
  -6   3   0  124.79    4.00
   5  -3   0   43.50    1.80
   5  -3   0   40.00    2.30
  -5   3   0   29.00    4.10
  -5   3   0   42.80    2.00
  -5   3   0   42.80    2.50
   4  -3   0   44.90    2.50
  -4   3   0   34.80    3.40
  -4   3   0   41.30    1.70
  -4   3   0   41.20    2.10
  -3   3   0   59.29    3.30
  -3   3   0   57.49    2.30
  -2   3   0   29.40    1.60
  -2   3   0   29.90    2.10
   1  -3   0   54.09    2.10
   1  -3   0   54.19    1.70
   0  -3   0 1301.27   24.00
   0  -3   0 1251.57   24.00
   0  -3   0 1310.17   24.50
  -1  -3   0  129.39    3.10
  -1  -3   0  130.79    3.40
  -1  -3   0  129.59    3.10
  -2  -3   0   57.19    2.00
  -2  -3   0   56.39    1.90
  -2  -3   0   58.49    2.20
  -3  -3   0   75.99    2.50
  -3  -3   0   76.59    2.50
  -3  -3   0   77.49    2.90
   3   3   0   75.09    2.80
  -4  -3   0    3.80    0.80
  -4  -3   0    4.90    0.90
   4   3   0    3.60    0.80
  -5  -3   0   -0.20    0.50
  -5  -3   0    0.00    0.70
   5   3   0    1.70    0.70
  -6  -3   0   40.50    2.00
  -6  -3   0   40.80    1.90
  -6  -3   0   37.00    1.90
   6   3   0   38.60    2.00
  -7  -3   0    9.20    1.20
   7   3   0   11.20    1.20
   7   3   0   10.70    1.30
  -8  -3   0   59.59    2.10
   8   3   0   58.69    2.10
   8   3   0   61.69    2.10
   8  -4   0   27.50    1.70
   8  -4   0   26.10    1.30
   8  -4   0   25.50    1.30
   8  -4   0   24.70    1.10
   8  -4   0   25.00    1.20
   8  -4   0   25.40    1.20
  -8   4   0   26.20    1.40
  -8   4   0   26.80    1.50
   7  -4   0    0.90    0.50
   7  -4   0   -0.20    0.70
   7  -4   0   -0.10    0.50
   7  -4   0   -0.50    0.50
   7  -4   0    0.40    0.60
   7  -4   0    0.30    0.60
   7  -4   0   -0.70    0.50
  -7   4   0    0.10    0.60
   6  -4   0   84.99    2.80
   6  -4   0   83.89    2.60
   6  -4   0   81.59    2.70
   6  -4   0   84.89    2.70
   6  -4   0   79.59    2.60
   6  -4   0   88.19    3.40
   6  -4   0   83.59    2.90
  -6   4   0   87.19    3.30
   5  -4   0   14.50    1.10
   5  -4   0   14.70    1.20
   5  -4   0   16.60    1.20
   5  -4   0   17.10    1.40
   5  -4   0   13.70    1.10
   5  -4   0   13.70    1.20
   5  -4   0   17.80    1.70
  -5   4   0   15.30    1.30
   4  -4   0    3.30    0.70
  -4   4   0    3.50    1.60
  -4   4   0    3.50    0.90
  -4   4   0    3.40    0.60
  -3   4   0   18.30    2.20
  -3   4   0   17.70    1.40
  -2   4   0   -0.20    0.50
  -2   4   0    0.70    0.80
   1  -4   0  778.42   16.10
   1  -4   0  777.92   15.20
   1  -4   0  762.02   14.80
  -1   4   0  795.12   15.30
   0  -4   0  121.89    3.70
   0  -4   0  126.19    3.20
   0  -4   0  119.69    3.10
  -1  -4   0  161.78    3.90
  -1  -4   0  163.68    4.40
  -2  -4   0  326.67    7.00
  -2  -4   0  312.87    7.00
   2   4   0  317.97    6.50
  -3  -4   0  143.79    4.00
  -3  -4   0  137.19    3.90
   3   4   0  123.49    4.10
  -4  -4   0   70.09    2.70
  -4  -4   0   64.79    2.70
   4   4   0   65.59    2.60
  -5  -4   0  108.59    3.30
  -5  -4   0  108.79    3.20
  -5  -4   0  104.99    3.20
  -5  -4   0  107.29    3.30
  -5  -4   0  107.89    3.40
  -5  -4   0  110.29    3.70
   5   4   0  107.29    3.60
   5   4   0  100.79    3.30
  -6  -4   0    0.40    0.60
  -6  -4   0    0.00    0.60
  -6  -4   0    0.20    0.70
   6   4   0    0.40    0.70
  -7  -4   0   28.50    1.70
   7   4   0   30.30    1.80
   7   4   0   31.80    1.70
  -8  -4   0    0.50    0.60
   8   4   0   -0.10    0.50
   8   4   0    0.40    0.50
   8  -5   0   16.10    0.90
   8  -5   0   16.80    0.90
   8  -5   0   14.90    1.30
   8  -5   0   15.40    1.00
   8  -5   0   17.50    0.90
  -8   5   0   15.20    1.10
   7  -5   0    0.60    0.60
   7  -5   0    0.00    0.50
   7  -5   0   -0.40    0.50
   7  -5   0    0.70    0.60
   7  -5   0   -0.30    0.50
   7  -5   0   -0.70    0.70
   7  -5   0    0.70    0.50
  -7   5   0    0.60    0.60
   6  -5   0   81.09    2.70
   6  -5   0   82.59    2.50
   6  -5   0   78.19    2.70
   6  -5   0   79.09    3.20
   6  -5   0   78.39    2.60
   6  -5   0   75.49    2.50
   6  -5   0   77.99    2.60
  -6   5   0   78.29    3.10
   5  -5   0   81.89    2.80
   5  -5   0   80.89    2.70
   5  -5   0   81.69    3.20
   5  -5   0   79.69    2.80
   5  -5   0   86.39    2.70
   5  -5   0   82.59    2.60
   5  -5   0   81.19    2.60
  -5   5   0   81.19    3.00
   4  -5   0   92.09    2.80
   4  -5   0   93.39    2.90
   4  -5   0   91.09    3.00
   4  -5   0   92.59    3.40
   4  -5   0   93.29    2.80
   4  -5   0   87.99    3.40
  -4   5   0  104.69    6.90
  -4   5   0   95.89    2.90
  -4   5   0   94.99    3.70
   3  -5   0   62.49    2.20
  -3   5   0   60.19    2.70
  -3   5   0   64.09    4.00
  -2   5   0  654.53   15.40
  -2   5   0  644.54   13.80
   1  -5   0  377.66    9.40
  -1   5   0  394.16    8.70
  -1   5   0  390.96    9.80
   0  -5   0  522.45   11.60
   0  -5   0  523.95   10.80
   0  -5   0  519.15   10.60
  -1  -5   0  381.66    8.20
  -1  -5   0  369.36    8.20
  -2  -5   0   42.50    2.00
  -2  -5   0   47.70    2.10
   2   5   0   44.90    1.60
  -3  -5   0   48.70    2.30
  -3  -5   0   50.09    2.20
   3   5   0   46.70    2.50
  -4  -5   0   13.50    1.40
  -4  -5   0   15.50    1.60
  -4  -5   0   14.50    1.30
  -4  -5   0   11.90    1.30
  -4  -5   0   13.60    1.30
  -4  -5   0   15.20    1.40
  -5  -5   0   98.59    3.00
  -5  -5   0   94.59    3.10
  -5  -5   0   92.19    3.00
  -5  -5   0   89.99    3.10
  -5  -5   0   91.99    2.90
  -5  -5   0   96.89    3.30
  -5  -5   0   93.09    3.50
   5   5   0   92.69    3.40
   5   5   0   97.99    3.20
  -6  -5   0    1.30    0.80
  -6  -5   0    1.40    0.70
  -6  -5   0    0.40    0.70
  -6  -5   0    1.10    0.70
   6   5   0    1.90    0.80
   6   5   0    2.70    0.80
  -7  -5   0    8.00    1.00
  -7  -5   0    8.10    0.90
   7   5   0    8.50    1.00
   7   5   0    6.90    1.00
  -8  -5   0    0.70    0.50
   8   5   0    0.40    0.60
   7  -6   0   10.80    0.90
   7  -6   0   11.10    0.90
   7  -6   0   11.90    1.00
   7  -6   0   13.10    1.30
   7  -6   0   13.40    1.00
   7  -6   0   12.40    0.90
   6  -6   0   50.19    1.80
   6  -6   0   52.19    1.90
   6  -6   0   54.49    2.10
   6  -6   0   52.59    1.90
   6  -6   0   52.99    2.10
   6  -6   0   51.99    2.50
   5  -6   0    1.20    0.70
   5  -6   0    1.10    0.70
   5  -6   0    1.80    0.60
   5  -6   0    0.90    0.60
   5  -6   0    1.70    0.90
   5  -6   0    1.40    0.60
  -5   6   0    1.00    0.70
   4  -6   0   31.60    2.00
   4  -6   0   31.60    1.50
   4  -6   0   32.60    1.50
   4  -6   0   30.90    1.70
   4  -6   0   32.40    1.60
   4  -6   0   33.10    1.80
  -4   6   0   32.30    1.60
   3  -6   0   84.59    2.70
   3  -6   0   80.89    2.50
   3  -6   0   77.09    3.00
   3  -6   0   77.09    2.60
   3  -6   0   81.19    2.50
   2  -6   0    3.90    0.70
  -2   6   0    4.20    2.00
   0  -6   0  175.78    4.60
  -1  -6   0   54.79    2.30
  -1  -6   0   57.69    2.40
  -2  -6   0   35.00    2.00
  -2  -6   0   34.90    1.90
   2   6   0   40.60    1.90
  -3  -6   0   13.70    1.30
  -3  -6   0   12.50    1.50
  -3  -6   0   11.90    1.30
  -3  -6   0   13.60    1.30
  -3  -6   0   13.20    1.30
  -3  -6   0   10.90    1.30
   3   6   0   12.60    1.60
  -4  -6   0    1.70    0.70
  -4  -6   0    2.90    0.80
  -4  -6   0    1.90    0.90
  -4  -6   0    3.70    0.90
  -4  -6   0    2.50    0.80
  -4  -6   0    3.00    1.00
   4   6   0    3.20    0.90
  -5  -6   0   24.80    1.50
  -5  -6   0   21.80    1.60
  -5  -6   0   23.20    1.60
  -5  -6   0   25.40    1.80
  -5  -6   0   24.80    1.90
  -5  -6   0   28.10    1.70
   5   6   0   25.30    1.80
  -6  -6   0   26.70    1.50
  -6  -6   0   27.00    1.50
  -6  -6   0   26.30    1.60
  -6  -6   0   29.30    1.60
  -6  -6   0   28.30    1.70
   6   6   0   28.30    1.70
  -7  -6   0   27.20    1.50
  -7  -6   0   30.40    1.40
   7   6   0   30.20    1.60
   7   6   0   32.60    1.60
   7  -7   0   13.10    0.70
   7  -7   0   13.30    0.90
   7  -7   0   12.10    0.80
   7  -7   0   13.70    1.00
   7  -7   0   13.00    1.10
  -7   7   0   12.20    0.90
   6  -7   0    6.20    0.80
   6  -7   0    7.00    0.70
   6  -7   0    7.40    1.00
   6  -7   0    6.90    0.70
   6  -7   0    9.20    0.90
   6  -7   0    7.00    0.70
   5  -7   0   23.90    1.40
   5  -7   0   21.50    1.30
   5  -7   0   21.70    1.40
   5  -7   0   20.60    1.20
   5  -7   0   24.40    1.30
   5  -7   0   26.90    1.80
  -5   7   0   24.60    1.60
   4  -7   0   70.39    2.90
   4  -7   0   69.09    2.30
   4  -7   0   72.79    2.60
   4  -7   0   72.89    2.50
   4  -7   0   72.99    2.40
  -4   7   0   69.49    2.50
   3  -7   0    3.50    1.00
   3  -7   0    3.80    0.80
   3  -7   0    5.00    0.90
   3  -7   0    3.10    0.70
   0  -7   0   10.60    1.30
  -1  -7   0  333.97    7.30
  -1  -7   0  334.07    7.40
  -1  -7   0  328.97    7.50
  -1  -7   0  327.17    7.90
  -2  -7   0   44.60    2.00
  -2  -7   0   47.20    2.20
  -2  -7   0   42.50    1.90
  -2  -7   0   46.40    2.40
  -2  -7   0   45.80    2.00
  -2  -7   0   44.80    2.00
   2   7   0   35.20    2.30
  -3  -7   0  237.68    5.70
  -3  -7   0  232.28    5.60
  -3  -7   0  236.28    5.90
  -3  -7   0  236.08    5.70
  -3  -7   0  228.78    5.70
  -3  -7   0  235.48    6.40
   3   7   0  227.48    6.10
  -4  -7   0   13.40    1.60
  -4  -7   0   13.00    1.20
  -4  -7   0   15.00    1.40
  -4  -7   0   13.10    1.40
  -4  -7   0   10.40    1.10
  -4  -7   0   13.80    1.30
   4   7   0   12.80    1.40
  -5  -7   0  129.09    3.60
  -5  -7   0  134.79    3.70
  -5  -7   0  138.19    3.70
  -5  -7   0  129.39    3.60
  -5  -7   0  131.39    3.80
   5   7   0  123.89    4.00
  -6  -7   0   -0.60    0.50
  -6  -7   0    0.80    0.60
  -6  -7   0    0.30    0.60
  -6  -7   0   -0.10    0.50
  -6  -7   0    0.10    0.50
   6  -8   0    4.00    0.60
   6  -8   0    3.80    0.50
   6  -8   0    2.90    0.40
   5  -8   0   25.20    1.10
   5  -8   0   25.30    1.30
   5  -8   0   22.30    1.30
   5  -8   0   23.00    1.10
   5  -8   0   24.80    1.50
   4  -8   0   22.40    1.30
   4  -8   0   24.30    1.20
   4  -8   0   25.70    1.30
   3  -8   0    1.50    0.60
  -1  -8   0  116.29    3.90
  -1  -8   0  121.89    3.50
  -1  -8   0  118.89    3.40
  -1  -8   0  114.59    3.30
  -2  -8   0   10.20    1.20
  -2  -8   0    9.60    1.10
  -2  -8   0   10.40    1.10
  -2  -8   0   12.20    1.10
  -2  -8   0    9.30    1.30
  -2  -8   0    9.60    1.10
   2   8   0    9.30    1.20
  -3  -8   0    3.80    0.90
  -3  -8   0    3.20    0.80
  -3  -8   0    5.00    0.80
  -3  -8   0    5.80    0.90
  -3  -8   0    2.90    0.80
   3   8   0    3.80    0.80
  -4  -8   0   -0.30    0.50
  -4  -8   0    0.10    0.50
  -4  -8   0    0.10    0.60
  -4  -8   0   -0.40    0.50
  -4  -8   0   -0.10    0.60
   4   8   0    0.30    0.60
  -5  -8   0    8.00    0.90
  -5  -8   0    9.40    0.90
  -5  -8   0    9.90    0.90
  -5  -8   0    7.70    0.90
  -5  -8   0    8.30    0.80
  -1  -9   0    8.10    0.90
  -2  -9   0   15.20    1.10
  -2  -9   0   14.10    1.10
  -2  -9   0   12.00    1.10
  -3  -9   0    0.50    0.50
  -3  -9   0    1.50    0.60
  -3  -9   0   -1.20    0.40
  -3  -9   0    0.50    0.50
  -4  -9   0   22.10    1.00
  -4  -9   0   23.70    1.10
  -4  -9   0   21.90    1.30
  -4  -9   0   21.90    1.20
  -4  -9   0   20.90    1.20
  -4  -9   1   20.10    1.10
  -4  -9   1   19.90    1.30
  -4  -9   1   20.40    1.10
  -4  -9   1   21.20    1.10
  -3  -9   1    9.90    0.90
  -3  -9   1    9.70    0.90
  -3  -9   1    9.80    0.90
  -3  -9   1   10.50    0.90
  -2  -9   1    1.70    0.60
  -2  -9   1    0.90    0.50
  -2  -9   1    1.10    0.60
  -1  -9   1    9.00    1.20
  -1  -9   1    9.90    0.90
   4  -9   1   18.40    1.10
   5   8  -1    1.70    0.70
  -5  -8   1    4.10    0.70
  -5  -8   1    2.40    0.60
  -5  -8   1    3.60    0.70
  -5  -8   1    3.40    0.60
  -5  -8   1    3.40    0.70
   4   8  -1    0.20    0.60
  -4  -8   1    1.70    0.70
  -4  -8   1    1.90    0.60
  -4  -8   1    1.30    0.50
  -4  -8   1    1.50    0.60
  -4  -8   1    1.40    0.70
   3   8  -1    1.10    0.60
  -3  -8   1    1.00    0.60
  -3  -8   1    0.30    0.60
  -3  -8   1    1.30    0.70
  -3  -8   1    1.20    0.70
   2   8  -1  121.29    3.50
  -2  -8   1  126.69    3.50
  -2  -8   1  123.89    3.60
  -2  -8   1  127.29    3.60
  -2  -8   1  125.19    3.50
  -2  -8   1  119.09    4.00
  -1  -8   1   16.30    1.30
  -1  -8   1   16.30    1.60
  -1  -8   1   14.90    1.20
  -1  -8   1   15.30    1.30
   3  -8   1   37.50    1.60
   3  -8   1   33.60    1.60
   3  -8   1   34.70    1.50
   4  -8   1   86.69    2.40
   4  -8   1   83.19    2.50
   4  -8   1   81.39    2.60
   5  -8   1   55.99    1.90
   5  -8   1   60.99    1.80
   5  -8   1   58.99    1.70
   5  -8   1   59.09    2.00
   6   7  -1    2.60    0.80
  -6  -7   1    2.70    0.60
  -6  -7   1    1.40    0.60
  -6  -7   1    1.90    0.60
  -6  -7   1    1.70    0.70
   5   7  -1   30.40    1.80
  -5  -7   1   32.00    1.60
  -5  -7   1   32.20    1.70
  -5  -7   1   30.00    1.70
  -5  -7   1   33.30    1.60
  -5  -7   1   31.80    1.80
   4   7  -1    9.10    1.20
  -4  -7   1    8.80    1.00
  -4  -7   1    7.20    1.00
  -4  -7   1    8.70    1.20
  -4  -7   1    7.70    1.30
  -4  -7   1    7.80    1.00
  -4  -7   1    7.20    1.10
   3   7  -1    0.00    0.50
  -3  -7   1    0.80    0.70
  -3  -7   1    0.30    0.70
  -3  -7   1    1.30    0.80
  -3  -7   1   -0.50    0.80
  -3  -7   1    0.70    0.70
  -3  -7   1    1.10    0.70
   2   7  -1  129.19    3.70
  -2  -7   1  122.79    3.60
  -2  -7   1  123.19    3.60
  -2  -7   1  122.89    3.50
  -2  -7   1  123.09    4.10
  -2  -7   1  124.49    3.70
  -1  -7   1   57.59    2.20
  -1  -7   1   56.79    2.60
  -1  -7   1   52.79    2.40
  -1  -7   1   55.59    2.20
  -1  -7   1   54.89    2.20
   0  -7   1   33.80    2.00
   2  -7   1    1.30    0.60
   2  -7   1    3.20    0.80
   3  -7   1    7.20    0.90
   3  -7   1    9.20    1.00
   3  -7   1    7.60    1.00
   3  -7   1    7.70    1.00
  -4   7  -1   32.40    1.60
   4  -7   1   29.00    1.60
   4  -7   1   27.80    1.40
   4  -7   1   28.40    1.80
   4  -7   1   29.40    1.60
   4  -7   1   31.60    1.70
   4  -7   1   32.30    1.80
  -5   7  -1   11.00    1.20
   5  -7   1    9.40    1.10
   5  -7   1    9.90    1.00
   5  -7   1    7.90    1.00
   5  -7   1   11.70    1.30
   5  -7   1   10.40    0.90
   5  -7   1    9.90    0.90
   6  -7   1   78.79    2.10
   6  -7   1   77.19    2.20
   6  -7   1   73.09    2.60
   6  -7   1   78.19    2.40
   6  -7   1   79.29    2.40
   6  -7   1   79.69    2.20
   7   6  -1   13.70    1.10
   7   6  -1   14.50    1.20
  -7  -6   1   14.60    1.10
  -7  -6   1   12.80    1.10
   6   6  -1   69.49    2.80
  -6  -6   1   71.09    2.40
  -6  -6   1   67.99    2.40
  -6  -6   1   73.09    2.60
  -6  -6   1   71.29    2.50
  -6  -6   1   72.49    2.50
   5   6  -1  165.18    4.80
  -5  -6   1  163.68    4.50
  -5  -6   1  164.98    4.40
  -5  -6   1  163.18    4.40
  -5  -6   1  159.68    4.30
  -5  -6   1  166.68    4.60
  -5  -6   1  164.08    5.00
   4   6  -1   18.50    1.60
  -4  -6   1   18.90    1.50
  -4  -6   1   19.10    1.60
  -4  -6   1   16.30    1.70
  -4  -6   1   13.60    1.30
  -4  -6   1   16.60    1.40
  -4  -6   1   17.50    1.50
   3   6  -1  105.09    3.40
  -3  -6   1  101.29    3.10
  -3  -6   1  103.19    3.40
  -3  -6   1  100.09    3.60
  -3  -6   1   99.19    3.10
  -3  -6   1  101.99    3.20
  -3  -6   1  102.09    3.20
   2   6  -1    0.00    0.70
  -2  -6   1    0.60    0.70
  -2  -6   1   -0.70    0.60
  -1  -6   1  250.27    7.90
  -1  -6   1  266.87    6.40
   0  -6   1  159.08    4.20
   0  -6   1  150.98    4.50
  -1   6  -1    1.90    0.80
  -2   6  -1   50.09    2.70
   2  -6   1   48.70    2.00
   3  -6   1   50.69    2.10
   3  -6   1   48.40    1.90
   3  -6   1   48.10    2.10
   3  -6   1   47.30    1.90
   3  -6   1   47.50    2.40
  -4   6  -1  104.69    3.20
   4  -6   1  104.49    3.00
   4  -6   1  101.69    3.10
   4  -6   1  103.19    3.00
   4  -6   1  102.49    3.30
   4  -6   1  105.19    3.30
   4  -6   1  104.39    3.60
  -5   6  -1  394.86    8.80
   5  -6   1  371.46    8.50
   5  -6   1  392.26    8.30
   5  -6   1  385.96    8.20
   5  -6   1  381.26    8.50
   5  -6   1  387.16    9.10
   5  -6   1  393.96    8.20
  -6   6  -1    0.80    0.60
   6  -6   1   -0.10    0.50
   6  -6   1    0.80    0.50
   6  -6   1    0.10    0.60
   6  -6   1    0.90    0.50
   6  -6   1   -0.30    0.50
   6  -6   1    0.10    0.70
   7  -6   1    6.60    0.70
   7  -6   1    6.80    1.00
   7  -6   1    6.50    0.80
   7  -6   1    6.70    0.70
   7  -6   1    4.90    0.70
   7  -6   1    5.10    0.70
   8   5  -1   14.50    1.00
  -8  -5   1   13.80    1.00
   7   5  -1    1.00    0.80
   7   5  -1    0.10    0.60
  -7  -5   1    0.60    0.60
  -7  -5   1   -0.80    0.60
   6   5  -1    1.70    0.70
  -6  -5   1    1.40    0.80
  -6  -5   1    0.90    0.60
  -6  -5   1    3.70    0.90
  -6  -5   1    2.30    0.80
   5   5  -1    1.60    0.80
  -5  -5   1    2.30    1.00
  -5  -5   1    2.00    0.80
  -5  -5   1    2.00    0.70
  -5  -5   1    2.40    0.80
  -5  -5   1    0.30    0.70
  -5  -5   1    1.20    0.80
   4   5  -1   37.80    2.00
  -4  -5   1   36.40    1.90
  -4  -5   1   37.10    1.90
  -4  -5   1   36.60    1.80
  -4  -5   1   36.40    1.80
  -4  -5   1   36.70    2.20
  -4  -5   1   37.20    2.00
   3   5  -1  429.86    9.30
  -3  -5   1  418.46    9.20
  -3  -5   1  414.66    9.40
  -3  -5   1  421.56    9.70
  -2  -5   1  773.02   15.90
  -2  -5   1  781.22   15.70
  -1  -5   1    3.00    0.80
  -1  -5   1    3.60    0.80
   0  -5   1   29.20    1.50
   0  -5   1   29.00    1.60
  -1   5  -1   21.10    1.50
   1  -5   1   18.70    1.40
  -2   5  -1  182.08    5.30
  -2   5  -1  187.98    6.50
   2  -5   1  187.78    4.50
  -3   5  -1    7.30    2.00
  -3   5  -1    8.90    1.30
   3  -5   1    8.30    0.90
  -4   5  -1  240.48    5.60
   4  -5   1  233.18    5.40
   4  -5   1  233.08    6.10
   4  -5   1  235.48    5.70
   4  -5   1  241.28    5.70
   4  -5   1  238.78    5.50
   4  -5   1  234.48    5.50
  -5   5  -1  106.49    3.50
   5  -5   1  104.19    3.10
   5  -5   1  104.39    3.10
   5  -5   1  108.89    3.40
   5  -5   1  110.79    3.80
   5  -5   1  102.89    3.30
   5  -5   1  111.39    3.10
  -6   5  -1    2.90    0.90
   6  -5   1    2.30    0.70
   6  -5   1    1.80    0.70
   6  -5   1    2.90    0.80
   6  -5   1    2.70    0.80
   6  -5   1    2.60    1.00
   6  -5   1    1.70    0.70
  -7   5  -1   81.59    3.00
   7  -5   1   83.69    3.10
   7  -5   1   82.99    2.40
   7  -5   1   80.89    2.50
   7  -5   1   81.79    2.40
   7  -5   1   85.09    2.60
   7  -5   1   79.89    2.50
  -8   5  -1    5.60    0.80
   8  -5   1    5.00    0.60
   8  -5   1    6.20    0.70
   8  -5   1    5.50    1.00
   8  -5   1    6.20    0.60
   8   4  -1    1.20    0.60
   8   4  -1    0.00    0.50
   7   4  -1   24.40    1.70
   7   4  -1   24.50    1.80
   7   4  -1   23.30    1.50
  -7  -4   1   27.60    1.60
  -7  -4   1   27.20    1.60
   6   4  -1   32.80    1.80
  -6  -4   1   30.20    1.80
  -6  -4   1   31.80    1.80
  -6  -4   1   32.70    1.90
   5   4  -1    1.90    0.70
  -5  -4   1    2.80    0.90
  -5  -4   1    2.40    0.80
  -5  -4   1    1.40    0.80
  -5  -4   1    2.40    0.80
  -5  -4   1    1.90    0.80
  -5  -4   1    1.20    0.70
   4   4  -1  416.06    9.30
  -4  -4   1  422.36    9.80
  -4  -4   1  429.76    9.50
  -4  -4   1  426.36    9.60
   3   4  -1 1442.76   28.00
  -3  -4   1 1480.65   28.40
  -3  -4   1 1479.55   28.10
   2   4  -1  783.12   17.00
  -2  -4   1  912.71   17.40
  -2  -4   1  951.00   17.30
  -1  -4   1  731.13   14.40
  -1  -4   1  744.93   14.60
   0   4  -1   68.59    2.60
   0  -4   1   67.79    2.30
   0  -4   1   68.69    2.40
   0  -4   1   68.69    2.10
  -1   4  -1   65.99    2.80
   1  -4   1   66.39    2.30
   1  -4   1   66.09    1.90
  -2   4  -1   16.80    1.90
  -2   4  -1   15.60    1.40
  -3   4  -1   27.10    1.70
  -3   4  -1   25.90    1.20
  -3   4  -1   30.10    3.00
   3  -4   1   27.00    1.50
  -4   4  -1   36.70    1.60
  -4   4  -1   28.80    3.80
  -4   4  -1   36.40    2.20
   4  -4   1   34.90    1.60
  -5   4  -1  319.87    7.50
   5  -4   1  317.77    7.20
   5  -4   1  314.37    6.90
   5  -4   1  313.47    7.00
   5  -4   1  319.47    7.80
   5  -4   1  314.27    6.90
   5  -4   1  315.47    7.20
  -6   4  -1  531.45   11.80
   6  -4   1  532.35   12.00
   6  -4   1  539.25   11.20
   6  -4   1  518.95   11.00
   6  -4   1  542.95   11.00
   6  -4   1  555.44   11.30
   6  -4   1  542.35   11.10
   6  -4   1  529.55   10.90
  -7   4  -1    1.70    0.70
   7  -4   1    1.30    0.50
   7  -4   1    1.20    0.70
   7  -4   1    1.50    0.90
   7  -4   1    1.20    0.60
   7  -4   1    0.70    0.60
   7  -4   1    1.30    0.60
   7  -4   1    1.20    0.60
  -8   4  -1    1.60    0.70
  -8   4  -1    0.60    0.60
   8  -4   1    0.60    0.70
   8  -4   1    0.30    0.40
   8  -4   1    0.60    0.40
   8  -4   1    0.10    0.50
   8  -4   1    0.40    0.40
   8  -4   1    0.00    0.50
   9   3  -1    5.40    0.60
   8   3  -1    0.90    0.60
   8   3  -1    1.50    0.60
   7   3  -1    3.00    0.90
   7   3  -1    3.80    1.30
   7   3  -1    3.50    0.90
  -7  -3   1    4.20    0.90
  -7  -3   1    4.30    1.00
   6   3  -1   -0.20    0.70
  -6  -3   1   -0.70    0.50
  -6  -3   1    0.20    0.70
  -6  -3   1   -0.90    0.60
  -6  -3   1    0.40    0.70
   5   3  -1   45.70    2.10
  -5  -3   1   42.90    2.00
  -5  -3   1   41.30    2.30
   4   3  -1  118.29    3.40
  -4  -3   1  112.09    3.40
  -4  -3   1  112.69    3.70
   3   3  -1  332.37    7.10
  -3  -3   1  323.97    7.30
  -3  -3   1  319.27    7.00
  -2  -3   1 1993.90   36.80
  -2  -3   1 1944.71   36.60
  -1  -3   1  200.48    4.40
  -1  -3   1  200.78    4.30
  -1  -3   1  194.88    4.50
   0  -3   1   15.30    0.90
   0  -3   1   14.30    0.90
   0  -3   1   14.80    1.00
  -1   3  -1   83.39    2.90
   1  -3   1   79.19    2.30
  -2   3  -1  356.16    8.80
  -2   3  -1  343.17    7.70
  -3   3  -1   21.80    1.10
  -3   3  -1   25.10    2.60
  -3   3  -1   22.60    1.50
  -4   3  -1   19.70    1.20
  -4   3  -1   11.90    2.60
  -4   3  -1   18.30    1.50
   4  -3   1   19.00    1.10
  -5   3  -1    4.70    0.80
  -5   3  -1    2.80    1.80
  -5   3  -1    3.00    1.00
   5  -3   1    5.80    1.20
   5  -3   1    6.70    0.90
  -6   3  -1  232.58    6.10
   6  -3   1  233.78    5.60
   6  -3   1  240.58    5.60
   6  -3   1  228.68    5.60
   6  -3   1  237.58    6.40
   6  -3   1  239.98    5.70
   6  -3   1  229.28    5.40
   6  -3   1  238.08    5.50
   7  -3   1   73.09    2.60
   7  -3   1   72.89    3.10
   7  -3   1   74.59    2.60
   7  -3   1   77.09    2.40
   7  -3   1   72.59    2.30
   7  -3   1   74.89    2.50
  -8   3  -1    0.90    0.60
   8  -3   1    1.10    0.60
   8  -3   1   -0.20    0.50
   8  -3   1   -0.30    0.40
   8  -3   1    0.60    0.70
   9   2  -1    0.00    0.40
   9   2  -1    0.20    0.50
   8   2  -1   10.10    1.00
   8   2  -1   12.40    1.10
  -8  -2   1   12.00    1.10
   7   2  -1   11.20    1.20
   7   2  -1   12.30    1.30
  -7  -2   1   12.30    1.20
   6   2  -1    7.90    1.10
   6   2  -1   10.70    1.20
  -6  -2   1    7.50    1.20
  -6  -2   1    6.70    0.90
  -6  -2   1    5.60    1.00
  -5  -2   1    3.40    0.90
   4   2  -1   72.29    2.40
  -4  -2   1   74.39    2.70
  -4  -2   1   72.39    2.40
  -3  -2   1    0.50    0.50
  -3  -2   1    0.90    0.50
  -3  -2   1    1.00    0.60
  -2  -2   1 6886.61  128.69
  -2  -2   1 7014.70  129.69
  -2  -2   1 7080.29  130.29
  -1  -2   1 9992.80  183.08
  -1  -2   1 9999.00  184.58
   0   2  -1  768.52   14.50
   0  -2   1  752.82   14.30
   0  -2   1  757.42   14.40
  -1   2  -1  202.38    4.90
   1  -2   1  196.28    4.30
  -2   2  -1  817.32   16.10
  -2   2  -1  837.32   17.40
  -3   2  -1  187.38    4.60
  -3   2  -1  173.08    6.60
  -4   2  -1  143.89    3.70
  -4   2  -1  142.99    4.20
  -5   2  -1   10.80    1.50
  -5   2  -1    6.20    2.00
  -5   2  -1    6.10    0.90
   5  -2   1    6.40    0.80
  -6   2  -1  473.95   10.50
   6  -2   1  466.95    9.90
   6  -2   1  482.25    9.80
   6  -2   1  475.55    9.90
   6  -2   1  459.75   10.70
   6  -2   1  462.45    9.90
   7  -2   1  353.86    7.50
   7  -2   1  349.57    7.70
   7  -2   1  354.96    8.60
   7  -2   1  338.67    7.70
  -8   2  -1   19.40    1.40
   8  -2   1   19.40    1.30
   8  -2   1   20.40    1.70
   8  -2   1   19.70    1.30
  -9   2  -1    3.00    0.60
   9  -2   1    2.60    0.60
   9  -2   1    2.40    0.50
   9  -2   1    2.90    0.70
   9   1  -1  121.79    3.00
   9   1  -1  120.79    3.10
  -9  -1   1  120.39    3.00
   8   1  -1   90.29    2.90
   8   1  -1   89.59    2.80
  -8  -1   1   88.19    2.80
   7   1  -1   10.40    1.10
   7   1  -1   10.20    1.20
  -7  -1   1   13.20    1.20
   6   1  -1   76.69    2.70
   6   1  -1   80.39    2.80
  -6  -1   1   76.99    2.60
  -5  -1   1   67.59    2.90
  -4  -1   1   60.19    2.30
  -4  -1   1   57.19    2.90
  -3  -1   1   34.70    2.00
  -3  -1   1   33.10    1.50
  -2  -1   1 1658.93   30.30
  -2  -1   1 1607.54   30.50
  -1  -1   1 5323.67   97.59
  -1  -1   1 5326.67   98.29
   0   1  -1 1197.28   22.20
   0  -1   1 1174.28   21.80
  -1   1  -1 1693.63   31.10
  -1   1  -1 1686.13   31.90
  -2   1  -1 2692.33   46.40
  -2   1  -1 2345.57   48.00
  -3   1  -1  158.48    5.90
  -4   1  -1  336.77    7.20
  -4   1  -1  335.87    7.80
  -4   1  -1  329.77    9.90
  -5   1  -1  122.09    5.80
  -5   1  -1  118.49    3.50
  -5   1  -1  118.49    4.20
   6  -1   1   79.69    2.70
   6  -1   1   87.89    3.40
   6  -1   1   81.49    2.60
   6  -1   1   88.39    2.90
   7  -1   1    1.70    0.70
   7  -1   1    0.90    0.70
   7  -1   1    2.40    0.70
   7  -1   1    2.00    1.00
  -8   1  -1  105.49    3.10
   8  -1   1  110.99    3.60
   8  -1   1  113.59    3.20
   8  -1   1  109.79    3.00
  -9   1  -1   11.50    0.80
   9  -1   1   11.20    0.80
   9  -1   1    9.80    0.80
   9   0  -1    6.20    0.80
  -9   0   1    6.10    0.70
   8   0  -1    6.60    1.00
   8   0  -1    7.40    1.00
  -8   0   1    5.90    0.90
   7   0  -1   15.30    1.30
   7   0  -1   16.50    1.40
  -7   0   1   17.40    1.50
   6   0  -1   31.00    1.70
  -6   0   1   34.20    1.80
  -5   0   1    3.70    1.30
  -5   0   1    2.40    0.80
  -4   0   1  179.18    6.40
  -3   0   1  177.38    4.10
  -3   0   1  159.18    5.40
  -2   0   1  544.25   10.70
  -2   0   1  562.24   11.30
   1   0  -1 1163.98   22.40
  -1   0   1 1204.58   21.80
   0   0  -1  554.94   10.50
   0   0   1  551.04   10.20
  -1   0  -1  432.56    8.40
  -1   0  -1  443.96    9.00
  -2   0  -1 7970.60  159.38
  -2   0  -1 8605.84  153.38
  -3   0  -1    1.50    1.00
  -3   0  -1    0.80    0.60
  -4   0  -1  791.92   18.10
  -4   0  -1  801.72   16.20
  -5   0  -1   14.50    2.30
  -5   0  -1   12.90    1.50
   6   0   1    1.00    0.80
   6   0   1    1.00    0.70
   6   0   1    0.80    0.70
   6   0   1    1.00    0.50
  -7   0  -1  110.09    3.30
   7   0   1  112.89    3.90
   7   0   1  114.89    3.30
   7   0   1  112.59    3.50
  -8   0  -1   58.19    2.10
   8   0   1   58.39    2.00
   8   0   1   59.39    2.30
   9   0   1    8.60    0.80
   9  -1  -1   19.70    1.20
  -9   1   1   16.80    1.10
   8  -1  -1  383.76    8.30
  -8   1   1  375.96    8.30
   7  -1  -1   -0.50    0.60
   7  -1  -1    0.70    0.70
   7  -1  -1   -0.80    0.50
   7  -1  -1    0.30    0.80
  -7   1   1    0.80    0.70
   6  -1  -1   21.80    1.70
   6  -1  -1   18.60    1.30
   6  -1  -1   21.00    1.50
   6  -1  -1   17.90    1.20
  -6   1   1   22.70    3.10
   5  -1  -1   42.00    1.70
  -5   1   1   45.90    2.40
  -5   1   1   47.30    2.00
  -4   1   1  371.36    7.90
  -4   1   1  383.86    8.50
  -4   1   1  376.06   10.70
  -3   1   1  214.58    5.90
  -3   1   1  203.18    4.80
  -2   1   1 3714.03   69.39
  -2   1   1 3895.01   74.29
   1  -1  -1 2191.48   41.90
  -1   1   1 2120.29   40.00
   0  -1  -1 3002.20   57.79
  -1  -1  -1  421.16    8.70
  -1  -1  -1  426.76    8.00
  -2  -1  -1    3.90    0.50
  -2  -1  -1    3.90    0.80
  -3  -1  -1   44.90    1.60
  -3  -1  -1   48.20    2.50
  -3  -1  -1   44.30    1.80
  -4  -1  -1  295.17    6.90
  -4  -1  -1  289.97    8.20
  -5  -1  -1    0.30    0.60
  -5  -1  -1    1.10    1.00
  -6  -1  -1   20.20    1.60
   6   1   1   20.40    1.40
   6   1   1   15.30    1.40
   6   1   1   18.90    1.60
  -7  -1  -1   48.70    2.20
   7   1   1   49.99    2.10
   7   1   1   55.29    2.30
   8   1   1   64.69    2.40
   9   1   1    8.20    0.80
   9  -2  -1   -0.40    0.50
  -9   2   1   -0.80    0.50
   8  -2  -1   13.70    1.20
   8  -2  -1   14.60    1.10
   8  -2  -1   16.30    1.50
  -8   2   1   15.90    1.30
   7  -2  -1   15.90    1.20
   7  -2  -1   15.20    1.30
   7  -2  -1   16.70    1.30
   7  -2  -1   17.50    1.30
   7  -2  -1   17.20    1.30
   7  -2  -1   18.30    1.70
  -7   2   1   14.10    1.30
   6  -2  -1    6.60    1.20
   6  -2  -1    8.80    1.00
   6  -2  -1    6.80    0.90
   6  -2  -1    6.70    0.90
   6  -2  -1    6.40    0.90
   6  -2  -1    7.00    0.90
  -6   2   1    9.20    1.20
   5  -2  -1    6.80    0.80
  -5   2   1    3.60    1.90
  -5   2   1    4.70    1.00
  -5   2   1    7.00    0.90
  -4   2   1  169.78    4.20
  -4   2   1  163.58    6.20
  -4   2   1  172.78    4.70
  -3   2   1 1155.98   22.10
  -3   2   1 1158.18   23.60
   2  -2  -1  977.60   19.70
  -2   2   1 1016.60   20.00
  -2   2   1 1019.20   19.00
   1  -2  -1  309.07    6.70
  -1   2   1  300.37    6.10
   0  -2  -1 1243.48   23.00
   0  -2  -1 1179.98   22.20
  -1  -2  -1   39.10    1.70
  -1  -2  -1   38.30    1.20
  -2  -2  -1    0.70    0.60
  -2  -2  -1    0.40    0.40
  -2  -2  -1   -0.10    0.40
  -3  -2  -1    5.70    0.80
  -3  -2  -1    5.00    1.00
  -3  -2  -1    5.80    0.80
   3   2   1    5.60    1.00
  -4  -2  -1   13.00    1.10
  -4  -2  -1   11.30    1.20
  -4  -2  -1   12.90    1.60
   4   2   1   14.00    1.20
  -5  -2  -1  256.47    8.00
  -5  -2  -1  263.17    6.80
  -6  -2  -1  133.89    3.70
  -6  -2  -1  136.89    4.00
   6   2   1  135.29    3.90
  -7  -2  -1    1.10    0.70
   7   2   1   -0.30    0.70
   7   2   1    0.10    0.70
  -8  -2  -1    5.90    0.90
   8   2   1    5.90    0.90
   8   2   1    6.30    0.80
   9   2   1    0.40    0.50
   9  -3  -1    3.30    0.60
   9  -3  -1    3.70    0.50
  -9   3   1    4.80    0.70
   8  -3  -1    2.80    0.80
   8  -3  -1    2.80    0.90
   8  -3  -1    2.30    0.60
   8  -3  -1    2.70    0.60
  -8   3   1    1.30    0.70
  -8   3   1    2.00    0.70
   7  -3  -1    3.50    0.70
   7  -3  -1    2.90    0.70
   7  -3  -1    2.40    0.70
   7  -3  -1    4.90    0.90
   7  -3  -1    5.10    0.90
   7  -3  -1    2.60    1.00
  -7   3   1    3.00    0.80
   6  -3  -1    0.40    0.60
   6  -3  -1    0.50    0.60
   6  -3  -1    0.70    0.60
   6  -3  -1    1.50    0.60
   6  -3  -1    0.70    0.60
   6  -3  -1    0.60    0.80
   6  -3  -1   -0.30    0.60
  -6   3   1    1.00    0.70
   5  -3  -1   36.20    1.70
  -5   3   1   31.20    3.90
  -5   3   1   36.80    2.30
  -5   3   1   37.20    1.90
   4  -3  -1   33.60    1.60
  -4   3   1   31.20    1.50
  -4   3   1   32.60    2.90
  -4   3   1   33.20    1.90
  -3   3   1 1162.58   22.20
  -3   3   1 1196.58   22.80
   2  -3  -1 1155.18   22.60
  -2   3   1 1110.79   21.50
   1  -3  -1  406.16    9.00
  -1   3   1  406.36    8.20
   0  -3  -1 1176.38   22.50
   0  -3  -1 1131.59   21.50
   0  -3  -1 1161.28   21.60
  -1  -3  -1   12.00    0.70
  -1  -3  -1   13.30    1.20
  -1  -3  -1   11.60    0.90
  -2  -3  -1    4.80    0.70
  -2  -3  -1    7.20    0.70
  -2  -3  -1    4.90    0.90
  -3  -3  -1    1.70    0.70
  -3  -3  -1    0.90    0.60
  -3  -3  -1    0.60    0.50
   3   3   1    1.40    0.80
  -4  -3  -1   18.80    1.80
  -4  -3  -1   17.00    1.40
  -4  -3  -1   20.90    1.50
   4   3   1   20.00    1.50
  -5  -3  -1    4.40    0.90
  -5  -3  -1    2.30    0.80
   5   3   1    4.70    0.90
  -6  -3  -1    5.10    1.00
  -6  -3  -1    3.80    0.90
   6   3   1    4.70    1.00
  -7  -3  -1    1.00    0.70
   7   3   1    0.20    0.70
   7   3   1    0.30    0.80
  -8  -3  -1   24.70    1.40
   8   3   1   26.40    1.30
   8   3   1   23.60    1.40
   8  -4  -1    0.80    0.70
   8  -4  -1    0.60    0.50
   8  -4  -1    0.90    0.50
   8  -4  -1    0.80    0.60
   8  -4  -1    0.40    0.40
  -8   4   1    0.10    0.50
  -8   4   1    0.40    0.60
   7  -4  -1   13.90    1.20
   7  -4  -1   15.90    1.10
   7  -4  -1   17.20    1.30
   7  -4  -1   17.80    1.70
   7  -4  -1   15.90    1.30
   7  -4  -1   17.20    1.30
   7  -4  -1   16.80    1.20
  -7   4   1   16.80    1.50
   6  -4  -1   29.30    1.60
   6  -4  -1   30.10    1.70
   6  -4  -1   28.00    1.60
   6  -4  -1   26.40    1.40
   6  -4  -1   25.80    1.50
   6  -4  -1   26.50    1.50
   6  -4  -1   29.30    2.00
  -6   4   1   29.60    1.90
   5  -4  -1   14.70    1.30
   5  -4  -1   11.70    1.40
   5  -4  -1   12.70    1.10
   5  -4  -1   13.50    1.30
   5  -4  -1   13.60    1.10
   5  -4  -1   13.00    1.10
   5  -4  -1   12.90    1.30
  -5   4   1   12.60    1.30
  -5   4   1   10.60    1.70
   4  -4  -1   28.70    1.40
  -4   4   1   29.40    1.40
  -4   4   1   29.30    1.90
  -4   4   1   28.10    2.90
  -3   4   1   69.79    3.70
  -3   4   1   67.59    2.60
   2  -4  -1  252.77    6.80
  -2   4   1  242.48    7.10
  -2   4   1  243.68    5.70
   1  -4  -1   98.39    2.60
   1  -4  -1  101.99    3.60
  -1   4   1  100.39    2.80
   0  -4  -1    0.70    0.50
   0  -4  -1    0.20    0.60
   0  -4  -1    0.20    0.40
  -1  -4  -1   95.29    2.80
  -1  -4  -1   98.89    2.60
  -1  -4  -1   97.49    3.40
  -2  -4  -1   38.60    1.70
  -2  -4  -1   40.50    1.60
  -2  -4  -1   41.50    2.20
   2   4   1   41.80    1.40
   3   4   1   42.90    2.30
  -4  -4  -1   -0.40    0.70
  -4  -4  -1    0.20    0.60
   4   4   1    0.50    0.70
  -5  -4  -1   74.49    2.60
  -5  -4  -1   77.59    2.70
  -5  -4  -1   75.19    3.00
  -5  -4  -1   77.69    2.70
  -5  -4  -1   75.39    2.70
  -5  -4  -1   79.49    2.70
   5   4   1   74.99    3.00
  -6  -4  -1   49.99    2.10
  -6  -4  -1   52.39    2.30
  -6  -4  -1   46.80    2.10
   6   4   1   48.20    2.30
  -7  -4  -1  282.77    6.40
  -7  -4  -1  281.87    6.60
   7   4   1  283.67    6.50
   7   4   1  284.57    6.50
  -8  -4  -1    1.10    0.60
   8   4   1    1.40    0.60
   8   4   1    1.60    0.60
   8  -5  -1    1.20    0.70
   8  -5  -1    2.90    0.50
   8  -5  -1    2.40    0.60
   8  -5  -1    3.30    0.60
   8  -5  -1    3.10    0.60
  -8   5   1    3.00    0.70
  -8   5   1    3.40    0.70
   7  -5  -1    4.50    0.80
   7  -5  -1    4.80    0.80
   7  -5  -1    5.60    0.70
   7  -5  -1    6.70    0.80
   7  -5  -1    3.80    0.70
   7  -5  -1    6.30    0.90
   7  -5  -1    4.20    1.00
  -7   5   1    5.50    1.00
   6  -5  -1    5.30    0.90
   6  -5  -1    3.80    0.90
   6  -5  -1    4.20    0.80
   6  -5  -1    4.50    1.10
   6  -5  -1    4.10    0.70
   6  -5  -1    4.10    0.80
   6  -5  -1    4.10    0.80
  -6   5   1    4.60    1.00
   5  -5  -1   44.30    1.90
   5  -5  -1   46.10    1.80
   5  -5  -1   48.10    1.90
   5  -5  -1   44.10    1.90
   5  -5  -1   44.10    2.00
   5  -5  -1   42.40    2.00
   5  -5  -1   47.00    2.40
  -5   5   1   46.10    2.20
   4  -5  -1    1.40    0.80
   4  -5  -1    0.30    0.50
   4  -5  -1    0.60    0.70
   4  -5  -1    1.40    0.60
   4  -5  -1    0.40    0.50
  -4   5   1    1.00    0.50
   3  -5  -1  223.48    5.20
  -3   5   1  219.38    7.70
  -2   5   1    3.80    1.20
   1  -5  -1 1359.96   27.40
   0  -5  -1  448.96    9.40
   0  -5  -1  447.36   10.60
  -1  -5  -1   48.70    2.00
  -1  -5  -1   44.50    2.40
  -2  -5  -1  551.94   11.70
   2   5   1  548.45   11.00
  -3  -5  -1   10.00    1.40
  -3  -5  -1    9.70    1.10
   3   5   1    6.70    1.30
  -4  -5  -1  127.39    3.80
  -4  -5  -1  136.69    4.00
  -4  -5  -1  135.29    3.90
  -4  -5  -1  139.49    3.90
  -4  -5  -1  140.39    4.40
  -4  -5  -1  132.99    3.70
  -4  -5  -1  139.39    3.80
   4   5   1  140.69    4.50
  -5  -5  -1   30.60    1.80
  -5  -5  -1   25.20    2.00
  -5  -5  -1   23.90    1.60
  -5  -5  -1   25.00    1.60
  -5  -5  -1   27.60    1.70
  -5  -5  -1   26.90    1.60
  -5  -5  -1   27.20    1.70
   5   5   1   27.20    1.90
  -6  -5  -1   13.30    1.20
  -6  -5  -1   16.00    1.30
  -6  -5  -1   15.80    1.30
  -6  -5  -1   18.10    1.50
   6   5   1   19.90    1.50
  -7  -5  -1    5.30    0.80
  -7  -5  -1    6.50    0.90
   7   5   1    8.40    1.00
   7   5   1    5.60    0.90
   7  -6  -1    6.10    0.60
   7  -6  -1    5.80    0.70
   7  -6  -1    6.30    0.70
   7  -6  -1    4.10    0.70
   7  -6  -1    6.10    1.00
   7  -6  -1    5.70    0.80
   7  -6  -1    7.00    0.80
   6  -6  -1    2.30    0.70
   6  -6  -1    1.00    0.60
   6  -6  -1    1.90    0.60
   6  -6  -1    1.60    0.50
   6  -6  -1    1.90    0.60
   6  -6  -1    2.30    0.70
   6  -6  -1    2.20    0.90
  -6   6   1    2.10    0.80
   5  -6  -1   16.70    1.20
   5  -6  -1   13.10    1.10
   5  -6  -1   15.20    1.10
   5  -6  -1   17.30    1.30
   5  -6  -1   17.60    1.40
   5  -6  -1   17.60    1.20
   5  -6  -1   13.60    1.50
  -5   6   1   16.10    1.40
   4  -6  -1    6.20    0.90
   4  -6  -1    8.10    1.00
   4  -6  -1    9.20    1.00
   4  -6  -1    8.80    1.00
   4  -6  -1    7.30    1.20
   4  -6  -1    7.20    0.90
  -4   6   1    7.90    1.00
   3  -6  -1   31.80    1.60
   3  -6  -1   34.50    1.60
   3  -6  -1   34.20    1.50
   3  -6  -1   31.80    1.60
   3  -6  -1   32.90    2.10
   3  -6  -1   32.90    1.60
   2  -6  -1  109.79    3.60
  -2   6   1  107.19    5.00
   1  -6  -1  199.48    6.40
  -1   6   1  190.38    6.60
   0  -6  -1    7.30    1.00
  -1  -6  -1    4.00    0.90
  -1  -6  -1    4.40    0.90
  -2  -6  -1   36.50    1.80
  -2  -6  -1   38.50    1.80
  -2  -6  -1   47.80    1.90
  -2  -6  -1   39.30    2.20
  -2  -6  -1   36.40    1.90
   2   6   1   39.60    1.80
  -3  -6  -1  357.16    7.80
  -3  -6  -1  368.86    8.20
  -3  -6  -1  365.06    8.00
  -3  -6  -1  367.26    8.70
  -3  -6  -1  366.76    8.00
  -3  -6  -1  372.66    8.00
  -3  -6  -1  351.66    7.90
   3   6   1  325.77    9.10
  -4  -6  -1   42.00    2.20
  -4  -6  -1   42.40    2.00
  -4  -6  -1   39.40    2.00
  -4  -6  -1   40.80    2.00
  -4  -6  -1   43.60    1.90
  -4  -6  -1   40.40    2.40
  -4  -6  -1   39.20    2.10
   4   6   1   41.10    2.40
  -5  -6  -1   38.80    1.90
  -5  -6  -1   41.10    1.90
  -5  -6  -1   40.00    1.90
  -5  -6  -1   41.30    2.00
  -5  -6  -1   38.00    2.30
  -5  -6  -1   42.80    1.80
  -5  -6  -1   38.10    2.10
   5   6   1   43.90    2.20
   5   6   1   39.20    2.20
  -6  -6  -1    2.90    0.80
  -6  -6  -1    3.10    0.70
  -6  -6  -1    2.40    0.70
  -6  -6  -1    3.10    0.70
  -6  -6  -1    2.70    0.80
   6   6   1    3.60    0.80
  -7  -6  -1    0.20    0.60
   7   6   1    0.80    0.60
   7   6   1    1.00    0.60
   7  -7  -1   19.00    1.00
   7  -7  -1   17.10    1.00
   7  -7  -1   15.50    1.30
   7  -7  -1   17.40    1.10
   6  -7  -1   13.90    1.10
   6  -7  -1   13.10    1.30
   6  -7  -1   13.50    1.00
   6  -7  -1   12.40    0.90
   6  -7  -1   13.70    1.00
   5  -7  -1    0.90    0.60
   5  -7  -1    0.90    0.60
   5  -7  -1    1.50    0.80
   5  -7  -1    1.40    0.60
   5  -7  -1    1.60    0.60
  -5   7   1    1.20    0.60
   4  -7  -1    7.90    1.00
   4  -7  -1    7.40    0.80
   4  -7  -1    5.40    0.80
   4  -7  -1    5.10    0.90
   4  -7  -1    6.80    1.20
  -4   7   1    5.50    0.90
   3  -7  -1   37.60    1.70
   3  -7  -1   38.50    2.20
   3  -7  -1   42.40    1.80
   2  -7  -1  156.18    4.60
   0  -7  -1  327.77    7.40
   0  -7  -1  333.67    7.80
   0  -7  -1  336.07    7.50
  -1  -7  -1    3.20    0.80
  -1  -7  -1    2.70    0.90
  -1  -7  -1    2.20    0.80
  -1  -7  -1    6.80    1.10
  -1  -7  -1    1.30    0.70
  -2  -7  -1  122.69    3.50
  -2  -7  -1  122.69    3.80
  -2  -7  -1  119.29    3.60
  -2  -7  -1  124.69    4.10
  -2  -7  -1  118.89    3.50
  -2  -7  -1  120.39    3.50
   2   7   1  118.99    4.10
  -3  -7  -1   36.40    2.20
  -3  -7  -1   38.20    1.90
  -3  -7  -1   32.80    1.80
  -3  -7  -1   33.70    1.90
  -3  -7  -1   31.90    1.70
  -3  -7  -1   35.70    2.00
   3   7   1   36.00    2.40
  -4  -7  -1   50.39    2.10
  -4  -7  -1   49.20    2.10
  -4  -7  -1   52.39    3.60
  -4  -7  -1   51.99    2.20
  -4  -7  -1   52.79    2.20
  -4  -7  -1   53.49    2.40
   4   7   1   49.90    2.50
  -5  -7  -1   10.60    1.10
  -5  -7  -1   15.00    1.30
  -5  -7  -1   11.10    1.10
  -5  -7  -1   13.60    1.30
  -5  -7  -1   14.50    1.20
   5   7   1   15.40    1.40
  -6  -7  -1    4.50    0.70
  -6  -7  -1    5.90    0.70
  -6  -7  -1    6.00    0.80
  -6  -7  -1    4.80    0.80
  -6  -7  -1    5.30    0.70
   6  -8  -1    6.30    0.70
   6  -8  -1    5.30    0.80
   6  -8  -1    5.80    0.50
   6  -8  -1    5.40    0.60
   5  -8  -1   33.80    1.70
   5  -8  -1   31.30    1.40
   5  -8  -1   31.30    1.30
   5  -8  -1   32.30    1.30
   5  -8  -1   33.00    1.40
   4  -8  -1  104.69    3.00
   4  -8  -1  107.79    3.40
   4  -8  -1  105.79    2.80
   3  -8  -1  243.88    5.50
   3  -8  -1  230.28    5.90
   0  -8  -1   14.10    1.30
  -1  -8  -1    1.40    0.70
  -1  -8  -1    1.20    0.60
  -1  -8  -1    0.70    0.70
  -1  -8  -1    0.70    0.80
  -1  -8  -1    0.10    0.50
  -2  -8  -1   12.40    1.20
  -2  -8  -1   11.10    1.20
  -2  -8  -1   11.20    1.10
  -2  -8  -1   14.30    2.40
  -2  -8  -1   13.40    1.20
   2   8   1   10.60    1.50
  -3  -8  -1    0.70    0.70
  -3  -8  -1   -0.40    0.60
  -3  -8  -1    1.60    0.80
  -3  -8  -1    0.50    0.60
  -3  -8  -1    0.50    0.60
   3   8   1    0.00    0.60
  -4  -8  -1   76.19    2.70
  -4  -8  -1   78.29    2.60
  -4  -8  -1   81.59    2.50
  -4  -8  -1   75.79    2.50
  -4  -8  -1   77.59    2.50
   4   8   1   74.29    3.70
  -5  -8  -1   46.40    1.70
  -5  -8  -1   48.50    1.80
  -5  -8  -1   50.69    1.90
  -5  -8  -1   48.60    1.80
  -5  -8  -1   47.30    1.70
  -1  -9  -1   65.99    2.20
  -1  -9  -1   67.69    2.30
  -2  -9  -1    1.40    0.50
  -2  -9  -1    1.70    0.60
  -2  -9  -1    1.40    0.60
  -2  -9  -1    1.20    0.60
  -3  -9  -1    0.20    0.50
  -3  -9  -1    0.90    0.50
  -3  -9  -1    1.00    0.60
  -3  -9  -1   -0.20    0.50
  -4  -9  -1    0.00    0.50
  -4  -9  -1    0.80    0.60
  -4  -9  -1    1.20    0.50
  -4  -9  -1    0.10    0.60
  -4  -9  -1    0.70    0.70
  -4  -9   2   43.40    1.60
  -4  -9   2   43.70    1.60
  -4  -9   2   45.20    1.70
  -3  -9   2   12.40    1.00
  -3  -9   2   11.30    1.00
  -3  -9   2   11.20    0.90
  -2  -9   2    1.10    0.50
  -2  -9   2    0.30    0.50
  -2  -9   2   -0.50    0.50
  -1  -9   2    2.30    0.60
  -1  -9   2    3.40    0.70
   4  -9   2   24.60    1.00
   4  -9   2   24.90    1.00
  -5  -8   2    2.10    0.70
  -5  -8   2    3.50    0.70
  -5  -8   2    2.30    0.60
  -5  -8   2    2.30    0.70
   4   8  -2   18.40    1.40
  -4  -8   2   18.60    1.30
  -4  -8   2   20.20    1.20
  -4  -8   2   21.80    1.40
  -4  -8   2   20.30    1.40
   3   8  -2   26.40    1.50
  -3  -8   2   26.30    1.60
  -3  -8   2   26.30    1.50
  -3  -8   2   29.60    1.60
  -3  -8   2   27.30    1.60
   2   8  -2   47.70    1.90
  -2  -8   2   43.40    2.00
  -2  -8   2   49.10    2.00
  -2  -8   2   48.70    2.00
  -1  -8   2   26.60    1.60
  -1  -8   2   27.50    1.50
  -1  -8   2   32.20    1.50
  -1  -8   2   28.00    1.90
   0  -8   2    2.60    0.70
   2  -8   2    1.10    0.60
   2  -8   2    0.20    0.70
   2  -8   2   -0.10    0.80
   3  -8   2  185.38    4.80
   3  -8   2  203.38    4.70
   3  -8   2  201.78    4.60
   3  -8   2  196.28    4.60
   4  -8   2   26.90    1.30
   4  -8   2   28.10    1.40
   4  -8   2   25.50    1.40
   4  -8   2   25.90    1.20
   5  -8   2   21.10    1.10
   5  -8   2   18.20    1.10
   5  -8   2   20.60    1.00
   5  -8   2   18.10    1.10
   6   7  -2    2.70    0.70
   6   7  -2    4.00    1.00
  -6  -7   2    3.50    0.70
  -6  -7   2    2.60    0.70
  -6  -7   2    3.50    0.80
  -6  -7   2    4.10    0.60
   5   7  -2    0.10    0.60
  -5  -7   2    0.90    0.50
  -5  -7   2   -0.80    0.50
  -5  -7   2    0.50    0.70
  -5  -7   2    0.80    0.70
  -5  -7   2    0.40    0.60
   4   7  -2  128.79    4.10
  -4  -7   2  137.99    3.90
  -4  -7   2  133.59    3.60
  -4  -7   2  136.69    3.70
  -4  -7   2  134.09    3.90
  -4  -7   2  132.19    3.80
  -4  -7   2  130.99    4.40
   3   7  -2  291.67    6.90
  -3  -7   2  286.27    6.80
  -3  -7   2  286.47    6.60
  -3  -7   2  280.37    6.70
  -3  -7   2  283.17    7.30
  -3  -7   2  286.37    6.70
   2   7  -2   81.59    2.70
  -2  -7   2   78.09    2.70
  -2  -7   2   77.79    2.70
  -2  -7   2   75.39    2.70
  -2  -7   2   81.19    3.20
  -2  -7   2   79.49    2.70
  -1  -7   2  175.88    4.40
  -1  -7   2  173.48    4.50
  -1  -7   2  175.68    4.90
  -1  -7   2  174.58    4.40
   0  -7   2    3.00    0.90
   0  -7   2    2.40    0.70
   0  -7   2    1.70    0.70
   1  -7   2  124.39    4.20
   1  -7   2  119.39    3.30
   2  -7   2   42.20    1.90
   2  -7   2   42.30    1.90
   2  -7   2   42.40    1.80
   2  -7   2   40.30    1.80
   3  -7   2   37.50    1.80
   3  -7   2   34.60    1.80
   3  -7   2   33.40    1.60
   3  -7   2   38.60    1.70
  -4   7  -2    6.00    0.90
   4  -7   2    5.80    0.80
   4  -7   2    5.70    0.90
   4  -7   2    5.00    0.90
   4  -7   2    6.10    0.90
  -5   7  -2   18.80    1.30
   5  -7   2   18.90    1.30
   5  -7   2   18.50    1.30
   5  -7   2   17.70    1.40
   5  -7   2   19.20    1.20
   5  -7   2   18.00    1.50
   6  -7   2    7.80    0.70
   6  -7   2    6.60    0.70
   6  -7   2    6.20    0.80
   6  -7   2    6.60    0.80
   6  -7   2    6.80    0.90
   6  -7   2    6.50    0.60
   7   6  -2    0.00    0.70
   7   6  -2    0.60    0.70
  -7  -6   2    0.70    0.60
   6   6  -2    4.00    0.90
   6   6  -2    4.00    0.90
  -6  -6   2    3.30    0.80
  -6  -6   2    5.00    0.90
  -6  -6   2    4.80    0.80
  -6  -6   2    3.60    0.80
   5   6  -2   31.50    2.00
  -5  -6   2   35.70    2.20
  -5  -6   2   34.20    1.80
  -5  -6   2   34.30    2.00
  -5  -6   2   35.70    1.90
  -5  -6   2   35.10    1.80
  -5  -6   2   34.00    1.90
   4   6  -2  339.47    8.00
  -4  -6   2  330.87    8.30
  -4  -6   2  320.17    7.60
  -4  -6   2  330.97    7.60
  -4  -6   2  342.57    7.50
  -4  -6   2  341.17    7.80
  -4  -6   2  319.67    7.40
   3   6  -2   17.10    1.40
  -3  -6   2   19.10    1.80
  -3  -6   2   18.00    1.50
  -3  -6   2   19.10    1.30
  -3  -6   2   16.40    1.50
  -3  -6   2   16.70    1.40
   2   6  -2   52.79    2.00
  -2  -6   2   51.39    2.10
  -2  -6   2   50.89    2.70
  -2  -6   2   48.70    2.40
  -2  -6   2   49.80    2.20
  -2  -6   2   50.89    2.10
  -2  -6   2   55.89    2.10
  -1  -6   2   90.69    3.10
  -1  -6   2   88.39    3.40
   0  -6   2   48.10    2.10
   0  -6   2   48.40    2.40
  -1   6  -2   29.20    2.10
   1  -6   2   33.20    1.60
   2  -6   2   27.10    1.50
   2  -6   2   25.90    1.40
   2  -6   2   26.10    1.40
   2  -6   2   27.20    1.70
   3  -6   2  100.99    3.00
   3  -6   2   98.29    3.20
   3  -6   2  101.89    3.00
   3  -6   2  100.59    3.20
  -4   6  -2  275.97    6.50
   4  -6   2  272.27    6.30
   4  -6   2  279.17    6.30
   4  -6   2  274.17    6.50
   4  -6   2  282.17    6.90
   4  -6   2  277.47    6.60
  -5   6  -2   43.50    2.10
   5  -6   2   46.30    1.80
   5  -6   2   43.60    2.00
   5  -6   2   44.40    2.30
   5  -6   2   46.90    1.80
  -6   6  -2    8.20    1.10
   6  -6   2    8.90    1.20
   6  -6   2    8.20    0.90
   6  -6   2    9.00    0.90
   6  -6   2   11.00    1.00
   6  -6   2    8.40    1.00
   6  -6   2   10.00    1.00
   7  -6   2   16.20    0.90
   7  -6   2   18.40    1.00
   7  -6   2   16.30    1.00
   7  -6   2   17.80    1.40
   7  -6   2   17.80    1.10
   7  -6   2   16.90    1.00
   8   5  -2    0.80    0.60
   7   5  -2    0.70    0.80
   7   5  -2   -0.50    0.60
  -7  -5   2    0.40    0.60
  -7  -5   2   -0.40    0.60
   6   5  -2    3.40    0.90
   6   5  -2    2.40    0.80
  -6  -5   2    2.60    0.80
  -6  -5   2    2.80    0.80
  -6  -5   2    2.00    0.70
  -6  -5   2    2.90    0.90
   5   5  -2   88.99    3.30
  -5  -5   2   91.99    2.90
  -5  -5   2   92.99    3.10
  -5  -5   2   94.29    3.10
  -5  -5   2   90.89    3.20
  -5  -5   2   92.09    3.50
  -5  -5   2   91.49    3.10
   4   5  -2  321.67    7.50
  -4  -5   2  314.77    7.40
  -4  -5   2  317.37    7.80
  -4  -5   2  315.57    7.20
  -4  -5   2  319.97    7.20
  -4  -5   2  316.87    7.10
  -4  -5   2  311.27    7.20
   3   5  -2  151.38    4.10
  -3  -5   2  145.69    4.10
  -3  -5   2  148.89    4.70
   2   5  -2   19.70    1.20
  -2  -5   2   20.60    1.60
  -2  -5   2   18.80    1.40
  -1  -5   2   50.99    2.30
  -1  -5   2   52.49    2.10
   0  -5   2  379.96    8.60
   0  -5   2  377.86    8.20
   1  -5   2   24.30    1.60
   1  -5   2   24.50    1.90
  -2   5  -2   44.80    2.50
   2  -5   2   45.80    1.90
  -3   5  -2   28.50    1.50
  -3   5  -2   21.00    3.40
  -3   5  -2   32.00    2.20
   3  -5   2   28.50    1.60
  -4   5  -2  114.09    3.40
   4  -5   2  110.99    3.40
   4  -5   2  111.19    3.10
   4  -5   2  112.89    3.70
   4  -5   2  110.19    3.10
   4  -5   2  112.59    3.10
   4  -5   2  108.99    3.40
  -5   5  -2    0.80    0.60
   5  -5   2    1.40    0.80
   5  -5   2    1.10    0.60
   5  -5   2   -0.10    0.60
   5  -5   2    0.20    0.70
   5  -5   2    0.40    0.50
   5  -5   2    0.40    0.60
  -6   5  -2  152.98    4.40
   6  -5   2  147.79    4.10
   6  -5   2  151.08    3.80
   6  -5   2  146.99    3.80
   6  -5   2  149.19    4.10
   6  -5   2  149.09    3.90
   6  -5   2  148.79    4.60
   7  -5   2    1.30    0.50
   7  -5   2    0.30    0.40
   7  -5   2    0.60    0.70
   7  -5   2    0.50    0.50
   7  -5   2   -0.40    0.50
   7  -5   2    0.20    0.50
  -8   5  -2   36.30    1.40
   8  -5   2   35.50    1.30
   8  -5   2   36.10    1.20
   8  -5   2   37.50    1.70
   8   4  -2    8.70    1.10
   8   4  -2    7.40    0.90
   7   4  -2   14.40    1.50
   7   4  -2   14.40    1.40
  -7  -4   2   17.70    1.40
  -7  -4   2   15.80    1.30
   6   4  -2   39.80    2.10
  -6  -4   2   40.70    2.10
  -6  -4   2   39.20    2.00
  -6  -4   2   37.20    1.90
  -6  -4   2   41.00    1.80
   5   4  -2   47.10    2.30
  -5  -4   2   45.70    2.00
  -5  -4   2   47.60    1.90
  -5  -4   2   46.30    2.20
  -5  -4   2   46.50    2.40
  -5  -4   2   43.50    2.10
  -5  -4   2   45.70    2.10
   4   4  -2  157.78    4.30
  -4  -4   2  153.98    4.80
  -4  -4   2  157.88    4.50
  -4  -4   2  162.38    4.40
   3   4  -2  181.88    4.50
  -3  -4   2  182.38    5.00
  -3  -4   2  177.78    4.70
   2   4  -2 1398.96   26.20
  -2  -4   2 1406.36   26.90
  -2  -4   2 1374.16   26.50
  -1  -4   2  171.98    4.20
  -1  -4   2  169.68    4.40
   0  -4   2  212.68    4.80
   0  -4   2  207.28    5.10
  -1   4  -2  744.43   16.00
   1  -4   2  738.63   14.90
   1  -4   2  737.93   14.30
  -2   4  -2   18.50    2.50
  -2   4  -2   21.50    1.60
  -3   4  -2   14.10    2.70
  -3   4  -2   25.20    1.80
  -3   4  -2   23.40    1.30
   3  -4   2   22.50    1.30
  -4   4  -2    0.90    1.60
  -4   4  -2    1.80    0.80
  -4   4  -2    2.40    0.60
   4  -4   2    2.50    1.40
   4  -4   2    2.80    0.70
  -5   4  -2 1254.97   24.40
   5  -4   2 1254.97   24.10
   5  -4   2 1242.28   23.80
   5  -4   2 1247.38   23.90
   5  -4   2 1220.68   24.00
   5  -4   2 1252.07   23.70
   5  -4   2 1235.18   24.80
  -6   4  -2  287.07    7.10
   6  -4   2  278.47    7.30
   6  -4   2  286.67    6.40
   6  -4   2  292.17    6.60
   6  -4   2  289.37    6.60
   6  -4   2  295.27    6.70
  -7   4  -2    5.00    0.90
   7  -4   2    4.50    0.70
   7  -4   2    3.90    0.70
   7  -4   2    3.60    0.80
   7  -4   2    4.50    0.70
   7  -4   2    5.20    0.70
   7  -4   2    3.10    1.00
  -8   4  -2    2.80    0.70
   8  -4   2    4.60    0.60
   8  -4   2    4.60    0.90
   8  -4   2    3.50    0.60
   9   3  -2    6.10    0.70
   8   3  -2   37.00    1.70
   8   3  -2   36.30    1.60
  -8  -3   2   36.10    1.50
   7   3  -2    8.50    1.30
   7   3  -2    6.90    1.00
   7   3  -2    6.30    1.00
  -7  -3   2    5.80    0.90
   6   3  -2   79.49    2.90
  -6  -3   2   81.49    2.90
  -6  -3   2   82.79    2.70
  -6  -3   2   80.89    3.10
   5   3  -2    0.10    0.50
  -5  -3   2    0.00    0.60
  -5  -3   2    0.10    0.70
   4   3  -2   71.49    2.40
  -4  -3   2   70.59    2.80
  -4  -3   2   69.29    2.50
   3   3  -2 2466.95   46.40
  -3  -3   2 2530.35   46.90
  -3  -3   2 2514.55   46.60
  -2  -3   2  783.82   15.10
  -2  -3   2  770.82   15.40
  -1  -3   2   43.40    1.60
  -1  -3   2   42.50    1.70
   0   3  -2   45.00    1.90
   0  -3   2   43.80    1.50
   0  -3   2   47.10    1.70
  -1   3  -2  247.08    5.10
  -1   3  -2  247.18    6.50
   1  -3   2  233.48    5.00
   1  -3   2  241.68    5.50
  -2   3  -2  152.98    5.80
  -2   3  -2  162.38    4.30
  -3   3  -2   -0.30    0.60
  -3   3  -2    0.10    0.40
  -3   3  -2   -1.40    1.10
  -4   3  -2    0.50    0.40
  -4   3  -2    0.30    0.60
  -4   3  -2    0.40    1.30
   4  -3   2    0.10    0.50
  -5   3  -2  124.89    9.00
  -5   3  -2  116.89    3.60
   5  -3   2  109.39    3.20
   5  -3   2  112.09    3.90
   5  -3   2  107.09    3.20
   5  -3   2  105.99    3.10
  -6   3  -2    3.80    0.90
   6  -3   2    4.30    0.70
   6  -3   2    2.20    0.70
   6  -3   2    4.80    0.90
   6  -3   2    5.20    0.80
   6  -3   2    5.00    0.90
   6  -3   2    4.30    1.20
   6  -3   2    3.70    0.80
   7  -3   2    7.40    1.30
   7  -3   2    6.70    0.90
   7  -3   2    6.10    0.80
   7  -3   2    7.60    1.00
  -8   3  -2    0.20    0.50
   8  -3   2    1.50    0.40
   8  -3   2    0.60    0.70
   8  -3   2    0.50    0.50
   8  -3   2    0.70    0.50
   9   2  -2   -0.70    0.40
   9   2  -2    0.00    0.50
  -9  -2   2    0.00    0.40
   8   2  -2   87.79    2.60
   8   2  -2   84.79    2.70
  -8  -2   2   82.79    2.60
   7   2  -2   22.80    1.50
   7   2  -2   25.10    1.90
   7   2  -2   23.80    1.70
  -7  -2   2   21.60    1.50
   6   2  -2  135.89    4.00
   6   2  -2  139.79    3.90
   6   2  -2  143.89    4.10
  -6  -2   2  139.69    3.80
  -6  -2   2  143.89    4.00
  -5  -2   2    6.70    1.10
   4   2  -2   14.90    1.10
  -4  -2   2   15.30    1.30
  -4  -2   2   14.60    1.10
   3   2  -2   14.40    1.00
  -3  -2   2   16.50    1.10
  -3  -2   2   16.40    1.20
  -2  -2   2 1496.15   27.90
  -2  -2   2 1472.15   27.70
  -1  -2   2  100.99    2.50
  -1  -2   2   97.69    2.60
   0   2  -2  386.66    8.10
  -1   2  -2  125.89    4.30
   1  -2   2  157.98    3.50
  -2   2  -2   43.50    3.00
  -3   2  -2  338.87    7.70
  -3   2  -2  344.67    7.20
  -4   2  -2  671.53   16.80
  -4   2  -2  669.53   13.30
  -4   2  -2  647.44   13.90
  -5   2  -2   85.99    3.60
  -5   2  -2   89.99    5.30
  -5   2  -2   89.59    3.00
   5  -2   2   89.89    2.70
   5  -2   2   85.79    3.30
  -6   2  -2  418.06    9.80
   6  -2   2  449.76    9.20
   6  -2   2  429.46   10.20
   6  -2   2  441.26    9.30
   6  -2   2  448.46    9.40
   7  -2   2  199.78    5.00
   7  -2   2  203.78    4.80
   7  -2   2  198.78    5.00
   7  -2   2  201.28    5.80
  -8   2  -2   10.80    1.00
   8  -2   2   13.90    1.10
   8  -2   2   10.80    1.00
   8  -2   2   11.50    1.30
   9   1  -2    4.20    0.70
   9   1  -2    4.20    0.70
  -9  -1   2    2.60    0.60
   8   1  -2    1.10    0.70
   8   1  -2    1.30    0.70
  -8  -1   2    0.60    0.60
   7   1  -2    4.90    0.90
   7   1  -2    3.20    0.90
  -7  -1   2    2.90    0.80
   6   1  -2   88.69    3.90
   6   1  -2   94.79    2.90
   6   1  -2   90.99    3.10
  -6  -1   2   93.59    2.90
  -5  -1   2  139.29    4.30
  -4  -1   2  386.86    8.60
  -3  -1   2  427.06    9.20
  -3  -1   2  414.76    8.60
  -3  -1   2  389.16    8.20
  -2  -1   2  623.24   12.20
  -1  -1   2 3738.93   69.89
   0   1  -2  375.56    7.50
   0  -1   2  378.06    7.40
  -1   1  -2   28.20    1.10
  -1   1  -2   35.70    1.70
   1  -1   2   27.00    1.10
  -2   1  -2  592.94   11.90
  -2   1  -2  610.74   13.30
  -3   1  -2   12.80    1.90
  -3   1  -2   13.90    1.20
  -4   1  -2  951.70   19.00
  -4   1  -2  937.71   18.30
  -4   1  -2  932.71   21.30
  -5   1  -2   15.80    1.30
  -5   1  -2   12.20    1.50
  -5   1  -2   18.50    2.80
   6  -1   2  314.27    7.20
   6  -1   2  318.17    6.90
   6  -1   2  316.57    7.10
   6  -1   2  314.37    8.00
   7  -1   2   33.50    1.50
   7  -1   2   32.20    2.20
   7  -1   2   29.00    1.70
   7  -1   2   31.30    1.70
  -8   1  -2   55.09    1.90
   8  -1   2   55.29    2.10
   8  -1   2   55.09    2.50
   8  -1   2   52.89    2.00
   9  -1   2   26.90    1.10
   9  -1   2   28.70    1.20
   9   0  -2   42.20    1.50
   9   0  -2   39.30    1.60
  -9   0   2   40.30    1.60
   8   0  -2   35.60    1.70
   8   0  -2   36.90    1.80
  -8   0   2   32.70    1.70
   7   0  -2  125.99    3.60
   7   0  -2  123.59    3.70
  -7   0   2  124.79    3.70
   6   0  -2   52.49    2.10
   6   0  -2   50.89    2.10
  -6   0   2   48.20    2.00
  -6   0   2   47.80    2.10
   5   0  -2   27.60    1.50
  -5   0   2   32.40    1.70
  -5   0   2   29.10    1.90
  -4   0   2  347.77    7.20
  -4   0   2  269.97    8.70
  -3   0   2  192.68    5.30
  -3   0   2  181.48    4.40
  -2   0   2  691.53   13.30
  -2   0   2  702.33   13.70
   1   0  -2  519.65   10.10
  -1   0   2  527.25    9.90
   0   0  -2 3097.59   60.19
   0   0   2 3216.98   58.19
  -1   0  -2 1273.77   23.60
  -2   0  -2 1943.31   37.30
  -2   0  -2 1947.71   36.00
  -3   0  -2 1082.89   20.70
  -3   0  -2 1059.79   22.30
  -4   0  -2 3347.96   61.49
  -4   0  -2 3247.68   63.69
  -5   0  -2   27.60    2.90
  -5   0  -2   27.40    2.00
  -6   0  -2  244.88    6.00
   6   0   2  246.78    6.60
   6   0   2  243.28    5.80
   6   0   2  247.98    5.90
  -7   0  -2   18.20    1.50
   7   0   2   17.10    1.30
   7   0   2   12.40    1.50
   7   0   2   12.90    1.30
   8   0   2   10.60    1.30
   8   0   2   10.40    1.10
   8   0   2   11.60    1.00
   9   0   2    3.00    0.60
   9   0   2    3.20    0.60
   9  -1  -2    2.50    0.60
  -9   1   2    3.80    0.70
   8  -1  -2   37.70    1.80
   8  -1  -2   38.30    1.80
  -8   1   2   35.20    1.70
   7  -1  -2   44.00    1.80
   7  -1  -2   46.30    2.00
   7  -1  -2   44.40    2.00
  -7   1   2   48.80    2.10
  -7   1   2   44.70    2.20
   6  -1  -2   64.49    2.30
   6  -1  -2   68.29    2.30
   6  -1  -2   61.79    2.30
   6  -1  -2   71.29    2.40
   6  -1  -2   66.29    2.40
  -6   1   2   67.09    2.40
  -6   1   2   70.09    2.60
   5  -1  -2  136.79    3.60
  -5   1   2  144.69    3.90
  -5   1   2  135.59    4.30
  -4   1   2 1490.55   27.80
  -4   1   2 1490.65   30.20
  -4   1   2 1426.86   28.20
  -3   1   2  569.44   12.40
  -3   1   2  574.24   11.40
   2  -1  -2 1588.94   30.50
  -2   1   2 1647.74   29.90
   1  -1  -2   49.99    1.80
  -1   1   2   50.89    1.20
   0  -1  -2  219.88    5.00
  -1  -1  -2    4.10    0.80
  -1  -1  -2    4.60    0.50
  -2  -1  -2   27.60    1.20
  -2  -1  -2   29.90    1.80
  -2  -1  -2   29.10    1.20
  -3  -1  -2  178.68    4.20
  -3  -1  -2  182.88    5.60
  -3  -1  -2  182.38    4.40
  -4  -1  -2  353.86    8.10
  -4  -1  -2  352.86    9.70
  -5  -1  -2  198.58    5.70
  -5  -1  -2  202.88    7.40
  -6  -1  -2   12.50    1.30
   6   1   2    9.60    1.20
   6   1   2   12.70    1.60
   6   1   2   11.70    1.20
  -7  -1  -2   30.80    1.80
   7   1   2   31.70    1.80
   7   1   2   33.40    1.70
   7   1   2   32.00    2.10
  -8  -1  -2   -0.10    0.60
   8   1   2    1.50    0.50
   8   1   2    0.80    0.60
   9   1   2   14.10    1.00
   9  -2  -2    3.20    0.60
  -9   2   2    2.80    0.70
   8  -2  -2   11.20    1.00
   8  -2  -2   12.60    1.00
   8  -2  -2   13.40    1.20
   8  -2  -2   13.00    1.20
  -8   2   2   10.50    1.20
  -8   2   2   12.20    1.20
   7  -2  -2    3.70    0.90
   7  -2  -2    4.60    0.90
   7  -2  -2    4.70    0.80
   7  -2  -2    5.50    0.80
   7  -2  -2    4.80    0.80
   7  -2  -2    4.40    1.00
  -7   2   2    5.10    0.90
  -7   2   2    3.50    0.90
   6  -2  -2  127.99    3.50
   6  -2  -2  131.69    3.70
   6  -2  -2  134.29    4.10
   6  -2  -2  127.49    3.60
   6  -2  -2  133.09    3.50
   6  -2  -2  133.59    3.50
   6  -2  -2  126.69    3.70
  -6   2   2  134.89    4.10
   5  -2  -2   23.10    1.30
  -5   2   2   20.70    1.70
  -5   2   2   24.50    3.40
  -5   2   2   20.90    1.40
  -4   2   2  225.78    5.70
  -4   2   2  225.88    7.10
  -3   2   2   23.50    2.00
  -3   2   2   24.20    1.30
  -3   2   2   27.10    1.30
   2  -2  -2    0.90    0.60
  -2   2   2    1.90    0.40
   1  -2  -2  839.02   16.40
  -1   2   2  807.52   15.20
   0  -2  -2  849.41   16.80
  -1  -2  -2 2060.69   38.70
  -1  -2  -2 2041.80   37.30
  -1  -2  -2 2036.60   37.80
  -2  -2  -2   74.39    2.30
  -2  -2  -2   78.89    3.10
  -2  -2  -2   77.49    2.10
  -3  -2  -2    1.40    0.80
  -3  -2  -2    0.90    0.50
  -3  -2  -2    1.10    0.50
   3   2   2    0.90    0.80
  -4  -2  -2   67.39    2.50
  -4  -2  -2   65.99    3.50
  -4  -2  -2   63.09    2.30
   4   2   2   66.59    2.50
  -5  -2  -2  361.76    8.90
  -5  -2  -2  380.16   10.80
  -6  -2  -2   36.90    2.00
  -6  -2  -2   36.80    1.70
   6   2   2   36.70    2.00
   6   2   2   32.90    1.70
  -7  -2  -2   44.60    2.20
   7   2   2   41.10    2.00
  -8  -2  -2    0.50    0.60
   8   2   2    1.20    0.60
   9  -3  -2    3.00    0.60
  -9   3   2    2.70    0.60
  -9   3   2    5.40    0.90
   8  -3  -2   13.60    1.10
   8  -3  -2   15.30    1.10
   8  -3  -2   14.70    1.40
   8  -3  -2   17.20    1.10
  -8   3   2   16.10    1.30
  -8   3   2   14.40    1.30
   7  -3  -2   40.90    2.20
   7  -3  -2   41.10    1.80
   7  -3  -2   43.10    2.00
   7  -3  -2   45.90    1.80
   7  -3  -2   39.70    1.70
   7  -3  -2   42.40    1.90
  -7   3   2   42.70    2.00
  -7   3   2   41.40    2.30
  -7   3   2   39.20    2.20
   6  -3  -2  172.78    4.40
   6  -3  -2  171.28    4.30
   6  -3  -2  168.48    4.30
   6  -3  -2  173.38    5.00
   6  -3  -2  174.28    4.40
   6  -3  -2  171.68    4.50
   6  -3  -2  172.38    4.60
   6  -3  -2  171.18    4.40
  -6   3   2  181.18    5.10
   5  -3  -2  179.38    5.20
   5  -3  -2  186.88    4.60
  -5   3   2  184.88    5.50
  -5   3   2  184.38    4.90
  -5   3   2  186.58    7.90
   4  -3  -2  328.67    7.00
  -4   3   2  326.97    9.50
  -4   3   2  325.97    7.10
  -4   3   2  316.27    7.60
  -3   3   2 1853.21   36.40
  -3   3   2 1821.52   34.00
  -3   3   2 1825.92   34.50
   2  -3  -2  208.48    5.70
  -2   3   2  201.48    4.50
   1  -3  -2  235.98    5.00
   1  -3  -2  240.38    6.00
  -1   3   2  230.58    4.80
   0  -3  -2   37.00    2.00
   0  -3  -2   38.70    1.50
  -1  -3  -2  518.95   10.50
  -1  -3  -2  532.45   11.60
  -2  -3  -2  224.48    5.20
  -2  -3  -2  228.58    6.30
   2   3   2  222.38    4.90
  -3  -3  -2  116.19    4.30
  -3  -3  -2  112.79    3.30
   3   3   2  101.99    3.60
  -4  -3  -2   32.90    2.50
  -4  -3  -2   33.30    1.80
   4   3   2   32.60    2.00
  -5  -3  -2   15.30    1.40
  -5  -3  -2   12.00    1.30
  -5  -3  -2   14.60    1.30
  -5  -3  -2   15.80    1.40
   5   3   2   14.50    1.40
  -6  -3  -2  114.39    3.70
  -6  -3  -2  124.09    3.40
   6   3   2  113.39    3.60
  -7  -3  -2    8.30    1.10
   7   3   2    6.70    1.00
   7   3   2    8.10    1.10
  -8  -3  -2   36.80    1.70
   8   3   2   39.00    1.70
   8  -4  -2   10.90    1.00
   8  -4  -2   11.90    1.20
   8  -4  -2   10.70    0.90
   8  -4  -2   10.90    0.90
  -8   4   2   10.40    1.20
  -8   4   2   11.40    1.00
   7  -4  -2   70.69    2.40
   7  -4  -2   74.29    3.00
   7  -4  -2   74.49    2.50
   7  -4  -2   74.89    2.40
   7  -4  -2   73.49    2.60
   7  -4  -2   71.59    2.40
   7  -4  -2   70.19    2.30
  -7   4   2   75.89    2.70
  -7   4   2   71.99    3.00
   6  -4  -2    3.20    0.70
   6  -4  -2    3.60    0.80
   6  -4  -2    3.90    0.90
   6  -4  -2    3.40    0.80
   6  -4  -2    3.80    0.70
   6  -4  -2    4.10    0.80
   6  -4  -2    4.70    1.00
  -6   4   2    3.60    0.90
   5  -4  -2  200.98    5.60
   5  -4  -2  203.78    5.00
   5  -4  -2  205.18    4.90
   5  -4  -2  208.38    5.10
   5  -4  -2  207.58    4.80
   5  -4  -2  208.18    5.00
   5  -4  -2  196.68    4.80
   4  -4  -2  183.68    4.50
  -4   4   2  176.88    7.00
  -4   4   2  179.78    4.50
  -3   4   2    1.70    1.00
  -3   4   2    1.20    0.40
   2  -4  -2  185.28    5.70
   1  -4  -2  185.18    4.20
   1  -4  -2  183.58    5.40
   0  -4  -2  313.07    6.70
   0  -4  -2  301.77    7.70
  -1  -4  -2  455.25   10.50
  -1  -4  -2  438.26    9.30
  -2  -4  -2 1400.36   26.90
  -2  -4  -2 1413.96   28.30
   2   4   2 1397.86   26.40
  -3  -4  -2   75.69    2.80
  -3  -4  -2   76.79    3.70
   3   4   2   81.29    3.10
  -4  -4  -2  275.97    6.40
  -4  -4  -2  286.07    7.00
   4   4   2  278.27    7.30
  -5  -4  -2  105.99    3.30
  -5  -4  -2  110.29    3.30
  -5  -4  -2  108.89    3.30
  -5  -4  -2  108.59    3.50
  -5  -4  -2  107.69    3.70
  -5  -4  -2  106.79    3.30
   5   4   2  110.89    3.70
  -6  -4  -2    4.10    0.80
  -6  -4  -2    4.40    0.80
  -6  -4  -2    5.60    1.00
   6   4   2    3.10    0.90
  -7  -4  -2    0.60    0.50
  -7  -4  -2    0.40    0.60
   7   4   2   -0.20    0.60
   7   4   2    0.80    0.70
  -8  -4  -2    9.60    0.90
   8   4   2    7.20    0.80
   8   4   2    9.10    0.70
   8  -5  -2   31.90    1.70
   8  -5  -2   31.50    1.30
   8  -5  -2   33.20    1.40
   8  -5  -2   32.50    1.30
   8  -5  -2   32.70    1.30
  -8   5   2   30.80    1.60
  -8   5   2   33.40    1.40
   7  -5  -2    0.40    0.50
   7  -5  -2    0.00    0.70
   7  -5  -2    1.20    0.60
   7  -5  -2    0.90    0.60
   7  -5  -2    1.00    0.60
   7  -5  -2    0.40    0.60
   7  -5  -2    1.60    0.50
  -7   5   2    0.80    0.60
  -7   5   2    1.00    0.70
   6  -5  -2   51.99    1.90
   6  -5  -2   55.39    2.10
   6  -5  -2   53.49    2.20
   6  -5  -2   56.19    2.20
   6  -5  -2   55.89    2.00
   6  -5  -2   53.89    2.10
   6  -5  -2   57.99    2.70
  -6   5   2   54.39    2.60
   5  -5  -2  125.89    3.60
   5  -5  -2  125.39    3.50
   5  -5  -2  126.59    3.60
   5  -5  -2  121.29    3.50
   5  -5  -2  129.09    3.40
   5  -5  -2  125.89    4.20
   5  -5  -2  128.59    3.40
  -5   5   2  127.59    4.00
   4  -5  -2    3.20    0.70
   4  -5  -2    2.40    0.70
   4  -5  -2    1.40    0.70
   4  -5  -2    2.60    0.80
   4  -5  -2    2.60    0.70
   4  -5  -2    2.30    0.80
  -4   5   2    1.70    0.60
   3  -5  -2   61.09    2.10
  -3   5   2   63.89    3.90
   2  -5  -2  578.64   13.80
   1  -5  -2   15.70    1.70
   0  -5  -2  176.28    5.70
   0  -5  -2  182.98    4.60
  -1  -5  -2   35.20    1.80
  -1  -5  -2   38.40    2.50
  -2  -5  -2    7.30    1.40
  -2  -5  -2    5.30    1.00
   2   5   2    7.20    0.80
  -3  -5  -2    7.10    1.10
  -3  -5  -2    4.40    1.00
   3   5   2    3.20    1.10
  -4  -5  -2   42.10    2.00
  -4  -5  -2   39.20    1.90
  -4  -5  -2   39.40    1.90
  -4  -5  -2   40.50    1.90
  -4  -5  -2   40.30    2.30
  -4  -5  -2   41.30    2.00
  -4  -5  -2   36.20    1.90
   4   5   2   43.60    2.70
  -5  -5  -2  162.08    4.30
  -5  -5  -2  157.48    4.30
  -5  -5  -2  158.28    4.80
  -5  -5  -2  154.18    4.20
  -5  -5  -2  155.08    4.20
  -5  -5  -2  161.68    4.40
  -5  -5  -2  153.08    4.20
   5   5   2  154.58    4.70
  -6  -5  -2   23.60    1.50
  -6  -5  -2   25.20    1.50
  -6  -5  -2   22.60    1.50
  -6  -5  -2   19.70    1.60
   6   5   2   23.30    1.70
  -7  -5  -2   33.70    1.70
   7   5   2   34.80    1.60
   7   5   2   34.20    1.60
   7  -6  -2   -0.10    0.50
   7  -6  -2    0.90    0.50
   7  -6  -2   -0.20    0.50
   7  -6  -2   -0.50    0.50
   7  -6  -2    0.00    0.60
   7  -6  -2   -0.30    0.50
  -7   6   2   -0.30    0.50
  -7   6   2    0.10    0.70
   6  -6  -2    0.40    0.60
   6  -6  -2    0.50    0.60
   6  -6  -2    1.10    0.60
   6  -6  -2    1.90    0.60
   6  -6  -2    0.50    0.60
   6  -6  -2    0.50    0.80
  -6   6   2    1.80    0.70
   5  -6  -2  116.19    3.90
   5  -6  -2  112.39    3.40
   5  -6  -2  114.09    3.40
   5  -6  -2  113.29    3.30
   5  -6  -2  113.89    3.10
   5  -6  -2  115.69    3.30
  -5   6   2  112.09    3.70
   4  -6  -2    0.10    0.60
   4  -6  -2   -0.90    0.50
   4  -6  -2    0.40    0.60
   4  -6  -2    0.50    0.80
   4  -6  -2    0.20    0.50
   4  -6  -2    1.20    0.60
  -4   6   2   -0.50    0.40
   3  -6  -2  207.38    5.10
   3  -6  -2  212.38    5.10
   3  -6  -2  202.38    5.00
   3  -6  -2  212.88    5.70
   3  -6  -2  218.18    5.00
   2  -6  -2   26.50    2.50
   2  -6  -2   26.60    1.80
  -2   6   2   24.30    2.60
   1  -6  -2    2.80    0.70
   1  -6  -2    0.70    0.90
   0  -6  -2   31.60    1.70
   0  -6  -2   36.00    1.90
   0  -6  -2   31.30    2.50
  -1  -6  -2   78.99    2.70
  -1  -6  -2   76.29    2.90
  -2  -6  -2  233.98    5.70
  -2  -6  -2  233.58    5.80
  -2  -6  -2  235.18    5.60
  -2  -6  -2  226.88    5.50
  -2  -6  -2  233.88    6.20
  -2  -6  -2  234.68    5.60
   2   6   2  241.38    5.70
  -3  -6  -2  592.94   12.40
  -3  -6  -2  616.64   12.70
  -3  -6  -2  608.34   12.70
  -3  -6  -2  606.54   12.50
  -3  -6  -2  608.44   12.80
  -3  -6  -2  636.84   13.50
  -3  -6  -2  619.44   12.60
  -4  -6  -2    1.80    0.80
  -4  -6  -2    1.40    0.70
  -4  -6  -2    0.10    0.70
  -4  -6  -2    1.90    0.70
  -4  -6  -2    1.70    0.70
  -4  -6  -2    1.00    0.90
  -4  -6  -2    1.20    0.70
   4   6   2    1.90    1.00
  -5  -6  -2    1.00    0.70
  -5  -6  -2    0.90    0.70
  -5  -6  -2    1.60    0.70
  -5  -6  -2    1.50    0.70
  -5  -6  -2    1.10    0.80
  -5  -6  -2    0.30    0.70
   5   6   2    2.10    0.80
  -6  -6  -2    0.50    0.60
  -6  -6  -2   -0.20    0.50
  -6  -6  -2    0.30    0.50
  -6  -6  -2    0.30    0.50
   6   6   2    0.50    0.70
  -7  -6  -2   53.19    1.90
   7   6   2   55.79    1.90
   7   6   2   54.99    1.80
   7  -7  -2    4.80    0.90
   7  -7  -2    4.70    0.70
   7  -7  -2    5.60    0.80
   7  -7  -2    5.90    0.60
   7  -7  -2    4.50    0.60
   6  -7  -2    2.80    0.60
   6  -7  -2    3.20    0.70
   6  -7  -2    3.70    0.60
   6  -7  -2    3.50    0.60
   6  -7  -2    4.40    0.60
   6  -7  -2    3.20    0.80
   5  -7  -2  426.46    8.90
   5  -7  -2  427.66    8.70
   5  -7  -2  421.36    8.80
   5  -7  -2  426.16    8.80
   5  -7  -2  413.26    8.90
   5  -7  -2  434.96    9.60
   4  -7  -2   63.59    2.20
   4  -7  -2   59.49    2.20
   4  -7  -2   59.99    2.10
   4  -7  -2   63.09    2.30
   4  -7  -2   57.49    2.60
   4  -7  -2   63.99    2.00
  -4   7   2   49.60    2.20
   3  -7  -2  104.49    3.60
   3  -7  -2  101.09    3.00
   3  -7  -2  104.39    3.10
   3  -7  -2  103.79    3.10
   2  -7  -2  123.99    4.00
   2  -7  -2  124.99    3.40
   2  -7  -2  129.39    3.60
   1  -7  -2   14.60    1.30
   1  -7  -2   16.40    1.20
   1  -7  -2   13.20    1.30
   1  -7  -2   14.20    1.50
   1  -7  -2   13.60    1.20
   0  -7  -2   43.20    1.90
   0  -7  -2   40.80    1.90
   0  -7  -2   39.60    1.90
   0  -7  -2   43.50    2.00
   0  -7  -2   38.00    2.20
  -1  -7  -2  177.88    4.70
  -1  -7  -2  182.68    4.60
  -1  -7  -2  180.18    4.50
  -1  -7  -2  180.98    5.20
  -1  -7  -2  179.68    4.70
  -1  -7  -2  184.38    4.90
  -2  -7  -2    4.60    1.10
  -2  -7  -2    4.70    1.00
  -2  -7  -2    5.50    0.90
  -2  -7  -2    3.30    0.80
  -2  -7  -2    5.10    1.00
  -2  -7  -2    4.40    0.90
   2   7   2    5.90    1.10
  -3  -7  -2  107.89    3.30
  -3  -7  -2  108.59    3.30
  -3  -7  -2  115.99    3.50
  -3  -7  -2  110.09    3.50
  -3  -7  -2  106.19    3.20
  -3  -7  -2  110.39    3.90
  -3  -7  -2  106.69    3.40
   3   7   2  109.99    4.40
  -4  -7  -2    0.70    0.70
  -4  -7  -2    1.00    0.80
  -4  -7  -2    0.30    0.70
  -4  -7  -2    0.60    0.60
  -4  -7  -2   -0.60    0.60
  -4  -7  -2    0.50    0.60
   4   7   2    1.40    0.90
  -5  -7  -2    8.90    1.00
  -5  -7  -2    7.80    0.90
  -5  -7  -2    8.60    1.00
  -5  -7  -2    8.50    1.00
  -5  -7  -2    7.50    0.90
   5   7   2    8.90    1.10
  -6  -7  -2    5.10    0.80
  -6  -7  -2    5.30    0.70
  -6  -7  -2    6.30    0.70
  -6  -7  -2    6.90    0.80
  -6  -7  -2    7.20    0.70
   6   7   2    9.10    0.90
   6  -8  -2   -0.50    0.50
   6  -8  -2    0.20    0.30
   6  -8  -2    0.20    0.40
   6  -8  -2   -0.80    0.50
   5  -8  -2   46.20    1.70
   5  -8  -2   44.60    2.00
   5  -8  -2   44.40    1.70
   5  -8  -2   46.40    1.60
   4  -8  -2   22.90    1.20
   4  -8  -2   27.80    1.40
   4  -8  -2   23.90    1.60
   4  -8  -2   23.40    1.30
  -4   8   2   16.50    1.20
   3  -8  -2    6.90    0.90
   3  -8  -2    8.40    1.20
   3  -8  -2    9.70    0.90
   2  -8  -2    7.30    0.90
   2  -8  -2    8.00    1.20
   2  -8  -2    7.60    0.90
   1  -8  -2    2.60    0.70
   1  -8  -2    3.20    0.80
   0  -8  -2   51.79    2.20
   0  -8  -2   50.79    2.10
   0  -8  -2   52.59    2.20
  -1  -8  -2   -0.10    0.70
  -1  -8  -2   -0.70    0.60
  -1  -8  -2   -0.30    0.60
  -1  -8  -2    0.60    0.90
  -1  -8  -2    0.50    0.60
  -1  -8  -2    0.00    0.60
  -2  -8  -2   10.20    1.10
  -2  -8  -2   12.60    1.30
  -2  -8  -2   11.50    1.10
  -2  -8  -2   11.40    1.20
  -2  -8  -2   10.50    1.10
   2   8   2   10.00    1.60
  -3  -8  -2   33.20    1.70
  -3  -8  -2   32.30    1.60
  -3  -8  -2   32.70    1.90
  -3  -8  -2   30.50    1.70
  -3  -8  -2   29.80    1.50
   3   8   2   28.60    1.90
  -4  -8  -2   24.70    1.40
  -4  -8  -2   23.50    1.30
  -4  -8  -2   25.40    1.60
  -4  -8  -2   25.80    1.40
  -4  -8  -2   25.70    1.50
  -5  -8  -2    9.70    0.90
  -5  -8  -2    8.60    0.80
  -5  -8  -2    8.80    0.90
  -5  -8  -2    6.50    0.80
  -5  -8  -2    8.30    0.90
   4  -9  -2   77.09    2.00
   4  -9  -2   82.69    3.20
   0  -9  -2    3.30    0.80
  -1  -9  -2   -0.80    0.50
  -1  -9  -2   -0.50    0.50
  -1  -9  -2   -0.50    0.50
  -2  -9  -2    8.30    0.80
  -2  -9  -2    9.60    0.90
  -2  -9  -2    8.90    1.00
  -2  -9  -2    8.90    0.90
  -3  -9  -2   24.60    1.20
  -3  -9  -2   22.80    1.20
  -3  -9  -2   24.10    1.40
  -3  -9  -2   21.50    1.30
  -3  -9   3   24.80    1.30
  -3  -9   3   24.10    1.20
  -3  -9   3   24.50    1.30
  -2  -9   3   -0.40    0.50
  -2  -9   3   -0.20    0.50
  -2  -9   3    0.80    0.50
  -1  -9   3    4.80    0.70
  -1  -9   3    2.70    0.60
   0  -9   3    2.40    0.60
   3  -9   3   14.90    0.80
   3  -9   3   14.10    0.80
   5   8  -3    2.80    0.80
  -5  -8   3    5.20    0.70
  -5  -8   3    5.40    0.80
  -5  -8   3    4.50    0.70
  -5  -8   3    4.20    0.70
  -4  -8   3    0.30    0.50
  -4  -8   3   -0.70    0.60
  -4  -8   3    0.50    0.60
  -4  -8   3    0.30    0.50
   3   8  -3    0.50    0.60
  -3  -8   3    0.40    0.60
  -3  -8   3    1.30    0.70
  -3  -8   3    1.50    0.70
  -3  -8   3    0.80    0.60
   2   8  -3    1.00    0.50
  -2  -8   3    1.20    0.60
  -2  -8   3    1.10    0.60
  -2  -8   3    1.10    0.70
  -1  -8   3   78.49    2.60
  -1  -8   3   77.09    2.50
  -1  -8   3   73.89    2.50
   0  -8   3    8.20    1.00
   0  -8   3   12.40    1.10
   0  -8   3    8.70    0.90
   1  -8   3  166.28    4.10
   1  -8   3  162.08    4.20
   2  -8   3  148.59    3.70
   2  -8   3  147.99    3.90
   2  -8   3  149.69    3.80
  -3   8  -3   25.00    1.30
   3  -8   3   27.00    1.40
   3  -8   3   26.00    1.50
   3  -8   3   27.80    1.40
   3  -8   3   26.70    1.40
   4  -8   3    0.00    0.50
   4  -8   3    0.00    0.50
   4  -8   3   -0.10    0.40
   4  -8   3    0.80    0.50
   5  -8   3    9.30    0.80
   5  -8   3   10.40    0.70
   5  -8   3    8.70    0.80
   6   7  -3   96.99    2.70
   6   7  -3   99.19    3.10
  -6  -7   3  102.29    2.60
  -6  -7   3  106.59    2.80
  -6  -7   3  105.09    2.80
   5   7  -3  174.48    5.00
  -5  -7   3  197.88    4.70
  -5  -7   3  186.88    4.50
  -5  -7   3  191.88    4.70
  -5  -7   3  184.98    4.60
   4   7  -3    6.70    1.00
  -4  -7   3    5.60    0.90
  -4  -7   3    8.70    1.00
  -4  -7   3    5.70    1.00
  -4  -7   3    7.40    1.00
   3   7  -3   43.60    2.00
  -3  -7   3   42.60    2.00
  -3  -7   3   42.00    1.90
  -3  -7   3   35.80    2.30
  -3  -7   3   45.30    2.00
  -3  -7   3   42.80    2.00
   2   7  -3   87.99    2.80
  -2  -7   3   83.69    2.80
  -2  -7   3   88.79    3.40
  -2  -7   3   92.09    2.90
  -2  -7   3   83.59    2.70
  -2  -7   3   84.89    2.90
   1   7  -3   79.69    3.10
  -1  -7   3   78.69    2.60
  -1  -7   3   79.79    2.70
  -1  -7   3   79.99    2.60
  -1  -7   3   84.59    3.10
  -1  -7   3   77.99    2.60
   0   7  -3   16.20    2.10
   0  -7   3   16.20    1.30
   0  -7   3   14.30    1.20
   0  -7   3   15.40    1.40
   1  -7   3  132.59    3.50
   1  -7   3  129.49    3.60
   1  -7   3  129.29    3.80
   1  -7   3  132.19    3.60
   2  -7   3   10.40    1.10
   2  -7   3    9.10    1.10
   2  -7   3   10.90    1.10
   2  -7   3   12.90    1.20
  -3   7  -3  409.86    8.90
   3  -7   3  413.36    8.70
   3  -7   3  414.16    8.90
   3  -7   3  409.26    8.70
   3  -7   3  415.86    9.10
  -4   7  -3    0.20    0.50
   4  -7   3   -0.30    0.50
   4  -7   3    0.50    0.60
   4  -7   3    0.60    0.50
   4  -7   3    0.00    0.60
  -5   7  -3   28.20    2.10
   5  -7   3   27.60    1.40
   5  -7   3   26.00    1.40
   5  -7   3   25.50    1.50
   5  -7   3   25.90    1.30
   6  -7   3    3.70    0.50
   6  -7   3    3.60    0.70
   6  -7   3    3.00    0.60
   7   6  -3    0.90    0.80
   7   6  -3   -0.10    0.50
  -7  -6   3    0.50    0.50
   6   6  -3   13.70    1.40
   6   6  -3   17.30    1.40
  -6  -6   3   17.60    1.40
  -6  -6   3   16.00    1.30
  -6  -6   3   15.40    1.10
  -6  -6   3   18.80    1.30
   5   6  -3    7.70    1.50
   5   6  -3    5.90    1.00
   5   6  -3    5.50    1.00
  -5  -6   3    6.80    1.10
  -5  -6   3    5.20    0.90
  -5  -6   3    4.60    0.90
  -5  -6   3    6.90    1.00
  -5  -6   3    4.20    1.30
  -5  -6   3    7.30    0.90
   4   6  -3    0.30    0.60
  -4  -6   3    0.30    0.50
  -4  -6   3   -1.00    0.70
  -4  -6   3    1.00    0.70
  -4  -6   3    0.10    0.80
  -4  -6   3    0.30    0.60
  -4  -6   3    0.40    0.70
   3   6  -3    0.90    0.60
  -3  -6   3    0.50    0.80
  -3  -6   3    1.50    0.60
  -3  -6   3    0.30    0.70
  -3  -6   3    0.70    0.70
  -3  -6   3    0.30    0.70
  -3  -6   3    0.70    0.70
   2   6  -3  135.09    3.60
  -2  -6   3  126.99    3.70
  -2  -6   3  134.59    3.70
  -2  -6   3  135.49    3.60
  -2  -6   3  131.19    3.60
  -2  -6   3  128.99    4.10
  -2  -6   3  130.89    3.70
  -1  -6   3    5.70    1.00
  -1  -6   3    3.00    0.70
  -1  -6   3    4.30    1.40
  -1  -6   3    5.80    0.90
  -1  -6   3    3.80    0.90
   0   6  -3  183.98    4.90
   0  -6   3  177.88    5.80
   0  -6   3  182.58    4.70
   0  -6   3  174.58    4.80
   0  -6   3  180.18    5.50
   1  -6   3   96.99    2.90
   1  -6   3   97.19    3.10
   1  -6   3   98.79    3.00
   1  -6   3   96.39    2.90
   2  -6   3   71.29    2.60
   2  -6   3   74.39    2.60
   2  -6   3   71.99    2.50
   2  -6   3   73.49    2.40
   2  -6   3   71.89    2.50
  -3   6  -3  347.27    8.00
   3  -6   3  357.66    7.70
   3  -6   3  359.06    8.00
   3  -6   3  365.96    8.10
   3  -6   3  343.97    7.70
  -4   6  -3  710.73   14.80
   4  -6   3  729.93   14.40
   4  -6   3  728.43   14.80
   4  -6   3  719.93   14.80
   4  -6   3  731.93   14.40
  -5   6  -3   52.39    2.30
   5  -6   3   47.80    2.40
   5  -6   3   52.29    2.00
   5  -6   3   55.49    2.20
   5  -6   3   55.09    2.00
   5  -6   3   51.69    2.10
   5  -6   3   49.10    1.90
   6  -6   3   18.50    1.10
   6  -6   3   17.70    1.50
   6  -6   3   18.80    1.10
   6  -6   3   19.00    1.30
   6  -6   3   19.40    1.10
   6  -6   3   21.00    1.30
   7  -6   3   30.00    1.20
   7  -6   3   29.50    1.50
   7  -6   3   29.70    1.10
   7  -6   3   28.30    1.10
   7  -6   3   30.00    1.20
   8   5  -3   26.50    1.30
   7   5  -3   -0.10    0.60
   7   5  -3    0.80    0.80
  -7  -5   3    0.00    0.50
   6   5  -3   20.50    1.80
   6   5  -3   21.50    1.70
  -6  -5   3   20.30    1.50
  -6  -5   3   21.00    1.70
  -6  -5   3   23.50    1.40
  -6  -5   3   20.00    1.40
   5   5  -3  250.97    6.10
   5   5  -3  249.58    6.50
  -5  -5   3  244.58    6.20
  -5  -5   3  240.98    5.80
  -5  -5   3  256.77    6.10
  -5  -5   3  242.58    6.60
  -5  -5   3  248.28    6.00
  -5  -5   3  256.57    6.00
  -5  -5   3  258.27    5.90
   4   5  -3  338.87    7.70
  -4  -5   3  317.57    7.10
  -4  -5   3  327.87    7.90
  -4  -5   3  323.77    7.30
  -4  -5   3  320.17    7.50
  -4  -5   3  323.97    7.20
  -4  -5   3  314.97    7.20
  -4  -5   3  317.07    7.40
   3   5  -3   91.09    2.90
  -3  -5   3   83.89    2.90
  -3  -5   3   90.99    3.60
  -3  -5   3   89.19    3.20
   2   5  -3    6.20    0.80
  -2  -5   3    9.30    1.20
  -2  -5   3    6.60    1.10
  -1  -5   3  191.58    5.20
  -1  -5   3  177.78    4.70
  -1  -5   3  176.88    4.50
   0  -5   3    3.10    0.70
   0  -5   3    3.50    0.90
   0  -5   3    3.50    0.70
  -1   5  -3  234.58    5.50
   1  -5   3  220.48    5.50
   1  -5   3  231.98    6.10
  -2   5  -3   10.70    1.50
  -2   5  -3   13.20    1.00
   2  -5   3   12.30    1.10
  -3   5  -3    2.60    0.70
   3  -5   3    2.40    0.70
   3  -5   3    1.40    0.70
   3  -5   3    2.10    0.60
   3  -5   3    1.30    0.60
  -4   5  -3  166.48    4.50
   4  -5   3  156.28    4.10
   4  -5   3  161.68    4.10
   4  -5   3  172.88    4.80
   4  -5   3  163.58    4.40
   4  -5   3  156.28    4.40
  -5   5  -3   46.30    2.20
   5  -5   3   49.50    2.10
   5  -5   3   45.40    1.90
   5  -5   3   48.70    1.90
   5  -5   3   42.20    2.40
   5  -5   3   46.80    1.90
   5  -5   3   47.90    2.10
  -6   5  -3    6.20    1.00
   6  -5   3    6.10    0.90
   6  -5   3    4.30    0.70
   6  -5   3    6.10    1.10
   6  -5   3    5.60    0.90
   6  -5   3    5.30    0.70
   6  -5   3    4.70    0.80
   7  -5   3    0.20    0.40
   7  -5   3    0.20    0.40
   7  -5   3    0.30    0.40
   7  -5   3    0.30    0.50
   7  -5   3    0.50    0.70
   7  -5   3   -0.10    0.40
   8   4  -3    6.30    0.90
   8   4  -3    5.80    0.80
  -8  -4   3    6.40    0.70
   7   4  -3   19.60    1.70
   7   4  -3   17.50    1.50
  -7  -4   3   19.10    1.20
   6   4  -3    3.60    1.00
   6   4  -3    5.30    1.20
  -6  -4   3    4.50    0.90
  -6  -4   3    3.20    0.90
  -6  -4   3    5.80    0.90
   5   4  -3   41.40    2.00
   5   4  -3   40.00    2.10
  -5  -4   3   44.10    2.20
  -5  -4   3   41.40    1.90
  -5  -4   3   40.40    2.00
  -5  -4   3   39.90    2.00
  -5  -4   3   42.40    1.80
  -5  -4   3   44.10    2.30
   4   4  -3    7.20    1.00
  -4  -4   3    7.40    1.30
  -4  -4   3    6.10    1.00
  -4  -4   3    8.70    1.20
   3   4  -3  101.99    3.00
  -3  -4   3  105.69    3.30
  -3  -4   3  103.39    3.50
   2   4  -3  290.47    6.30
  -2  -4   3  292.57    7.00
  -2  -4   3  297.87    6.70
   1   4  -3    0.00    0.30
  -1  -4   3    0.80    0.60
  -1  -4   3    0.10    0.50
   0  -4   3  173.78    4.20
   0  -4   3  174.28    4.60
  -1   4  -3   94.89    2.80
   1  -4   3   96.09    3.10
  -2   4  -3   86.19    3.30
  -2   4  -3   90.09    2.50
   2  -4   3   89.89    2.70
  -3   4  -3  236.48    6.50
  -3   4  -3  236.08    8.40
  -3   4  -3  233.58    5.70
   3  -4   3  237.58    5.60
  -4   4  -3   38.40    3.70
  -4   4  -3   36.50    1.80
   4  -4   3   37.40    1.60
   4  -4   3   35.60    1.80
   4  -4   3   39.70    2.20
   4  -4   3   35.90    1.70
  -5   4  -3  275.17    6.80
   5  -4   3  272.27    6.30
   5  -4   3  274.97    6.50
   5  -4   3  278.57    6.20
   5  -4   3  280.27    6.20
   5  -4   3  270.97    7.10
   5  -4   3  275.27    6.40
  -6   4  -3   13.90    1.40
   6  -4   3   17.70    1.20
   6  -4   3   19.50    1.90
   6  -4   3   12.00    1.10
   6  -4   3   15.80    1.20
   6  -4   3   16.30    1.30
   6  -4   3   17.00    1.20
   7  -4   3    5.20    0.70
   7  -4   3    5.10    0.60
   7  -4   3    5.00    0.70
   7  -4   3    2.80    0.70
   7  -4   3    5.30    1.10
   7  -4   3    4.90    0.80
  -8   4  -3    2.10    0.60
   8  -4   3    3.20    0.80
   8  -4   3    2.70    0.60
   8  -4   3    2.70    0.50
   8   3  -3    0.90    0.70
   8   3  -3   -0.60    0.50
  -8  -3   3    0.70    0.50
   7   3  -3    5.30    1.00
   7   3  -3    5.40    1.20
  -7  -3   3    6.40    0.90
   6   3  -3  110.19    3.50
   6   3  -3  109.19    3.60
  -6  -3   3  111.99    3.30
  -6  -3   3  113.99    3.60
   5   3  -3   -0.50    0.70
   5   3  -3    0.40    0.60
  -5  -3   3    0.20    0.60
  -5  -3   3   -0.50    0.70
  -5  -3   3    0.40    0.50
   4   3  -3  100.79    3.10
  -4  -3   3  100.09    3.50
  -4  -3   3  101.59    3.20
   3   3  -3  804.82   15.80
  -3  -3   3  830.72   16.00
  -3  -3   3  786.92   16.30
   2   3  -3  465.55    9.40
  -2  -3   3  476.45    9.70
  -1  -3   3   48.90    1.90
  -1  -3   3   54.79    1.90
   0   3  -3   70.49    2.20
   0  -3   3   73.09    2.10
   0  -3   3   71.39    2.40
  -1   3  -3  255.77    5.60
  -1   3  -3  252.97    6.70
   1  -3   3  249.18    5.80
  -2   3  -3  956.70   19.20
  -2   3  -3  981.10   18.50
  -2   3  -3  953.80   20.90
  -3   3  -3  283.17    8.90
  -3   3  -3  284.77    7.00
  -3   3  -3  277.97    6.40
  -4   3  -3    5.40    1.10
  -4   3  -3    3.20    0.70
  -4   3  -3    3.70    1.50
   4  -3   3    4.20    0.70
  -5   3  -3  217.88    5.70
   5  -3   3  220.98    5.30
   5  -3   3  219.18    5.00
   5  -3   3  209.58    6.00
   5  -3   3  217.18    5.10
   5  -3   3  216.38    5.20
   5  -3   3  212.78    5.20
  -6   3  -3   -0.80    0.50
   6  -3   3    0.70    0.60
   6  -3   3   -0.50    0.50
   6  -3   3    0.60    0.50
   6  -3   3   -0.40    0.50
   6  -3   3    0.90    0.90
   6  -3   3    1.10    0.70
   7  -3   3    0.70    0.60
   7  -3   3    0.90    0.80
   7  -3   3    0.10    0.40
  -8   3  -3    0.30    0.40
   8  -3   3    0.00    0.30
   8  -3   3    0.10    0.70
   8  -3   3    0.40    0.50
   9   2  -3    8.90    0.80
  -9  -2   3   10.30    0.80
   8   2  -3    0.90    0.60
   8   2  -3    1.30    0.70
  -8  -2   3    0.30    0.60
   7   2  -3    0.40    0.70
   7   2  -3   -0.90    0.90
  -7  -2   3    0.20    0.60
   6   2  -3    3.50    0.90
   6   2  -3    1.60    0.90
  -6  -2   3    1.60    0.70
   5   2  -3   96.69    3.10
  -5  -2   3   92.89    3.10
  -5  -2   3   95.09    3.60
   4   2  -3   23.70    1.30
  -4  -2   3   25.00    1.50
  -4  -2   3   24.70    1.60
   3   2  -3  563.94   11.10
  -3  -2   3  557.64   11.40
  -3  -2   3  538.15   11.10
  -2  -2   3   82.59    2.30
  -2  -2   3   74.49    2.40
   1   2  -3  131.79    3.20
  -1  -2   3  133.89    3.20
  -1  -2   3  129.49    3.30
   0   2  -3  299.47    6.30
   0   2  -3  292.77    6.20
   0  -2   3  298.17    6.30
  -1   2  -3  266.77    5.70
  -1   2  -3  264.17    6.60
   1  -2   3  261.57    5.80
  -2   2  -3  390.36    8.40
  -2   2  -3  413.86   10.00
  -2   2  -3  400.16    8.40
  -2   2  -3  400.76    8.70
  -3   2  -3  701.33   13.70
  -3   2  -3  670.93   14.10
  -3   2  -3  697.83   16.30
  -4   2  -3   27.40    1.90
  -4   2  -3   27.30    2.80
  -4   2  -3   23.90    1.40
   4  -2   3   25.50    1.30
  -5   2  -3   85.49    4.70
  -5   2  -3   83.69    7.20
  -5   2  -3   84.49    3.00
   5  -2   3   84.59    3.40
   5  -2   3   82.49    2.80
  -6   2  -3   54.99    2.50
   6  -2   3   56.49    2.30
   6  -2   3   54.39    2.80
   6  -2   3   55.89    2.00
   7  -2   3  109.99    3.20
   7  -2   3  111.99    4.00
   7  -2   3  108.99    3.00
   7  -2   3  111.59    3.30
  -8   2  -3   15.90    1.00
   8  -2   3   17.20    1.10
   8  -2   3   17.80    1.50
   8  -2   3   15.70    1.20
   9   1  -3    8.00    0.80
   9   1  -3    9.20    0.80
  -9  -1   3    8.40    0.80
   8   1  -3   31.80    1.60
   8   1  -3   33.10    1.70
  -8  -1   3   29.30    1.60
   7   1  -3    6.20    0.90
   7   1  -3    4.10    0.90
   7   1  -3    3.50    1.00
  -7  -1   3    4.60    0.90
   6   1  -3  117.59    3.60
   6   1  -3  112.89    3.30
   6   1  -3  114.99    3.50
  -6  -1   3  114.39    3.30
  -5  -1   3  827.72   17.40
  -5  -1   3  850.41   16.50
  -4  -1   3    0.40    0.50
   3   1  -3   16.00    1.00
  -3  -1   3   13.60    1.10
  -3  -1   3   13.60    1.00
   2   1  -3   56.99    1.70
  -2  -1   3   56.29    1.90
  -2  -1   3   55.79    1.70
   1   1  -3 1103.69   20.70
   1   1  -3 1111.69   20.40
  -1  -1   3 1102.99   20.70
   0   1  -3  564.74   11.10
   0  -1   3  562.64   10.90
  -1   1  -3   96.29    3.20
  -1   1  -3   97.19    2.60
  -1   1  -3  100.79    2.80
   1  -1   3  100.49    2.60
  -2   1  -3 4086.89   78.09
  -2   1  -3 4232.88   76.69
  -2   1  -3 4214.68   76.39
  -3   1  -3 1476.45   28.50
  -3   1  -3 1534.65   28.20
  -3   1  -3 1471.55   30.60
  -4   1  -3  509.25   10.70
  -4   1  -3  520.15   13.60
  -4   1  -3  511.35   11.30
  -5   1  -3   93.79    5.30
  -5   1  -3   94.99    3.80
   5  -1   3   96.79    3.60
  -6   1  -3  250.17    6.30
   6  -1   3  260.47    6.10
   6  -1   3  255.27    5.70
   6  -1   3  262.97    6.20
   6  -1   3  259.67    7.00
  -7   1  -3   42.60    2.00
   7  -1   3   41.90    2.00
   7  -1   3   45.90    2.60
   7  -1   3   44.70    2.00
   8  -1   3   68.59    2.20
   8  -1   3   64.59    2.10
   8  -1   3   68.49    2.70
   9   0  -3   -0.10    0.50
   9   0  -3   -0.30    0.50
  -9   0   3   -0.20    0.50
   8   0  -3   17.80    1.30
   8   0  -3   20.80    1.50
  -8   0   3   20.90    1.50
   7   0  -3   11.10    1.10
   7   0  -3    7.30    1.10
  -7   0   3    8.90    1.20
  -7   0   3    6.40    1.00
   6   0  -3    9.30    1.00
   6   0  -3    5.20    0.90
   6   0  -3    5.60    0.80
   6   0  -3    6.60    1.10
  -6   0   3    6.30    1.00
  -6   0   3    5.20    0.80
  -5   0   3   24.30    1.40
  -5   0   3   24.50    1.70
  -4   0   3   93.49    3.00
  -3   0   3   51.89    1.90
  -3   0   3   50.89    2.30
   2   0  -3  410.26    8.50
  -2   0   3  418.16    8.30
   1   0  -3  434.86    8.90
  -1   0   3  450.05    8.50
   0   0  -3  717.13   14.30
   0   0   3  745.73   13.70
  -1   0  -3   20.70    1.50
  -1   0  -3   22.70    1.00
  -1   0  -3   22.20    1.20
  -2   0  -3  968.30   18.60
  -2   0  -3  999.40   20.20
  -2   0  -3  974.70   18.70
  -3   0  -3    6.20    0.70
  -3   0  -3    4.50    1.10
  -3   0  -3    7.10    0.90
  -4   0  -3   38.90    3.00
  -4   0  -3   41.20    2.10
  -5   0  -3  374.56   11.50
  -5   0  -3  370.86    9.20
   5   0   3  370.16    8.90
  -6   0  -3  382.56    8.60
   6   0   3  375.86    9.20
   6   0   3  375.96    8.30
   6   0   3  382.06    8.30
  -7   0  -3   43.90    2.10
   7   0   3   46.20    2.00
   7   0   3   46.60    2.00
   7   0   3   46.20    2.60
   8   0   3  210.58    4.90
   8   0   3  210.58    4.80
   8   0   3  209.28    5.40
   9  -1  -3    4.50    0.70
   9  -1  -3    3.70    0.70
  -9   1   3    4.40    0.70
   8  -1  -3    1.80    0.70
   8  -1  -3    2.10    0.80
  -8   1   3    1.60    0.70
  -8   1   3    1.00    0.70
  -8   1   3    1.10    0.70
   7  -1  -3   40.00    1.70
   7  -1  -3   41.50    2.00
   7  -1  -3   43.10    1.90
  -7   1   3   41.00    2.10
  -7   1   3   42.80    2.00
   6  -1  -3   93.99    2.80
   6  -1  -3   87.59    2.60
   6  -1  -3   86.69    2.90
  -6   1   3   86.19    3.00
  -6   1   3   91.79    2.90
   5  -1  -3  312.17    6.70
  -5   1   3  296.47    6.90
  -5   1   3  307.37    7.00
  -5   1   3  291.07    7.40
  -4   1   3 2334.87   44.90
  -4   1   3 2269.07   43.10
  -4   1   3 2293.37   42.80
  -3   1   3  145.89    3.60
  -3   1   3  147.79    4.50
   2  -1  -3   42.40    1.90
  -2   1   3   41.80    1.40
   1  -1  -3   51.79    2.00
  -1   1   3   51.29    1.20
   0  -1  -3 3223.48   59.59
   0  -1  -3 3281.77   62.39
  -1  -1  -3 1148.99   22.50
  -1  -1  -3 1117.59   21.50
  -1  -1  -3 1162.68   21.10
  -2  -1  -3  186.48    4.10
  -2  -1  -3  180.18    4.30
  -2  -1  -3  187.08    5.50
  -3  -1  -3  142.79    5.00
  -3  -1  -3  141.69    3.80
  -3  -1  -3  143.09    3.70
  -4  -1  -3  739.93   15.30
  -4  -1  -3  757.32   17.60
  -5  -1  -3    4.70    1.30
  -5  -1  -3    5.10    1.50
   5   1   3    5.10    1.20
  -6  -1  -3   -0.30    0.70
   6   1   3    1.40    1.00
   6   1   3    1.80    0.80
   6   1   3    0.90    0.70
  -7  -1  -3    1.60    0.80
   7   1   3    3.20    0.80
   7   1   3    2.10    0.80
   7   1   3    0.90    0.90
  -8  -1  -3   -0.50    0.50
   8   1   3    0.70    0.60
   8   1   3    0.90    0.50
   8   1   3    1.00    0.60
   9  -2  -3    3.00    0.70
  -9   2   3    3.10    0.70
   8  -2  -3   10.90    1.10
   8  -2  -3   12.50    1.00
   8  -2  -3   10.70    1.10
  -8   2   3   13.80    1.30
  -8   2   3   10.60    1.10
  -8   2   3   11.90    1.10
   7  -2  -3   42.10    1.90
   7  -2  -3   40.00    1.80
   7  -2  -3   41.40    1.90
  -7   2   3   42.60    2.20
  -7   2   3   41.20    2.00
   6  -2  -3   64.49    2.40
   6  -2  -3   69.49    2.30
   6  -2  -3   72.39    2.40
   6  -2  -3   65.09    2.30
   6  -2  -3   66.89    2.40
   6  -2  -3   69.69    2.60
  -6   2   3   65.09    2.50
  -6   2   3   69.49    2.80
  -6   2   3   73.39    2.80
   5  -2  -3   29.50    1.50
  -5   2   3   27.70    3.10
  -5   2   3   24.10    1.70
  -5   2   3   29.70    1.70
  -4   2   3  114.19    3.20
  -4   2   3  113.29    4.70
  -4   2   3  113.39    3.40
   3  -2  -3  230.28    6.20
  -3   2   3  230.98    5.20
  -3   2   3  229.28    6.50
  -3   2   3  228.08    5.10
   2  -2  -3    1.80    0.80
  -2   2   3    2.40    0.50
   1  -2  -3  669.93   14.00
   1  -2  -3  684.13   13.00
   0  -2  -3  875.61   17.60
   0  -2  -3  869.21   16.60
  -1  -2  -3  531.95   11.50
  -1  -2  -3  500.25   10.30
  -2  -2  -3  336.17    8.40
  -2  -2  -3  323.47    7.10
   2   2   3  328.27    7.00
  -3  -2  -3  147.79    5.20
  -3  -2  -3  149.09    3.90
  -4  -2  -3  135.19    5.50
  -4  -2  -3  135.89    3.90
   4   2   3  138.69    4.10
  -5  -2  -3   14.30    1.50
  -5  -2  -3   17.00    1.30
   5   2   3   15.80    1.40
   5   2   3   18.30    1.90
   5   2   3   15.10    1.40
  -6  -2  -3    5.60    1.00
   6   2   3    5.20    1.20
   6   2   3    5.70    0.90
   6   2   3    5.90    1.10
  -7  -2  -3   45.60    2.10
   7   2   3   44.20    2.10
   7   2   3   44.80    2.30
   7   2   3   45.70    1.90
  -8  -2  -3   53.09    2.00
   8   2   3   52.89    1.90
   9  -3  -3    0.90    0.50
  -9   3   3    1.50    0.60
  -9   3   3    1.00    0.50
   8  -3  -3  107.89    2.80
   8  -3  -3  103.79    2.70
   8  -3  -3  108.59    2.90
   8  -3  -3   98.39    3.00
  -8   3   3  105.39    3.00
  -8   3   3  101.09    3.30
   7  -3  -3  103.09    3.10
   7  -3  -3  108.49    3.20
   7  -3  -3  107.89    3.10
   7  -3  -3  111.19    3.60
   7  -3  -3  108.99    3.30
   7  -3  -3  110.19    3.00
  -7   3   3  108.99    3.70
  -7   3   3  109.29    3.40
   6  -3  -3   49.20    2.40
   6  -3  -3   48.40    2.00
   6  -3  -3   47.10    2.10
   6  -3  -3   50.99    1.90
   6  -3  -3   47.80    1.90
   6  -3  -3   48.60    2.00
   6  -3  -3   48.20    1.90
   6  -3  -3   49.20    2.10
  -6   3   3   48.40    2.10
  -6   3   3   48.00    2.40
   5  -3  -3    2.10    0.70
   5  -3  -3    3.10    0.90
  -5   3   3    2.30    1.50
  -5   3   3    3.20    0.80
   4  -3  -3   95.29    2.70
  -4   3   3   93.89    2.90
  -4   3   3   94.49    4.50
   3  -3  -3  253.77    7.20
  -3   3   3  259.97    7.60
  -3   3   3  255.37    5.60
   2  -3  -3   51.99    2.60
  -2   3   3   52.89    1.60
   1  -3  -3   59.99    2.70
   1  -3  -3   62.59    2.00
   0  -3  -3  950.10   19.10
   0  -3  -3  905.41   17.80
  -1  -3  -3  124.39    3.40
  -1  -3  -3  133.49    4.50
   1   3   3  135.19    3.10
  -2  -3  -3  121.99    3.50
  -2  -3  -3  128.09    4.60
   2   3   3  127.69    3.30
  -3  -3  -3  222.68    7.00
  -3  -3  -3  227.08    5.60
   3   3   3  224.08    6.00
  -4  -3  -3   80.59    3.00
  -4  -3  -3   77.59    4.10
   4   3   3   87.69    3.40
  -5  -3  -3   27.80    1.60
  -5  -3  -3   25.20    1.70
  -5  -3  -3   26.10    1.60
  -5  -3  -3   25.40    1.60
   5   3   3   25.70    2.20
   5   3   3   23.90    1.60
  -6  -3  -3   38.00    1.70
  -6  -3  -3   39.00    2.10
   6   3   3   41.70    1.90
   6   3   3   39.90    2.10
  -7  -3  -3    0.50    0.70
   7   3   3   -0.30    0.70
  -8  -3  -3    3.90    0.70
   8   3   3    3.70    0.70
   8  -4  -3   25.60    1.20
   8  -4  -3   25.90    1.20
   8  -4  -3   25.60    1.40
   8  -4  -3   24.80    1.50
  -8   4   3   29.90    1.70
  -8   4   3   26.60    1.40
   7  -4  -3   -0.40    0.50
   7  -4  -3    0.30    0.60
   7  -4  -3    0.20    0.60
   7  -4  -3    0.70    0.70
   7  -4  -3    0.00    0.60
   7  -4  -3    0.40    0.60
   7  -4  -3    0.70    0.60
  -7   4   3    0.10    0.60
  -7   4   3    0.00    0.80
  -7   4   3   -0.50    0.60
   6  -4  -3   33.10    2.10
   6  -4  -3   31.80    1.70
   6  -4  -3   32.20    1.70
   6  -4  -3   33.80    1.50
   6  -4  -3   33.30    1.70
   6  -4  -3   35.30    1.60
   6  -4  -3   36.10    1.80
   6  -4  -3   30.30    1.60
  -6   4   3   32.10    1.80
  -6   4   3   30.40    2.00
   5  -4  -3    1.00    0.60
   5  -4  -3    1.80    0.70
   5  -4  -3    0.50    0.50
   5  -4  -3    1.50    0.70
   5  -4  -3   -0.20    0.50
   5  -4  -3    1.20    0.60
   5  -4  -3    1.00    0.80
  -5   4   3    0.60    0.60
   4  -4  -3    0.60    0.70
   4  -4  -3    0.20    0.40
  -4   4   3    0.20    0.50
  -4   4   3    0.40    1.00
   3  -4  -3  177.08    6.10
   3  -4  -3  173.98    4.20
  -3   4   3  178.78    6.40
   2  -4  -3   29.90    2.20
   1  -4  -3   28.80    1.40
   1  -4  -3   29.40    2.10
   0  -4  -3  117.49    3.30
   0  -4  -3  118.49    4.40
   0   4   3  125.39    2.80
  -1  -4  -3  506.55   12.00
  -1  -4  -3  497.55   10.50
   1   4   3  506.95   10.00
  -2  -4  -3  340.77    7.70
  -2  -4  -3  328.87    9.10
   2   4   3  328.87    7.30
  -3  -4  -3   49.60    2.40
  -3  -4  -3   50.99    3.20
   3   4   3   50.09    2.60
  -4  -4  -3   36.00    1.80
  -4  -4  -3   36.30    1.80
  -4  -4  -3   35.70    1.80
  -4  -4  -3   40.10    2.20
  -4  -4  -3   32.90    1.80
  -4  -4  -3   41.20    2.00
  -4  -4  -3   32.70    1.70
   4   4   3   41.40    2.70
   4   4   3   35.10    2.30
  -5  -4  -3   46.40    2.10
  -5  -4  -3   51.79    2.20
  -5  -4  -3   46.30    2.50
  -5  -4  -3   51.69    2.30
  -5  -4  -3   49.60    2.10
   5   4   3   52.29    2.50
  -6  -4  -3    7.60    0.90
  -6  -4  -3    8.40    1.10
  -6  -4  -3    5.20    1.00
   6   4   3    5.90    1.10
  -7  -4  -3   24.10    1.50
   7   4   3   25.00    1.40
   7   4   3   21.90    1.50
  -8  -4  -3    3.60    0.70
   8   4   3    3.90    0.70
   8  -5  -3    5.10    0.60
   8  -5  -3    5.90    0.60
   8  -5  -3    5.90    0.70
   8  -5  -3    5.80    0.80
   8  -5  -3    5.90    0.60
  -8   5   3    7.10    0.70
   7  -5  -3  157.18    3.90
   7  -5  -3  164.88    4.10
   7  -5  -3  163.28    3.90
   7  -5  -3  158.68    4.50
   7  -5  -3  159.78    4.10
   7  -5  -3  157.18    4.10
  -7   5   3  159.68    4.00
  -7   5   3  151.28    4.60
  -7   5   3  162.48    4.60
   6  -5  -3  299.17    6.80
   6  -5  -3  301.17    6.80
   6  -5  -3  299.47    6.90
   6  -5  -3  291.77    7.40
   6  -5  -3  302.57    7.10
   6  -5  -3  299.47    6.70
   6  -5  -3  298.27    6.60
  -6   5   3  297.07    7.50
   5  -5  -3   -0.70    0.50
   5  -5  -3    0.30    0.60
   5  -5  -3   -0.30    0.50
   5  -5  -3    0.00    0.70
   5  -5  -3    0.20    0.60
   5  -5  -3   -0.40    0.50
   5  -5  -3    0.50    0.50
  -5   5   3   -0.20    0.50
   4  -5  -3  145.19    4.00
   4  -5  -3  152.98    4.00
   4  -5  -3  154.68    4.60
   4  -5  -3  146.89    3.70
   4  -5  -3  151.18    3.90
   4  -5  -3  146.49    3.90
   4  -5  -3  150.98    4.00
  -4   5   3  152.78    4.20
   3  -5  -3   41.20    2.10
   3  -5  -3   41.40    1.60
  -3   5   3   40.80    3.30
  -3   5   3   42.60    1.70
   2  -5  -3   11.70    1.80
   1  -5  -3   16.80    1.90
   1  -5  -3   17.30    1.30
   0  -5  -3   60.39    3.30
   0  -5  -3   61.39    2.40
  -1  -5  -3  281.17    6.80
  -1  -5  -3  279.07    8.30
   1   5   3  282.67    6.10
  -2  -5  -3  490.25   10.60
  -2  -5  -3  466.25   10.10
  -2  -5  -3  466.55   12.20
   2   5   3  483.95   10.10
  -3  -5  -3   67.89    2.50
  -3  -5  -3   70.19    2.50
  -3  -5  -3   68.39    2.50
  -3  -5  -3   69.29    2.50
  -3  -5  -3   65.99    2.40
  -3  -5  -3   64.39    2.40
  -3  -5  -3   71.99    3.00
   3   5   3   69.89    3.30
  -4  -5  -3   13.00    1.20
  -4  -5  -3   12.20    1.30
  -4  -5  -3   11.20    1.30
  -4  -5  -3    9.10    1.10
  -4  -5  -3    9.70    1.40
  -4  -5  -3    9.20    1.10
  -4  -5  -3    9.50    1.10
   4   5   3   10.80    1.70
  -5  -5  -3   54.19    2.30
  -5  -5  -3   53.09    2.20
  -5  -5  -3   55.19    2.20
  -5  -5  -3   52.39    2.20
  -5  -5  -3   53.59    2.20
  -5  -5  -3   49.50    2.60
  -5  -5  -3   53.59    2.20
   5   5   3   56.39    2.60
  -6  -5  -3    2.00    0.80
  -6  -5  -3    1.90    0.60
  -6  -5  -3    2.70    0.70
   6   5   3    2.00    0.80
  -7  -5  -3   -0.20    0.60
   7   5   3   -0.40    0.60
   7   5   3    0.10    0.50
   7  -6  -3   21.70    1.10
   7  -6  -3   20.70    1.20
   7  -6  -3   22.20    1.30
   7  -6  -3   21.20    1.50
   7  -6  -3   23.50    1.10
  -7   6   3   20.20    1.50
   6  -6  -3    5.50    1.00
   6  -6  -3    6.80    0.80
   6  -6  -3    8.00    0.90
   6  -6  -3    7.30    0.90
   6  -6  -3    6.20    0.80
   6  -6  -3    7.60    0.90
  -6   6   3    6.40    1.00
  -6   6   3    8.20    1.20
   5  -6  -3   26.60    1.40
   5  -6  -3   31.90    2.00
   5  -6  -3   25.40    1.40
   5  -6  -3   28.50    1.50
   5  -6  -3   25.60    1.50
   5  -6  -3   28.20    1.60
  -5   6   3   23.60    1.70
   4  -6  -3    0.80    0.50
   4  -6  -3    0.20    0.50
   4  -6  -3   -0.60    0.50
   4  -6  -3    0.50    0.80
   4  -6  -3    0.60    0.60
   4  -6  -3   -0.80    0.50
   4  -6  -3    0.30    0.50
  -4   6   3   -0.60    0.40
   3  -6  -3   37.00    1.80
   3  -6  -3   35.90    1.80
   3  -6  -3   38.20    1.70
   3  -6  -3   37.60    2.20
   3  -6  -3   36.10    1.70
  -3   6   3   39.60    1.70
   2  -6  -3    2.00    0.70
   2  -6  -3    2.30    0.70
   2  -6  -3    1.20    0.60
   2  -6  -3    0.90    0.70
   2  -6  -3    1.10    0.70
   1  -6  -3   37.00    1.90
   1  -6  -3   34.90    2.80
   1  -6  -3   32.90    1.70
   1  -6  -3   37.70    1.80
   1  -6  -3   32.10    1.90
   1  -6  -3   36.10    1.80
   0  -6  -3   75.79    4.00
   0  -6  -3   77.69    2.60
   0  -6  -3   79.69    2.70
   0  -6  -3   71.99    2.80
   0  -6  -3   76.29    2.70
   0  -6  -3   75.59    2.90
  -1  -6  -3   29.90    1.80
  -1  -6  -3   30.10    1.90
  -1  -6  -3   30.20    1.60
  -1  -6  -3   29.30    1.50
  -1  -6  -3   29.30    1.60
  -1  -6  -3   27.80    1.60
  -1  -6  -3   27.70    1.60
  -1  -6  -3   26.00    3.40
  -1  -6  -3   27.30    1.90
   1   6   3   29.10    1.40
  -2  -6  -3    4.80    1.00
  -2  -6  -3    5.00    0.90
  -2  -6  -3    5.90    1.20
  -2  -6  -3    3.10    0.90
  -2  -6  -3    5.50    0.90
  -2  -6  -3    4.40    0.90
   2   6   3    3.90    0.80
  -3  -6  -3  207.88    5.40
  -3  -6  -3  218.38    5.30
  -3  -6  -3  211.38    5.20
  -3  -6  -3  209.08    5.20
  -3  -6  -3  208.28    5.30
  -3  -6  -3  207.98    5.10
  -3  -6  -3  211.78    6.00
  -4  -6  -3   42.60    2.10
  -4  -6  -3   43.90    2.00
  -4  -6  -3   42.20    2.00
  -4  -6  -3   44.80    2.00
  -4  -6  -3   40.50    2.00
  -4  -6  -3   44.50    2.50
  -4  -6  -3   43.30    2.00
   4   6   3   45.00    2.70
  -5  -6  -3    5.60    0.90
  -5  -6  -3    4.50    0.90
  -5  -6  -3    7.60    1.00
  -5  -6  -3    5.90    0.90
  -5  -6  -3    5.20    0.90
  -5  -6  -3    5.90    0.90
   5   6   3    7.00    1.10
  -6  -6  -3   15.00    1.20
  -6  -6  -3   16.70    1.20
  -6  -6  -3   17.40    1.10
   6   6   3   18.60    1.40
   6  -7  -3   12.00    0.80
   6  -7  -3   11.80    1.20
   6  -7  -3   10.80    0.90
   6  -7  -3   12.10    1.00
   6  -7  -3   12.90    1.00
  -6   7   3   13.40    1.20
   5  -7  -3   51.09    1.90
   5  -7  -3   53.29    1.90
   5  -7  -3   50.09    2.00
   5  -7  -3   52.09    1.80
   5  -7  -3   54.59    1.90
   5  -7  -3   51.89    2.40
   4  -7  -3    0.40    0.80
   4  -7  -3   -0.20    0.50
   4  -7  -3    1.20    0.50
   4  -7  -3    0.20    0.60
  -4   7   3   -0.10    0.40
   3  -7  -3   94.09    2.90
   3  -7  -3   96.09    3.00
   3  -7  -3   96.69    3.00
   3  -7  -3   99.79    2.90
   3  -7  -3   93.29    3.50
  -3   7   3  103.49    3.00
   2  -7  -3   24.60    1.60
   2  -7  -3   25.00    1.40
   2  -7  -3   24.40    1.50
   2  -7  -3   26.80    1.90
   2  -7  -3   24.80    2.50
   1  -7  -3    6.60    0.80
   1  -7  -3    5.90    0.90
   1  -7  -3    6.30    1.00
   1  -7  -3    5.10    1.10
   1  -7  -3    5.40    1.00
   0  -7  -3   13.10    1.30
   0  -7  -3   11.40    1.20
   0  -7  -3   10.00    1.00
   0  -7  -3    9.50    1.10
   0  -7  -3   13.20    1.40
   0  -7  -3   11.20    1.30
  -1  -7  -3   -0.40    0.60
  -1  -7  -3   -0.50    0.70
  -1  -7  -3   -0.20    0.70
  -1  -7  -3    1.50    0.70
  -1  -7  -3    1.20    0.70
  -1  -7  -3    0.40    0.70
   1   7   3    0.00    0.50
  -2  -7  -3  123.99    3.70
  -2  -7  -3  130.99    4.00
  -2  -7  -3  133.49    4.40
  -2  -7  -3  134.59    3.90
  -2  -7  -3  137.49    3.90
  -2  -7  -3  136.29    3.80
   2   7   3  147.59    4.50
  -3  -7  -3   25.40    1.60
  -3  -7  -3   26.50    1.50
  -3  -7  -3   26.20    1.60
  -3  -7  -3   27.50    1.70
  -3  -7  -3   24.00    2.00
  -3  -7  -3   25.10    1.70
   3   7   3   23.00    2.50
  -4  -7  -3   18.50    1.40
  -4  -7  -3   20.40    1.60
  -4  -7  -3   22.10    1.40
  -4  -7  -3   19.40    1.40
  -4  -7  -3   18.90    1.30
  -4  -7  -3   17.30    1.40
   4   7   3   22.30    1.80
  -5  -7  -3   96.29    2.70
  -5  -7  -3   94.79    2.80
  -5  -7  -3  100.09    2.80
  -5  -7  -3   96.49    2.80
  -5  -7  -3   97.09    2.80
  -5  -7  -3   97.49    2.80
   5   7   3   99.59    3.00
  -6  -7  -3    2.90    0.60
  -6  -7  -3    3.80    0.70
  -6  -7  -3    4.10    0.70
   6   7   3    4.50    0.70
   5  -8  -3    4.30    0.60
   5  -8  -3    3.70    0.60
   5  -8  -3    5.00    0.60
   5  -8  -3    4.30    0.80
   4  -8  -3   28.80    1.40
   4  -8  -3   29.30    1.40
   4  -8  -3   29.30    1.80
   4  -8  -3   30.40    1.40
   3  -8  -3   13.10    1.40
   3  -8  -3   17.60    1.30
   3  -8  -3   13.90    1.10
   2  -8  -3   45.40    1.80
   2  -8  -3   46.80    2.40
   2  -8  -3   43.20    1.90
   2  -8  -3   43.10    1.90
   1  -8  -3    6.80    0.80
   1  -8  -3    7.60    1.00
   1  -8  -3    5.50    0.90
   1  -8  -3    6.50    0.90
   1  -8  -3    7.40    1.20
   0  -8  -3  269.47    6.10
   0  -8  -3  252.97    6.00
   0  -8  -3  265.87    6.20
   0  -8  -3  260.57    6.10
  -1  -8  -3   98.49    3.10
  -1  -8  -3  101.09    3.10
  -1  -8  -3  102.29    3.30
  -1  -8  -3  101.79    3.10
   1   8   3  104.09    3.30
  -2  -8  -3   -0.30    0.60
  -2  -8  -3   -0.30    0.50
  -2  -8  -3    0.30    0.70
  -2  -8  -3    0.60    0.70
  -2  -8  -3    0.60    0.60
   2   8   3   -0.10    1.00
  -3  -8  -3    1.00    0.70
  -3  -8  -3    0.70    0.60
  -3  -8  -3    1.00    0.60
  -3  -8  -3    0.80    0.70
  -3  -8  -3    2.00    0.70
   3   8   3    0.70    0.80
  -4  -8  -3    1.00    0.50
  -4  -8  -3    0.10    0.60
  -4  -8  -3   -0.30    0.60
  -4  -8  -3   -0.20    0.50
  -4  -8  -3    0.50    0.50
   4  -9  -3    0.90    0.40
   4  -9  -3    0.90    0.50
   3  -9  -3    0.60    0.40
   3  -9  -3   -0.30    0.50
   3  -9  -3   -1.20    0.70
   2  -9  -3    0.30    0.50
   1  -9  -3   14.00    1.00
   1  -9  -3   13.00    1.00
   0  -9  -3   81.89    2.40
   0  -9  -3   85.19    2.50
   0  -9  -3   83.89    2.60
  -1  -9  -3   53.19    1.90
  -1  -9  -3   56.29    2.00
  -1  -9  -3   52.79    1.80
  -1  -9  -3   55.79    1.90
  -2  -9  -3    3.30    0.60
  -2  -9  -3    3.40    0.60
  -2  -9  -3    2.30    0.60
  -2  -9  -3    3.40    0.70
  -3  -9  -3    3.00    0.50
  -3  -9  -3    3.30    0.70
  -3  -9  -3    3.00    0.70
  -3  -9  -3    3.20    0.60
  -3  -9   4   -0.40    0.50
  -3  -9   4    0.40    0.50
  -3  -9   4    0.50    0.50
  -2  -9   4    0.20    0.40
  -2  -9   4   -0.30    0.50
  -2  -9   4    0.00    0.50
  -1  -9   4   10.20    0.90
  -1  -9   4    9.40    0.80
   0  -9   4   12.00    1.00
   1  -9   4   41.20    1.40
   2  -9   4   30.70    1.20
   3  -9   4    7.80    0.60
   3  -9   4    6.30    0.60
  -5  -8   4    3.20    0.60
  -5  -8   4    3.40    0.70
  -5  -8   4    2.80    0.60
   4   8  -4    0.90    0.60
  -4  -8   4    1.20    0.60
  -4  -8   4    2.20    0.70
  -4  -8   4    1.10    0.60
   3   8  -4    0.00    0.50
  -3  -8   4    0.20    0.60
  -3  -8   4    0.30    0.60
  -3  -8   4    0.20    0.50
   2   8  -4    7.90    0.90
  -2  -8   4    7.20    0.80
  -2  -8   4    6.90    0.90
  -2  -8   4    6.30    0.90
  -2  -8   4    5.90    0.80
   1   8  -4    3.20    0.70
  -1  -8   4    1.80    0.80
  -1  -8   4    3.30    0.70
  -1  -8   4    3.30    0.70
  -1  -8   4    2.40    0.70
   0   8  -4   30.20    1.50
   0  -8   4   28.40    1.60
   0  -8   4   28.50    1.50
   0  -8   4   30.70    1.50
  -1   8  -4   11.40    1.20
   1  -8   4   11.10    1.00
   1  -8   4    8.30    0.90
   1  -8   4   11.60    1.10
   1  -8   4   11.30    1.10
  -2   8  -4   19.90    1.30
   2  -8   4   21.50    1.30
   2  -8   4   21.10    1.40
   2  -8   4   21.80    1.30
   3  -8   4  220.08    5.10
   3  -8   4  231.18    5.10
   3  -8   4  222.58    5.30
   3  -8   4  227.78    5.00
   4  -8   4   34.70    1.40
   4  -8   4   33.10    1.50
   4  -8   4   33.30    1.40
   4  -8   4   32.80    1.30
   6   7  -4   31.70    1.80
  -6  -7   4   34.80    1.30
  -6  -7   4   36.30    1.40
  -6  -7   4   33.90    1.50
   5   7  -4   42.20    2.10
  -5  -7   4   42.80    1.80
  -5  -7   4   41.50    1.80
  -5  -7   4   40.10    1.80
  -5  -7   4   41.30    1.70
   4   7  -4   21.00    1.50
  -4  -7   4   20.00    1.40
  -4  -7   4   21.10    1.30
  -4  -7   4   19.90    1.30
  -4  -7   4   20.00    1.40
  -4  -7   4   21.70    1.50
   3   7  -4   32.80    1.80
   3   7  -4   29.50    2.20
  -3  -7   4   27.80    1.50
  -3  -7   4   30.90    1.60
  -3  -7   4   30.00    1.60
  -3  -7   4   30.40    1.70
  -3  -7   4   27.70    1.70
   2   7  -4   40.30    1.90
   2   7  -4   40.40    2.40
  -2  -7   4   41.70    2.00
  -2  -7   4   38.80    1.80
  -2  -7   4   37.20    1.80
  -2  -7   4   38.00    1.80
   1   7  -4   88.69    3.50
   1   7  -4   92.39    2.90
  -1  -7   4   91.49    3.00
  -1  -7   4   86.39    2.80
  -1  -7   4   89.29    2.80
  -1  -7   4   90.49    2.80
   0   7  -4  110.39    3.10
   0  -7   4  102.39    3.30
   0  -7   4  108.59    3.20
   0  -7   4  102.09    3.10
   0  -7   4  105.09    3.10
   0  -7   4  109.09    3.30
  -1   7  -4  113.99    3.40
   1  -7   4  112.19    3.50
   1  -7   4  114.29    3.30
   1  -7   4  115.29    3.40
   1  -7   4  115.59    3.30
  -2   7  -4  122.39    3.90
   2  -7   4  128.79    3.80
   2  -7   4  128.49    3.60
   2  -7   4  127.99    3.60
   2  -7   4  124.39    3.50
   2  -7   4  123.39    3.50
  -3   7  -4   21.40    1.40
   3  -7   4   25.00    1.40
   3  -7   4   24.30    1.40
   3  -7   4   20.60    1.50
   3  -7   4   23.70    1.60
  -4   7  -4    7.50    1.00
   4  -7   4    6.80    0.90
   4  -7   4    6.10    0.90
   4  -7   4    5.40    0.70
   4  -7   4    6.80    0.80
   5  -7   4   11.50    1.00
   5  -7   4    9.80    0.80
   5  -7   4   12.20    0.90
   5  -7   4    9.70    1.00
   7   6  -4    3.80    0.90
   7   6  -4    4.50    0.60
   6   6  -4   19.20    1.60
   6   6  -4   22.60    1.30
  -6  -6   4   19.80    1.30
  -6  -6   4   23.70    1.40
  -6  -6   4   23.70    1.20
   5   6  -4   16.80    1.50
   5   6  -4   16.30    1.60
  -5  -6   4   17.90    1.50
  -5  -6   4   20.90    1.40
  -5  -6   4   15.90    1.40
  -5  -6   4   17.60    1.40
  -5  -6   4   19.00    1.30
   4   6  -4   53.19    2.70
   4   6  -4   49.30    2.40
  -4  -6   4   46.40    2.00
  -4  -6   4   47.60    2.20
  -4  -6   4   48.60    2.10
  -4  -6   4   47.50    2.20
  -4  -6   4   46.60    2.50
  -4  -6   4   49.80    2.00
   3   6  -4   24.60    1.60
   3   6  -4   28.10    2.10
  -3  -6   4   24.40    1.60
  -3  -6   4   23.80    1.60
  -3  -6   4   24.00    1.90
  -3  -6   4   23.90    1.50
  -3  -6   4   25.80    1.60
  -3  -6   4   25.30    1.50
   2   6  -4   21.70    1.80
   2   6  -4   22.70    1.40
  -2  -6   4   21.70    1.40
  -2  -6   4   21.20    1.70
  -2  -6   4   20.90    1.40
  -2  -6   4   20.00    1.50
  -2  -6   4   23.10    1.50
   1   6  -4   12.50    1.50
   1   6  -4   10.60    1.00
  -1  -6   4   13.60    1.30
  -1  -6   4   11.30    1.10
  -1  -6   4   13.50    1.30
  -1  -6   4   13.70    1.50
  -1  -6   4   11.40    1.20
  -1  -6   4   11.70    1.10
   0   6  -4    0.50    0.80
   0   6  -4    0.40    0.50
   0  -6   4    1.70    0.70
   0  -6   4    0.10    0.60
   0  -6   4   -0.30    0.60
   0  -6   4    1.10    0.60
   0  -6   4    1.00    0.70
  -1   6  -4   15.50    1.20
   1  -6   4   15.70    1.30
   1  -6   4   13.20    1.20
   1  -6   4   11.30    1.20
   1  -6   4   15.60    1.40
   1  -6   4   14.00    1.20
   1  -6   4   16.10    1.40
  -2   6  -4   78.19    2.90
   2  -6   4   75.09    2.60
   2  -6   4   71.79    2.70
   2  -6   4   72.49    2.50
   2  -6   4   72.29    2.60
   2  -6   4   73.89    2.50
  -3   6  -4    6.90    1.00
   3  -6   4    5.10    1.00
   3  -6   4    5.30    1.00
   3  -6   4    6.80    0.90
   3  -6   4    5.50    0.80
   3  -6   4    6.20    0.90
  -4   6  -4    2.80    0.80
   4  -6   4    2.80    0.80
   4  -6   4    2.20    0.80
   4  -6   4    4.40    0.80
   4  -6   4    3.50    0.70
  -5   6  -4   59.99    2.40
   5  -6   4   62.19    2.10
   5  -6   4   65.29    2.30
   5  -6   4   65.49    2.40
   5  -6   4   63.19    2.10
   6  -6   4   42.20    1.60
   6  -6   4   44.80    1.50
   6  -6   4   43.20    1.50
   6  -6   4   41.50    1.90
   6  -6   4   46.10    1.70
   7   5  -4    0.10    0.50
   7   5  -4    0.60    0.70
  -7  -5   4   -0.20    0.40
   6   5  -4   53.29    2.20
   6   5  -4   50.39    2.50
  -6  -5   4   50.99    2.00
  -6  -5   4   51.69    2.10
  -6  -5   4   50.79    2.00
   5   5  -4   63.69    2.80
   5   5  -4   61.09    2.50
   5   5  -4   61.39    2.90
  -5  -5   4   68.19    2.40
  -5  -5   4   68.19    2.60
  -5  -5   4   68.79    2.70
  -5  -5   4   64.99    2.40
  -5  -5   4   64.89    2.30
   4   5  -4  116.89    4.00
   4   5  -4  115.79    3.70
  -4  -5   4  111.49    3.90
  -4  -5   4  113.49    3.40
  -4  -5   4  113.99    3.50
  -4  -5   4  110.69    3.50
  -4  -5   4  113.19    3.30
  -4  -5   4  110.39    3.30
   3   5  -4    5.40    0.90
   3   5  -4    5.20    1.20
  -3  -5   4    9.10    1.10
  -3  -5   4    6.70    0.90
  -3  -5   4    4.70    0.90
  -3  -5   4    6.10    0.90
  -3  -5   4    6.40    1.00
  -3  -5   4    7.10    1.20
   2   5  -4   10.40    1.00
   2   5  -4    9.60    1.20
  -2  -5   4    9.70    1.10
  -2  -5   4   10.20    1.40
  -2  -5   4    8.40    1.10
   1   5  -4    1.20    0.80
   1   5  -4    1.50    0.50
  -1  -5   4    2.10    0.70
  -1  -5   4    1.60    0.80
  -1  -5   4    2.10    0.80
   0   5  -4  615.14   12.10
   0   5  -4  618.04   12.80
   0  -5   4  605.94   13.30
   0  -5   4  595.24   12.60
  -1   5  -4    8.40    1.20
  -1   5  -4    4.80    1.10
  -1   5  -4    7.50    0.80
   1  -5   4    4.70    0.90
   1  -5   4    5.50    1.10
  -2   5  -4  123.29    3.70
   2  -5   4  120.79    3.50
   2  -5   4  118.29    3.30
   2  -5   4  120.99    3.60
  -3   5  -4  338.87    7.80
   3  -5   4  317.67    7.40
   3  -5   4  324.47    7.40
   3  -5   4  320.37    7.10
   3  -5   4  315.97    7.10
   3  -5   4  308.67    7.00
  -4   5  -4  138.29    4.10
   4  -5   4  138.39    4.00
   4  -5   4  135.89    3.70
   4  -5   4  136.09    4.00
   4  -5   4  133.29    3.70
  -5   5  -4   25.10    1.70
   5  -5   4   24.20    1.40
   5  -5   4   27.90    1.40
   5  -5   4   24.00    1.80
   5  -5   4   24.60    1.50
   5  -5   4   25.10    1.40
   5  -5   4   24.10    1.60
  -6   5  -4   21.30    1.50
   6  -5   4   21.80    1.20
   6  -5   4   21.30    1.40
   6  -5   4   22.20    1.20
   6  -5   4   22.00    1.30
   6  -5   4   23.70    1.30
   6  -5   4   22.50    1.70
   7  -5   4    0.90    0.50
   7  -5   4    1.00    0.40
   7  -5   4    2.10    0.50
   7  -5   4    0.30    0.60
   7  -5   4    0.90    0.40
   8   4  -4    1.10    0.70
   8   4  -4    1.70    0.60
  -8  -4   4    0.90    0.50
   7   4  -4   77.79    2.60
   7   4  -4   79.89    3.00
  -7  -4   4   78.59    2.50
   6   4  -4    2.60    1.00
   6   4  -4    3.00    0.90
  -6  -4   4    4.30    0.80
   5   4  -4   25.60    1.80
   5   4  -4   25.40    1.90
   5   4  -4   27.20    1.70
  -5  -4   4   22.30    1.60
  -5  -4   4   26.30    1.60
  -5  -4   4   24.90    1.50
  -5  -4   4   24.00    1.70
   4   4  -4  113.99    3.60
   4   4  -4  109.69    3.70
  -4  -4   4  114.49    3.80
  -4  -4   4  108.59    3.50
  -4  -4   4  108.59    3.40
  -4  -4   4  116.69    3.40
  -4  -4   4  110.29    3.20
  -4  -4   4  115.29    4.30
   3   4  -4  128.19    3.60
   3   4  -4  126.19    3.80
  -3  -4   4  124.09    3.60
  -3  -4   4  127.89    4.20
  -3  -4   4  123.69    3.80
   2   4  -4  368.56    8.30
   2   4  -4  366.76    7.90
  -2  -4   4  372.16    8.60
  -2  -4   4  385.56    8.30
  -2  -4   4  361.76    8.10
   1   4  -4  287.17    6.10
   1   4  -4  278.17    6.50
  -1  -4   4  278.27    6.50
  -1  -4   4  282.97    6.90
   0   4  -4   73.79    2.20
   0   4  -4   76.19    2.60
   0  -4   4   72.79    2.80
  -1   4  -4    5.30    0.70
  -1   4  -4    5.80    1.00
   1  -4   4    5.20    0.80
   1  -4   4    6.80    1.10
  -2   4  -4  371.76    9.10
  -2   4  -4  374.46    8.30
   2  -4   4  371.76    8.20
  -3   4  -4   19.40    1.90
  -3   4  -4   18.70    1.50
   3  -4   4   22.20    1.40
  -4   4  -4  173.58    4.80
   4  -4   4  175.88    4.40
   4  -4   4  177.48    4.30
   4  -4   4  166.68    5.00
   4  -4   4  169.68    4.50
   4  -4   4  178.08    4.30
   4  -4   4  179.08    4.70
   4  -4   4  169.78    4.40
  -5   4  -4   26.20    1.70
  -5   4  -4   25.70    1.70
   5  -4   4   31.30    1.60
   5  -4   4   28.20    1.50
   5  -4   4   26.80    2.00
   5  -4   4   24.50    1.40
   5  -4   4   28.60    1.70
   5  -4   4   26.80    1.40
   5  -4   4   27.70    1.60
  -6   4  -4    1.40    0.70
   6  -4   4    0.60    0.50
   6  -4   4    0.20    0.50
   6  -4   4    0.40    0.80
   6  -4   4   -0.20    0.50
   6  -4   4    0.60    0.60
   6  -4   4    0.80    0.60
   7  -4   4    1.30    0.50
   7  -4   4    1.70    0.50
   7  -4   4    1.10    0.70
   8   3  -4   56.49    2.20
   8   3  -4   52.99    2.00
  -8  -3   4   54.19    1.90
   7   3  -4   98.99    3.10
   7   3  -4   99.49    3.40
  -7  -3   4   94.49    3.00
   6   3  -4    1.10    0.80
   6   3  -4    0.70    0.90
  -6  -3   4   -0.30    0.60
   5   3  -4    5.40    1.10
   5   3  -4    2.80    0.80
   5   3  -4    5.30    1.00
  -5  -3   4    3.20    1.00
  -5  -3   4    4.50    0.80
  -5  -3   4    3.00    0.90
   4   3  -4   21.10    1.40
   4   3  -4   21.70    1.50
  -4  -3   4   23.10    1.40
  -4  -3   4   21.70    1.70
  -4  -3   4   18.50    1.40
  -4  -3   4   22.70    1.60
   3   3  -4    6.10    0.80
   3   3  -4    6.50    1.00
  -3  -3   4    6.40    1.00
  -3  -3   4    7.70    1.00
   2   3  -4 1029.90   20.40
   2   3  -4 1065.49   20.20
  -2  -3   4 1044.80   20.80
  -2  -3   4 1087.49   20.50
   1   3  -4  295.97    6.30
   1   3  -4  289.47    6.60
  -1  -3   4  303.77    6.80
   0   3  -4  418.86    9.00
   0   3  -4  430.16    8.60
   0  -3   4  426.66    9.20
  -1   3  -4 2290.77   43.10
  -1   3  -4 2340.67   43.40
   1  -3   4 2341.97   43.60
  -2   3  -4  554.94   11.70
  -2   3  -4  577.64   12.30
  -2   3  -4  570.44   13.40
  -3   3  -4  147.39    4.00
  -3   3  -4  145.19    5.80
  -3   3  -4  137.79    4.50
   3  -3   4  138.29    3.70
  -4   3  -4   16.70    1.40
  -4   3  -4   16.10    2.60
  -4   3  -4   18.80    1.80
   4  -3   4   18.20    1.60
   4  -3   4   16.00    1.20
  -5   3  -4    0.60    0.70
  -5   3  -4    0.10    0.60
   5  -3   4   -0.40    0.80
   5  -3   4    1.00    0.60
   5  -3   4    0.30    0.60
   5  -3   4    1.10    0.60
   5  -3   4    0.20    0.60
   5  -3   4    2.10    0.70
   5  -3   4    0.80    0.60
  -6   3  -4   22.20    1.60
   6  -3   4   22.00    1.60
   6  -3   4   22.70    1.50
   6  -3   4   24.40    2.00
   6  -3   4   22.30    1.30
   7  -3   4    2.50    0.50
   7  -3   4    2.20    0.70
   7  -3   4    1.30    0.90
   8  -3   4   10.10    0.80
   8  -3   4   10.60    1.10
   9   2  -4    3.90    0.70
  -9  -2   4    4.80    0.60
   8   2  -4   17.50    1.30
   8   2  -4   17.90    1.40
  -8  -2   4   14.80    1.20
   7   2  -4   61.69    2.40
   7   2  -4   60.09    2.60
  -7  -2   4   61.09    2.30
   6   2  -4  303.57    7.40
   6   2  -4  307.37    7.00
  -6  -2   4  304.57    6.90
   5   2  -4  123.59    3.80
  -5  -2   4  128.89    3.70
  -5  -2   4  123.69    4.20
   4   2  -4   78.69    2.70
   4   2  -4   82.79    2.70
  -4  -2   4   81.99    3.00
  -4  -2   4   77.99    2.60
   3   2  -4  117.39    3.30
   3   2  -4  117.89    3.20
  -3  -2   4  117.29    3.50
   2   2  -4   32.00    1.60
   2   2  -4   31.90    1.40
  -2  -2   4   31.40    1.50
   1   2  -4    3.70    0.60
   1   2  -4    4.20    0.80
  -1  -2   4    3.20    0.60
   0   2  -4  418.36    8.90
   0  -2   4  439.06    8.90
  -1   2  -4    6.40    1.10
  -1   2  -4    7.50    1.10
  -1   2  -4    7.90    0.90
   1  -2   4    6.40    0.80
  -2   2  -4   50.69    2.10
  -2   2  -4   53.89    2.90
  -2   2  -4   52.59    2.30
  -2   2  -4   51.49    2.20
  -3   2  -4  139.19    3.80
  -3   2  -4  136.89    5.50
  -3   2  -4  132.69    4.10
  -4   2  -4    5.20    1.10
  -4   2  -4    4.50    1.50
  -4   2  -4    4.80    0.80
  -5   2  -4    3.60    1.00
  -5   2  -4    4.00    0.90
   5  -2   4    3.90    0.70
   5  -2   4    3.30    1.10
   5  -2   4    4.20    0.80
  -6   2  -4   20.50    1.70
   6  -2   4   18.80    1.40
   6  -2   4   17.80    2.00
   6  -2   4   20.20    1.20
  -7   2  -4   20.70    1.40
   7  -2   4   19.70    1.40
   7  -2   4   21.70    1.90
   8  -2   4   34.00    1.40
   8  -2   4   36.80    1.90
   9   1  -4    1.40    0.60
  -9  -1   4    0.70    0.60
   8   1  -4    6.50    0.90
  -8  -1   4    6.70    0.90
   7   1  -4    7.30    1.00
   7   1  -4    5.80    1.20
  -7  -1   4    6.10    1.00
   6   1  -4  243.78    5.90
   6   1  -4  241.78    6.20
  -6  -1   4  245.28    5.80
  -6  -1   4  245.28    5.70
  -6  -1   4  246.28    6.00
   5   1  -4  176.08    4.70
  -5  -1   4  186.48    5.30
  -5  -1   4  178.98    4.60
  -4  -1   4    1.90    0.70
   3   1  -4  113.79    3.20
  -3  -1   4  115.19    3.30
   2   1  -4  835.82   16.40
  -2  -1   4  849.61   16.30
   1   1  -4 1549.74   28.90
  -1  -1   4 1514.45   28.60
   0   1  -4  923.31   18.30
   0   1  -4  931.51   18.30
   0  -1   4  968.40   17.90
  -1   1  -4  256.07    6.40
  -1   1  -4  250.97    6.00
  -1   1  -4  253.37    5.60
  -2   1  -4 1700.93   31.60
  -2   1  -4 1652.63   31.80
  -2   1  -4 1693.33   31.60
  -2   1  -4 1673.73   33.30
  -3   1  -4  435.66    9.50
  -3   1  -4  425.66   11.30
  -3   1  -4  443.36    9.20
  -4   1  -4  439.36    9.50
  -4   1  -4  438.46   10.10
  -4   1  -4  441.86   12.40
  -5   1  -4   27.40    1.80
   5  -1   4   26.00    2.10
   5  -1   4   24.90    1.60
  -6   1  -4  370.46    8.40
   6  -1   4  360.96    8.20
   6  -1   4  376.46    9.10
  -7   1  -4   11.00    1.20
   7  -1   4    7.90    1.00
   7  -1   4   12.00    1.40
   7  -1   4   10.00    1.40
   8  -1   4   82.49    2.80
   8  -1   4   78.19    2.30
   9   0  -4   33.60    1.30
   9   0  -4   34.90    1.40
  -9   0   4   34.20    1.50
   8   0  -4   99.49    2.80
   8   0  -4   96.59    3.00
  -8   0   4   94.59    3.00
   7   0  -4   15.20    1.30
   7   0  -4   12.00    1.20
   7   0  -4   15.60    1.50
  -7   0   4   13.10    1.40
  -7   0   4   14.00    1.30
  -7   0   4   14.00    1.30
   6   0  -4  487.95   10.00
   6   0  -4  490.25   10.20
   6   0  -4  478.75   10.40
  -6   0   4  480.55   10.10
  -6   0   4  480.95   10.50
  -6   0   4  481.15   10.10
  -5   0   4  139.99    4.30
  -5   0   4  140.59    3.90
  -4   0   4  329.67    7.50
   3   0  -4   99.09    3.00
  -3   0   4  100.79    2.90
   2   0  -4 1627.44   31.30
   2   0  -4 1682.23   31.40
  -2   0   4 1683.03   30.90
   1   0  -4  879.91   17.00
   1   0  -4  838.02   17.00
  -1   0   4  891.81   16.40
   0   0  -4 1176.08   22.50
   0   0  -4 1119.29   22.20
   0   0   4 1172.68   21.50
  -1   0  -4  260.97    5.50
  -1   0  -4  260.17    6.60
  -1   0  -4  251.07    5.80
  -2   0  -4    3.30    0.60
  -2   0  -4    1.40    0.80
  -2   0  -4    6.80    0.90
  -3   0  -4   82.69    4.00
  -3   0  -4   84.69    2.80
  -3   0  -4   85.29    2.60
  -4   0  -4  132.79    5.80
  -4   0  -4  134.79    4.20
  -5   0  -4    1.90    0.90
   5   0   4    2.60    0.80
   5   0   4    3.90    0.90
   5   0   4    2.80    1.10
  -6   0  -4  124.59    3.90
   6   0   4  124.19    3.60
   6   0   4  123.59    3.60
   6   0   4  122.69    4.40
  -7   0  -4   36.80    1.90
   7   0   4   39.60    1.80
   7   0   4   36.40    1.70
   7   0   4   34.30    2.30
  -8   0  -4   -0.60    0.50
   8   0   4    0.50    0.70
   8   0   4   -0.40    0.40
   8   0   4   -0.20    0.50
   9  -1  -4  127.79    3.10
   9  -1  -4  125.19    3.00
  -9   1   4  123.79    3.10
   8  -1  -4    5.40    0.80
   8  -1  -4    4.90    0.90
  -8   1   4    2.90    0.80
  -8   1   4    5.30    0.90
  -8   1   4    4.00    0.90
   7  -1  -4   17.20    1.30
   7  -1  -4   17.00    1.50
   7  -1  -4   16.30    1.20
  -7   1   4   20.00    1.60
  -7   1   4   18.20    1.40
  -7   1   4   19.60    1.50
   6  -1  -4   92.49    2.80
   6  -1  -4   92.69    2.90
   6  -1  -4   89.99    3.10
   6  -1  -4   91.79    3.00
  -6   1   4   95.49    3.20
  -6   1   4   92.19    2.90
   5  -1  -4   29.50    2.20
  -5   1   4   26.70    1.70
  -5   1   4   26.40    1.60
  -4   1   4    3.00    0.60
  -4   1   4    3.40    0.70
  -4   1   4    2.60    1.30
  -4   1   4    3.30    0.70
   3  -1  -4   10.30    1.20
  -3   1   4   10.60    0.90
  -3   1   4    9.60    0.80
  -3   1   4   10.50    1.40
   2  -1  -4    8.30    1.00
   2  -1  -4    7.40    1.00
  -2   1   4    7.60    0.70
   1  -1  -4  736.63   14.90
   1  -1  -4  720.93   14.30
   0  -1  -4  735.03   14.40
   0  -1  -4  737.53   15.20
  -1  -1  -4   79.89    2.50
  -1  -1  -4   80.59    3.20
  -2  -1  -4   66.09    3.20
  -2  -1  -4   67.29    2.30
  -3  -1  -4   28.90    2.40
  -3  -1  -4   31.00    1.60
  -4  -1  -4   75.59    4.20
  -5  -1  -4    7.90    1.20
   5   1   4    8.80    1.50
   5   1   4    7.90    1.00
   5   1   4    7.80    1.10
  -6  -1  -4    1.80    0.80
   6   1   4    1.40    0.80
   6   1   4    3.30    0.90
   6   1   4    1.40    1.10
  -7  -1  -4   27.00    1.80
   7   1   4   27.40    1.60
   7   1   4   28.10    1.60
   7   1   4   30.50    2.10
  -8  -1  -4   -0.10    0.50
   8   1   4    0.30    0.50
   8   1   4    0.60    0.50
   8   1   4    0.20    0.60
   9  -2  -4    2.80    0.60
   9  -2  -4    2.70    0.60
  -9   2   4    2.10    0.60
  -9   2   4    2.50    0.50
   8  -2  -4   39.00    1.80
   8  -2  -4   36.30    1.70
  -8   2   4   35.40    1.70
  -8   2   4   34.40    1.80
  -8   2   4   35.60    2.00
   7  -2  -4   11.00    1.20
   7  -2  -4   11.00    1.10
   7  -2  -4   13.30    1.20
  -7   2   4   10.80    1.40
  -7   2   4   10.40    1.10
   6  -2  -4   25.60    1.60
   6  -2  -4   25.40    1.50
   6  -2  -4   23.40    1.40
   6  -2  -4   24.70    1.50
  -6   2   4   22.80    1.60
  -6   2   4   26.00    1.80
   5  -2  -4   15.90    1.40
   5  -2  -4   18.20    1.30
  -5   2   4   14.80    1.40
  -5   2   4   15.30    1.30
   4  -2  -4   44.50    1.80
  -4   2   4   48.30    3.00
  -4   2   4   46.90    1.90
  -4   2   4   47.30    1.90
   3  -2  -4   82.79    3.40
  -3   2   4   80.79    2.40
   2  -2  -4    0.50    0.50
   2  -2  -4    1.10    0.70
  -2   2   4    0.40    0.30
   1  -2  -4    9.20    0.90
   1  -2  -4   10.30    1.30
   0  -2  -4  792.92   15.70
   0  -2  -4  816.72   16.90
  -1  -2  -4 1703.33   34.20
  -1  -2  -4 1731.23   32.80
   1   2   4 1797.42   32.60
  -2  -2  -4  330.37    7.50
  -2  -2  -4  339.67    9.00
   2   2   4  340.17    7.40
  -3  -2  -4  459.55   11.90
  -3  -2  -4  475.55   10.00
  -4  -2  -4    0.80    0.70
  -4  -2  -4    2.40    1.10
   4   2   4   -0.60    1.00
  -5  -2  -4    8.10    1.20
  -5  -2  -4   11.40    1.20
  -5  -2  -4   11.70    1.20
   5   2   4    9.40    1.20
   5   2   4    9.40    1.50
   5   2   4   10.70    1.20
  -6  -2  -4   14.50    1.50
   6   2   4   16.50    1.30
   6   2   4   15.00    1.40
   6   2   4   17.00    1.80
  -7  -2  -4    0.40    0.70
   7   2   4    0.00    0.60
   7   2   4   -0.20    0.70
   7   2   4   -0.30    0.50
  -8  -2  -4   82.49    2.40
   8   2   4   81.79    2.30
   8   2   4   83.69    2.20
   8  -3  -4   86.89    2.60
   8  -3  -4   82.39    2.60
  -8   3   4   85.09    2.90
  -8   3   4   91.49    2.70
  -8   3   4   87.09    2.70
   7  -3  -4   18.60    1.40
   7  -3  -4   18.90    1.40
   7  -3  -4   18.90    1.30
   7  -3  -4   16.80    1.20
   7  -3  -4   16.40    1.10
  -7   3   4   17.80    1.60
  -7   3   4   18.10    1.40
   6  -3  -4    9.30    1.00
   6  -3  -4    7.90    1.10
   6  -3  -4   11.60    1.20
   6  -3  -4    8.20    1.10
   6  -3  -4    7.60    1.20
   6  -3  -4    9.50    1.00
   6  -3  -4    6.60    1.00
  -6   3   4    8.80    1.20
  -6   3   4    6.40    1.20
  -6   3   4   10.00    1.10
   5  -3  -4    3.90    0.70
   5  -3  -4    3.70    1.00
   5  -3  -4    5.50    0.90
   5  -3  -4    5.80    0.90
   5  -3  -4    4.80    0.80
   5  -3  -4    4.70    0.90
   5  -3  -4    2.50    0.70
  -5   3   4    4.10    0.80
  -5   3   4    4.30    1.00
   4  -3  -4  449.36    9.40
  -4   3   4  450.05   12.10
  -4   3   4  461.85    9.80
   3  -3  -4   63.19    3.20
  -3   3   4   59.19    2.10
   2  -3  -4  278.77    7.60
  -2   3   4  291.57    6.10
   1  -3  -4   15.60    1.60
   1  -3  -4   15.60    1.10
  -1   3   4   16.90    0.90
   0  -3  -4  661.13   14.70
   0  -3  -4  668.43   13.30
   0   3   4  667.63   12.90
  -1  -3  -4  507.55   12.20
  -1  -3  -4  514.85   10.70
   1   3   4  505.85   10.30
  -2  -3  -4    9.90    1.60
  -2  -3  -4    8.20    1.00
   2   3   4    7.60    0.90
  -3  -3  -4   26.00    1.70
  -3  -3  -4   25.90    2.40
   3   3   4   22.40    2.10
  -4  -3  -4  108.79    3.40
  -4  -3  -4  110.09    3.30
  -4  -3  -4  112.89    3.50
  -4  -3  -4  115.89    3.80
   4   3   4  114.59    4.10
   4   3   4  113.39    3.90
   4   3   4  114.09    4.80
  -5  -3  -4   74.89    2.90
  -5  -3  -4   76.09    2.70
  -5  -3  -4   72.99    2.60
   5   3   4   76.89    2.80
   5   3   4   79.09    3.40
  -6  -3  -4   11.70    1.30
  -6  -3  -4   11.50    1.10
   6   3   4   12.30    1.30
   6   3   4    9.50    1.40
   6   3   4   11.80    1.10
  -7  -3  -4    3.00    0.80
   7   3   4    1.90    0.60
   7   3   4    1.70    0.70
  -8  -3  -4    4.20    0.70
   8   3   4    3.10    0.60
   8  -4  -4   35.10    1.30
   8  -4  -4   36.90    1.40
   8  -4  -4   35.30    1.90
   8  -4  -4   38.00    1.40
   8  -4  -4   34.30    1.50
  -8   4   4   36.00    1.80
  -8   4   4   44.10    1.80
  -8   4   4   38.60    1.50
   7  -4  -4   13.50    1.00
   7  -4  -4   12.50    1.10
   7  -4  -4   11.90    1.10
   7  -4  -4   12.10    1.10
   7  -4  -4   13.30    1.30
   7  -4  -4   12.60    1.10
  -7   4   4   10.80    1.50
  -7   4   4   13.00    1.20
  -7   4   4   13.50    1.50
   6  -4  -4   53.29    2.10
   6  -4  -4   51.29    2.20
   6  -4  -4   50.89    2.00
   6  -4  -4   49.10    2.00
   6  -4  -4   48.60    2.40
   6  -4  -4   53.09    2.10
   6  -4  -4   50.79    2.10
  -6   4   4   45.10    2.40
  -6   4   4   48.70    2.50
   5  -4  -4   13.20    1.10
   5  -4  -4   13.50    1.10
   5  -4  -4   13.30    1.20
   5  -4  -4   13.70    1.20
   5  -4  -4   16.00    1.30
   5  -4  -4   15.10    1.60
   5  -4  -4   14.70    1.30
  -5   4   4   12.20    1.30
   4  -4  -4    8.70    1.20
   4  -4  -4    9.70    1.10
   4  -4  -4    9.90    1.00
   4  -4  -4   10.70    1.20
   4  -4  -4    9.60    1.20
   4  -4  -4   11.90    1.20
   4  -4  -4    9.50    1.20
  -4   4   4    8.40    1.00
  -4   4   4   10.00    2.00
   3  -4  -4   10.90    0.90
   3  -4  -4   11.50    1.80
  -3   4   4   12.90    1.00
   2  -4  -4   63.79    3.40
  -2   4   4   66.99    2.10
   1  -4  -4  222.28    6.80
   1  -4  -4  217.28    5.30
  -1   4   4  223.98    4.90
   0  -4  -4  267.27    6.30
   0  -4  -4  265.87    7.80
   0   4   4  271.77    5.80
  -1  -4  -4  708.33   14.70
  -1  -4  -4  724.83   16.50
   1   4   4  726.13   14.20
  -2  -4  -4  407.66    9.20
  -2  -4  -4  409.66   11.10
   2   4   4  407.06    8.90
  -3  -4  -4   26.60    1.90
  -3  -4  -4   27.30    2.60
  -3  -4  -4   28.90    2.00
  -3  -4  -4   27.20    1.60
   3   4   4   34.50    2.50
  -4  -4  -4  140.89    3.80
  -4  -4  -4  145.49    4.10
  -4  -4  -4  138.59    3.80
  -4  -4  -4  144.69    4.50
  -4  -4  -4  138.29    4.00
  -4  -4  -4  136.49    3.90
   4   4   4  140.49    4.60
   4   4   4  138.09    5.00
   4   4   4  144.59    5.60
  -5  -4  -4   75.39    2.50
  -5  -4  -4   69.39    2.60
  -5  -4  -4   77.69    2.70
  -5  -4  -4   69.49    2.80
  -5  -4  -4   67.39    3.00
   5   4   4   78.19    3.30
   5   4   4   69.59    2.70
  -6  -4  -4  152.58    4.40
  -6  -4  -4  151.78    4.00
  -6  -4  -4  153.08    4.30
   6   4   4  151.98    3.90
   6   4   4  154.68    4.20
  -7  -4  -4    3.60    0.80
   7   4   4    2.60    0.70
   8  -5  -4   24.30    1.10
   8  -5  -4   23.20    1.00
  -8   5   4   30.30    1.70
   7  -5  -4    5.10    0.90
   7  -5  -4    4.00    0.70
   7  -5  -4    4.30    0.70
   7  -5  -4    3.80    0.70
   7  -5  -4    3.50    0.60
   7  -5  -4    5.00    0.80
  -7   5   4    5.00    1.00
   6  -5  -4    0.90    0.70
   6  -5  -4   -0.10    0.60
   6  -5  -4    1.60    0.70
   6  -5  -4    1.20    0.70
   6  -5  -4    1.70    0.60
   6  -5  -4    0.70    0.60
   6  -5  -4    0.50    0.70
  -6   5   4    1.60    0.80
  -6   5   4    0.90    0.70
   5  -5  -4   84.49    2.80
   5  -5  -4   86.29    2.70
   5  -5  -4   83.69    2.80
   5  -5  -4   84.09    2.80
   5  -5  -4   86.09    3.30
   5  -5  -4   82.59    2.80
   5  -5  -4   79.59    2.50
  -5   5   4   85.29    3.20
  -5   5   4   80.19    3.20
   4  -5  -4   22.60    1.40
   4  -5  -4   23.40    1.30
   4  -5  -4   22.50    1.40
   4  -5  -4   21.90    1.50
   4  -5  -4   21.80    1.50
   4  -5  -4   23.90    1.40
   4  -5  -4   22.30    1.70
  -4   5   4   22.90    1.50
   3  -5  -4   45.80    1.90
   3  -5  -4   43.50    2.00
   3  -5  -4   46.90    1.90
   3  -5  -4   47.90    2.30
   3  -5  -4   43.90    2.10
   3  -5  -4   46.30    2.00
  -3   5   4   49.10    2.00
   2  -5  -4  145.59    4.30
   2  -5  -4  146.49    5.70
   2  -5  -4  141.59    4.10
  -2   5   4  153.28    3.80
   1  -5  -4   18.00    1.40
   1  -5  -4   14.30    2.00
   1  -5  -4   15.50    1.40
  -1   5   4   15.20    1.00
   0  -5  -4    2.60    0.80
   0  -5  -4    3.10    0.80
   0  -5  -4    3.30    1.20
   0   5   4    3.20    0.60
  -1  -5  -4   64.49    3.00
  -1  -5  -4   63.39    2.70
  -1  -5  -4   61.89    3.70
  -1  -5  -4   56.19    2.30
   1   5   4   63.49    2.20
  -2  -5  -4   39.80    2.20
  -2  -5  -4   41.00    2.30
  -2  -5  -4   39.10    1.90
  -2  -5  -4   41.40    3.50
  -2  -5  -4   44.00    2.00
  -2  -5  -4   38.30    1.90
  -2  -5  -4   39.50    1.70
  -2  -5  -4   43.50    1.90
  -2  -5  -4   41.70    2.00
   2   5   4   38.70    2.00
  -3  -5  -4   20.80    1.60
  -3  -5  -4   23.70    1.50
  -3  -5  -4   20.30    1.70
  -3  -5  -4   21.20    1.60
  -3  -5  -4   21.40    1.30
  -3  -5  -4   21.20    1.50
  -3  -5  -4   23.00    1.50
  -3  -5  -4   20.80    1.50
  -3  -5  -4   21.60    1.90
   3   5   4   21.10    2.30
  -4  -5  -4    6.40    1.00
  -4  -5  -4    6.40    1.00
  -4  -5  -4    6.60    1.00
  -4  -5  -4    5.40    0.90
  -4  -5  -4    4.50    1.10
  -4  -5  -4    4.10    0.90
  -4  -5  -4    5.10    0.90
   4   5   4    6.40    1.70
   4   5   4    7.40    1.40
   4   5   4    6.30    1.50
  -5  -5  -4    0.10    0.60
  -5  -5  -4    0.10    0.70
  -5  -5  -4    0.40    0.70
  -5  -5  -4    0.60    0.70
  -5  -5  -4   -0.60    0.50
   5   5   4    0.10    0.70
  -6  -5  -4    2.90    0.60
  -6  -5  -4    4.20    0.70
  -6  -5  -4    3.60    0.80
   6   5   4    3.10    0.80
  -7  -5  -4    9.70    1.00
   7   5   4    7.90    0.80
   7  -6  -4   17.00    1.10
   7  -6  -4   17.20    1.40
   7  -6  -4   16.10    1.10
   7  -6  -4   18.00    1.00
   7  -6  -4   17.50    1.00
  -7   6   4   18.60    1.40
   6  -6  -4   45.80    1.80
   6  -6  -4   49.99    1.90
   6  -6  -4   47.20    1.70
   6  -6  -4   46.80    1.80
   6  -6  -4   46.60    1.80
   6  -6  -4   48.80    2.30
  -6   6   4   39.50    2.10
  -6   6   4   43.00    2.20
   5  -6  -4   70.79    2.20
   5  -6  -4   67.39    2.40
   5  -6  -4   66.49    2.30
   5  -6  -4   74.09    2.50
   5  -6  -4   63.69    2.40
   5  -6  -4   69.09    2.40
   5  -6  -4   67.59    2.80
  -5   6   4   63.99    2.70
  -5   6   4   65.49    2.70
   4  -6  -4   14.20    1.60
   4  -6  -4   15.40    1.30
   4  -6  -4   16.10    1.30
   4  -6  -4   14.40    1.30
   4  -6  -4   15.10    1.30
  -4   6   4   13.80    2.00
  -4   6   4   15.50    1.30
   3  -6  -4    5.90    1.20
   3  -6  -4    4.40    0.80
   3  -6  -4    5.90    0.90
   3  -6  -4    7.90    1.10
   3  -6  -4    6.90    0.80
   3  -6  -4    5.30    0.90
  -3   6   4    6.70    0.90
   2  -6  -4    9.50    1.10
   2  -6  -4    8.10    1.10
   2  -6  -4    9.10    1.00
   2  -6  -4    8.20    1.00
   2  -6  -4    7.80    1.20
  -2   6   4   12.70    1.00
   1  -6  -4   23.60    1.50
   1  -6  -4   24.00    1.40
   1  -6  -4   24.00    1.60
   1  -6  -4   25.10    1.50
   1  -6  -4   23.20    1.80
  -1   6   4   27.40    1.30
   0  -6  -4    9.60    1.00
   0  -6  -4    9.20    1.10
   0  -6  -4    7.10    1.00
   0  -6  -4    7.40    1.10
   0  -6  -4    8.20    1.20
   0  -6  -4    9.40    1.10
   0  -6  -4    7.80    1.20
   0   6   4    9.70    0.90
  -1  -6  -4    2.30    0.80
  -1  -6  -4    1.90    1.00
  -1  -6  -4    3.90    1.00
  -1  -6  -4    3.60    0.90
  -1  -6  -4    2.10    0.70
  -1  -6  -4    2.40    0.90
  -1  -6  -4    3.00    0.80
  -1  -6  -4    1.80    0.70
   1   6   4    2.80    0.70
  -2  -6  -4   71.69    3.10
  -2  -6  -4   64.39    2.30
  -2  -6  -4   65.79    2.90
  -2  -6  -4   66.39    2.50
  -2  -6  -4   64.39    2.60
  -2  -6  -4   67.79    2.40
  -2  -6  -4   61.99    2.40
  -2  -6  -4   64.69    2.50
   2   6   4   68.29    2.80
  -3  -6  -4    7.00    1.10
  -3  -6  -4    3.60    0.80
  -3  -6  -4    6.00    0.90
  -3  -6  -4    5.30    0.90
  -3  -6  -4    5.50    0.80
  -3  -6  -4    5.20    1.00
  -3  -6  -4    5.50    1.20
   3   6   4    2.80    1.50
  -4  -6  -4  177.58    4.50
  -4  -6  -4  169.58    6.60
  -4  -6  -4  172.98    4.60
  -4  -6  -4  175.28    4.60
  -4  -6  -4  176.58    4.50
  -4  -6  -4  167.68    4.50
  -4  -6  -4  173.38    4.50
   4   6   4  178.08    5.50
  -5  -6  -4    3.90    0.80
  -5  -6  -4    4.60    0.80
  -5  -6  -4    3.60    0.80
  -5  -6  -4    4.80    0.80
  -5  -6  -4    4.00    0.80
  -5  -6  -4    4.00    0.80
  -6  -6  -4  138.99    3.40
  -6  -6  -4  140.49    3.50
  -6  -6  -4  139.89    3.30
   6   6   4  142.99    3.60
   6  -7  -4    0.30    0.50
   6  -7  -4   -0.10    0.30
   6  -7  -4   -0.40    0.40
   6  -7  -4    0.10    0.50
   6  -7  -4   -0.20    0.60
   5  -7  -4    0.00    0.40
   5  -7  -4    0.30    0.70
   5  -7  -4    0.30    0.50
   5  -7  -4   -0.60    0.50
   5  -7  -4    0.40    0.50
  -5   7   4   -0.60    0.40
   4  -7  -4    8.50    1.20
   4  -7  -4    8.30    0.90
   4  -7  -4    7.50    0.90
   4  -7  -4    7.20    0.90
   4  -7  -4    8.80    1.00
  -4   7   4    6.80    0.90
   3  -7  -4    6.70    0.90
   3  -7  -4    7.60    1.30
   3  -7  -4    7.40    0.90
   3  -7  -4    9.00    1.10
   3  -7  -4    9.10    1.10
  -3   7   4    6.80    0.90
   2  -7  -4  143.39    4.10
   2  -7  -4  143.49    3.80
   2  -7  -4  147.09    4.10
   2  -7  -4  142.49    4.00
   2  -7  -4  146.19    4.50
  -2   7   4  142.89    3.80
   1  -7  -4 1206.38   23.70
   1  -7  -4 1238.48   23.60
   1  -7  -4 1218.78   23.30
   1  -7  -4 1214.58   23.70
   1  -7  -4 1196.48   24.10
  -1   7   4 1221.28   23.30
   0  -7  -4  140.29    4.00
   0  -7  -4  134.09    3.80
   0  -7  -4  141.09    4.10
   0  -7  -4  140.29    3.90
   0  -7  -4  143.79    4.40
   0  -7  -4  136.89    3.70
   0   7   4  137.29    3.80
  -1  -7  -4  249.97    7.30
  -1  -7  -4  271.97    6.60
  -1  -7  -4  266.27    6.30
  -1  -7  -4  272.27    6.40
  -1  -7  -4  271.57    7.00
  -1  -7  -4  269.67    6.30
  -1  -7  -4  265.17    6.70
  -1  -7  -4  264.17    6.00
   1   7   4  275.97    6.60
  -2  -7  -4    7.50    1.00
  -2  -7  -4    8.20    1.00
  -2  -7  -4    9.00    1.20
  -2  -7  -4    7.90    1.10
  -2  -7  -4    8.50    1.30
  -2  -7  -4    9.40    1.10
  -2  -7  -4    9.20    1.00
   2   7   4   11.70    1.50
  -3  -7  -4   12.40    1.20
  -3  -7  -4   13.00    1.20
  -3  -7  -4   13.30    1.30
  -3  -7  -4   12.90    1.30
  -3  -7  -4   14.60    1.30
   3   7   4   11.80    1.90
  -4  -7  -4   18.10    1.30
  -4  -7  -4   15.90    1.30
  -4  -7  -4   16.40    1.30
  -4  -7  -4   15.90    1.20
  -4  -7  -4   16.80    1.20
  -4  -7  -4   18.60    1.30
   4   7   4   16.90    1.60
  -5  -7  -4    9.30    0.90
  -5  -7  -4   11.20    0.90
  -5  -7  -4   11.70    0.90
  -5  -7  -4   10.40    1.00
  -5  -7  -4   10.20    0.90
   5   7   4   12.40    1.10
   5  -8  -4   14.60    1.00
   5  -8  -4   16.00    1.00
   5  -8  -4   14.00    1.00
   5  -8  -4   16.80    1.40
   4  -8  -4    3.00    0.60
   4  -8  -4    2.50    0.60
   4  -8  -4    2.40    0.60
   4  -8  -4    2.60    0.80
   3  -8  -4    1.30    0.60
   3  -8  -4    0.20    0.50
   3  -8  -4    1.20    0.90
   3  -8  -4    0.40    0.60
  -3   8   4    0.40    0.40
   2  -8  -4    6.90    0.90
   2  -8  -4    7.40    1.20
   2  -8  -4    8.70    1.00
   2  -8  -4    6.40    0.90
   2  -8  -4    7.70    0.90
  -2   8   4    7.30    0.90
   1  -8  -4    0.70    0.50
   1  -8  -4   -0.10    0.50
   1  -8  -4   -0.40    0.50
   1  -8  -4   -0.70    0.50
   1  -8  -4   -0.50    0.70
  -1   8   4   -0.10    0.40
   0  -8  -4    1.70    0.70
   0  -8  -4    2.50    1.00
   0  -8  -4    1.70    0.70
   0  -8  -4    2.10    0.80
   0  -8  -4    2.20    0.70
   0  -8  -4    2.50    0.70
   0   8   4    1.80    0.60
  -1  -8  -4    2.80    0.70
  -1  -8  -4    3.00    0.70
  -1  -8  -4    4.20    0.90
  -1  -8  -4    3.20    0.80
   1   8   4    3.90    0.90
  -2  -8  -4   40.00    1.70
  -2  -8  -4   39.80    2.00
  -2  -8  -4   41.90    1.90
  -2  -8  -4   42.50    1.80
  -2  -8  -4   42.40    1.80
  -3  -8  -4   30.90    1.50
  -3  -8  -4   30.20    1.50
  -3  -8  -4   28.40    1.60
  -3  -8  -4   29.40    1.60
  -3  -8  -4   31.00    1.40
  -4  -8  -4    8.20    0.80
  -4  -8  -4    8.00    0.90
  -4  -8  -4    8.10    0.90
  -4  -8  -4    7.40    0.70
  -4  -8  -4    9.40    0.90
   3  -9  -4   17.60    1.30
   3  -9  -4   19.20    1.00
   3  -9  -4   20.30    1.10
   2  -9  -4   26.00    1.20
   2  -9  -4   29.50    1.30
   2  -9  -4   28.10    1.30
   2  -9  -4   29.50    1.60
   1  -9  -4   65.69    2.00
   1  -9  -4   63.99    2.10
   1  -9  -4   63.79    2.10
   0  -9  -4  226.38    5.00
   0  -9  -4  229.28    5.20
   0  -9  -4  230.18    5.10
  -1  -9  -4   59.59    2.10
  -1  -9  -4   60.39    1.90
  -1  -9  -4   62.49    1.90
  -1  -9  -4   62.29    2.00
  -2  -9  -4   14.10    1.10
  -2  -9  -4   16.00    1.00
  -2  -9  -4   17.80    1.10
  -2  -9  -4   14.90    1.10
  -2  -9   5    0.00    0.50
  -2  -9   5   -0.20    0.50
  -1  -9   5    0.90    0.40
  -1  -9   5    0.30    0.50
  -1  -9   5    0.80    0.50
   0  -9   5   59.89    1.80
   0  -9   5   61.99    1.90
   1  -9   5  138.69    3.20
   1  -9   5  137.99    3.20
   2  -9   5    2.80    0.50
  -4  -8   5   44.00    1.70
  -4  -8   5   42.50    1.70
  -4  -8   5   44.90    1.70
  -3  -8   5    1.10    0.60
  -3  -8   5   -0.10    0.50
  -3  -8   5    0.90    0.40
  -3  -8   5   -0.70    0.50
   2   8  -5   32.10    1.70
  -2  -8   5   31.60    1.50
  -2  -8   5   31.50    1.60
  -2  -8   5   31.80    1.60
  -2  -8   5   30.50    1.50
   1   8  -5   16.80    1.30
  -1  -8   5   21.30    1.40
  -1  -8   5   20.50    1.30
  -1  -8   5   18.30    1.20
   0   8  -5    0.30    0.60
   0  -8   5    0.70    0.50
   0  -8   5    0.70    0.60
   0  -8   5    0.80    0.60
   0  -8   5    0.30    0.60
  -1   8  -5   -0.90    0.50
   1  -8   5    0.10    0.50
   1  -8   5    0.90    0.60
   1  -8   5    0.00    0.50
   1  -8   5    0.20    0.60
   2  -8   5   28.50    1.30
   2  -8   5   27.00    1.30
   2  -8   5   24.10    1.40
   2  -8   5   27.10    1.30
   3  -8   5    7.00    0.70
   3  -8   5    7.20    0.80
   3  -8   5    6.20    0.80
   3  -8   5    7.30    0.70
   4  -8   5   18.80    1.00
   4  -8   5   17.40    1.10
   4  -8   5   17.40    1.00
  -6  -7   5    1.00    0.60
   5   7  -5    0.30    0.70
  -5  -7   5    0.30    0.50
  -5  -7   5    0.60    0.60
  -5  -7   5    0.60    0.40
  -5  -7   5    0.00    0.50
   4   7  -5    3.40    0.80
   4   7  -5    3.10    0.80
  -4  -7   5    2.50    0.70
  -4  -7   5    3.20    0.70
  -4  -7   5    3.30    0.80
  -4  -7   5    3.10    0.70
   3   7  -5    9.20    1.20
  -3  -7   5    7.30    1.00
  -3  -7   5    9.20    1.00
  -3  -7   5    9.90    1.10
  -3  -7   5    8.10    0.90
   2   7  -5   59.49    3.00
   2   7  -5   58.89    2.40
  -2  -7   5   59.69    2.20
  -2  -7   5   60.89    2.30
  -2  -7   5   58.69    2.20
  -2  -7   5   58.59    2.20
   1   7  -5   68.29    3.20
   1   7  -5   72.89    2.70
  -1  -7   5   74.99    2.50
  -1  -7   5   76.29    2.60
  -1  -7   5   69.99    2.60
  -1  -7   5   68.79    2.40
  -1  -7   5   72.69    2.40
  -1  -7   5   73.39    2.50
   0   7  -5   16.30    1.40
   0  -7   5   14.10    1.20
   0  -7   5   16.00    1.40
   0  -7   5   16.10    1.30
   0  -7   5   16.40    1.30
   0  -7   5   17.20    1.50
  -1   7  -5   63.69    2.70
   1  -7   5   62.09    2.20
   1  -7   5   65.89    2.30
   1  -7   5   62.49    2.40
   1  -7   5   65.29    2.30
   1  -7   5   64.49    2.50
  -2   7  -5  158.28    4.80
   2  -7   5  169.18    4.20
   2  -7   5  165.38    4.20
   2  -7   5  165.28    4.30
   2  -7   5  169.58    4.30
   2  -7   5  170.38    4.50
  -3   7  -5  143.39    4.10
   3  -7   5  148.09    4.00
   3  -7   5  150.88    3.80
   3  -7   5  142.69    3.90
   3  -7   5  141.99    3.70
   3  -7   5  145.39    3.70
   4  -7   5   16.40    1.20
   4  -7   5   14.20    1.00
   4  -7   5   16.20    1.20
   5  -7   5   79.99    2.10
   5  -7   5   81.09    2.40
   5  -7   5   78.49    2.10
   6   6  -5   50.49    2.20
  -6  -6   5   48.30    1.70
  -6  -6   5   53.59    1.90
  -6  -6   5   51.09    1.80
   5   6  -5    9.00    1.20
   5   6  -5    8.60    1.20
  -5  -6   5    7.70    0.90
  -5  -6   5    8.40    1.00
  -5  -6   5    7.50    0.90
  -5  -6   5    9.10    1.10
   4   6  -5   48.50    2.30
   4   6  -5   45.10    2.60
   4   6  -5   51.89    2.30
  -4  -6   5   47.60    2.10
  -4  -6   5   47.00    2.00
  -4  -6   5   46.10    2.10
  -4  -6   5   50.49    2.00
  -4  -6   5   50.19    2.00
   3   6  -5   47.90    2.30
   3   6  -5   48.90    2.70
   3   6  -5   44.00    2.20
  -3  -6   5   44.70    2.00
  -3  -6   5   49.20    2.10
  -3  -6   5   42.30    2.10
  -3  -6   5   50.49    2.00
  -3  -6   5   47.40    2.00
   2   6  -5   32.30    1.80
   2   6  -5   30.00    2.20
  -2  -6   5   33.00    1.70
  -2  -6   5   32.20    1.70
  -2  -6   5   30.00    1.70
  -2  -6   5   30.40    1.70
  -2  -6   5   33.90    1.80
   1   6  -5   93.09    3.60
   1   6  -5   97.09    3.10
  -1  -6   5   88.69    3.20
  -1  -6   5   91.89    3.00
  -1  -6   5   93.49    2.90
  -1  -6   5   91.19    3.00
  -1  -6   5   92.39    2.90
  -1  -6   5   94.99    2.90
   0   6  -5    1.50    0.70
   0   6  -5    0.50    1.00
   0  -6   5    1.20    0.70
   0  -6   5    0.70    0.50
   0  -6   5    1.50    0.80
   0  -6   5    1.40    0.80
   0  -6   5    1.20    0.70
  -1   6  -5   60.49    2.60
   1  -6   5   56.69    2.20
   1  -6   5   61.49    2.20
   1  -6   5   56.59    2.40
   1  -6   5   59.59    2.50
   1  -6   5   60.19    2.40
   1  -6   5   60.89    2.30
  -2   6  -5   62.39    2.90
   2  -6   5   66.99    2.40
   2  -6   5   65.89    2.50
   2  -6   5   61.89    2.30
   2  -6   5   63.99    2.50
   2  -6   5   65.69    2.60
  -3   6  -5   24.20    1.70
   3  -6   5   23.70    1.70
   3  -6   5   23.70    1.60
   3  -6   5   23.70    1.50
   3  -6   5   25.20    1.50
   3  -6   5   23.40    1.40
  -4   6  -5    2.40    0.70
   4  -6   5    2.30    0.70
   4  -6   5    2.00    0.70
   4  -6   5    2.30    0.70
   4  -6   5    1.70    0.70
   4  -6   5    3.00    0.70
   5  -6   5    2.60    0.60
   5  -6   5    2.40    0.70
   5  -6   5    3.30    0.60
   5  -6   5    2.20    0.60
   6  -6   5    1.50    0.50
   6  -6   5    0.50    0.50
   6  -6   5    0.60    0.40
   7   5  -5   23.40    1.20
   7   5  -5   25.00    1.70
  -7  -5   5   26.00    1.20
   6   5  -5   18.50    1.70
   6   5  -5   21.00    1.40
  -6  -5   5   20.60    1.50
  -6  -5   5   19.70    1.30
   5   5  -5   43.50    2.50
   5   5  -5   42.10    2.20
   5   5  -5   48.40    2.40
  -5  -5   5   44.10    1.90
  -5  -5   5   42.60    1.80
  -5  -5   5   42.40    1.90
  -5  -5   5   40.80    2.10
   4   5  -5  346.77    7.90
   4   5  -5  336.07    8.40
   4   5  -5  341.07    8.10
  -4  -5   5  332.17    7.40
  -4  -5   5  334.17    7.60
  -4  -5   5  328.57    7.40
  -4  -5   5  335.57    7.50
  -4  -5   5  325.47    7.60
   3   5  -5   -0.40    0.50
   3   5  -5    0.20    0.80
   3   5  -5    0.60    0.90
  -3  -5   5    0.50    0.70
  -3  -5   5    0.40    0.70
  -3  -5   5    2.80    0.80
  -3  -5   5    1.00    0.70
  -3  -5   5    1.30    0.60
  -3  -5   5    1.40    0.70
   2   5  -5   87.69    3.00
   2   5  -5   90.69    3.40
  -2  -5   5   88.69    2.70
  -2  -5   5   87.39    2.80
  -2  -5   5   89.29    2.80
  -2  -5   5   86.19    2.80
  -2  -5   5   87.09    2.80
  -2  -5   5   88.39    3.00
   1   5  -5   52.19    2.60
   1   5  -5   51.89    2.10
  -1  -5   5   48.50    2.20
  -1  -5   5   52.59    2.00
  -1  -5   5   46.90    2.20
  -1  -5   5   48.60    2.00
  -1  -5   5   50.39    2.10
   0   5  -5  554.94   12.10
   0   5  -5  571.74   11.50
   0  -5   5  538.85   11.50
   0  -5   5  535.35   11.20
   0  -5   5  535.75   11.30
   0  -5   5  555.34   11.70
   0  -5   5  540.25   11.30
  -1   5  -5   71.99    2.70
  -1   5  -5   66.99    3.10
   1  -5   5   66.99    2.50
   1  -5   5   67.19    2.50
   1  -5   5   68.19    2.30
   1  -5   5   64.99    2.60
   1  -5   5   68.29    2.30
  -2   5  -5    3.20    1.00
   2  -5   5    1.50    0.80
   2  -5   5    2.00    0.70
   2  -5   5    3.90    0.90
   2  -5   5    3.30    0.80
   2  -5   5    3.10    0.70
  -3   5  -5   25.00    1.80
   3  -5   5   24.10    1.70
   3  -5   5   22.40    1.40
   3  -5   5   22.10    1.40
   3  -5   5   21.30    1.50
   3  -5   5   21.30    1.40
  -4   5  -5   40.00    2.10
   4  -5   5   41.20    1.80
   4  -5   5   42.70    2.00
   4  -5   5   42.60    1.80
   4  -5   5   41.70    2.00
   4  -5   5   43.30    1.90
  -5   5  -5    3.10    0.80
  -5   5  -5    3.90    0.90
   5  -5   5    4.10    0.80
   5  -5   5    3.00    0.80
   5  -5   5    2.30    0.60
   5  -5   5    2.40    0.60
   6  -5   5   35.60    1.80
   6  -5   5   33.70    1.50
   6  -5   5   31.00    1.40
   6  -5   5   32.10    1.30
   6  -5   5   33.80    1.30
   8   4  -5   50.29    1.90
   8   4  -5   49.40    1.70
  -8  -4   5   48.30    1.60
   7   4  -5   36.20    1.70
   7   4  -5   37.70    2.00
  -7  -4   5   34.80    1.60
   6   4  -5    5.60    0.90
   6   4  -5    6.40    1.20
  -6  -4   5    5.20    1.00
  -6  -4   5    4.40    0.80
   5   4  -5  143.99    4.40
   5   4  -5  146.29    4.70
   5   4  -5  151.98    4.40
  -5  -4   5  147.49    4.00
  -5  -4   5  143.19    4.10
   4   4  -5    1.10    0.90
   4   4  -5    1.20    0.80
   4   4  -5    0.80    0.70
  -4  -4   5    1.10    0.80
  -4  -4   5    2.50    0.70
  -4  -4   5    1.00    0.60
  -4  -4   5    1.50    0.70
  -4  -4   5    1.40    0.80
  -4  -4   5    0.70    0.70
   3   4  -5  253.77    6.30
   3   4  -5  250.47    6.10
   3   4  -5  255.77    6.60
  -3  -4   5  257.07    6.00
  -3  -4   5  264.07    7.20
  -3  -4   5  261.47    6.00
  -3  -4   5  254.97    6.20
  -3  -4   5  252.97    6.30
   2   4  -5  149.59    4.10
   2   4  -5  149.59    4.40
  -2  -4   5  148.19    4.60
  -2  -4   5  149.39    4.10
   1   4  -5  246.28    5.90
   1   4  -5  258.27    6.40
  -1  -4   5  252.97    6.50
  -1  -4   5  254.87    6.10
   0   4  -5   80.29    3.10
   0   4  -5   79.39    2.60
   0  -4   5   79.39    2.70
   0  -4   5   78.69    3.10
  -1   4  -5  205.78    5.50
  -1   4  -5  201.08    5.80
  -1   4  -5  195.88    5.10
   1  -4   5  194.38    5.00
   1  -4   5  196.98    5.60
  -2   4  -5   28.20    1.90
  -2   4  -5   28.10    2.20
   2  -4   5   24.50    1.50
  -3   4  -5    4.70    1.00
   3  -4   5    5.10    0.90
   3  -4   5    6.20    1.00
   3  -4   5    6.30    1.00
   3  -4   5    4.60    0.70
   3  -4   5    5.60    0.90
  -4   4  -5    9.60    1.30
   4  -4   5    8.50    0.90
   4  -4   5    8.00    1.10
   4  -4   5    8.80    1.00
   4  -4   5    8.60    1.10
   4  -4   5    7.70    1.10
  -5   4  -5   11.50    1.30
  -5   4  -5    9.20    1.10
   5  -4   5   11.60    1.00
   5  -4   5   13.00    1.20
   5  -4   5   10.70    1.10
   5  -4   5   10.90    1.20
   5  -4   5   11.90    1.00
   5  -4   5   10.50    1.40
   5  -4   5   11.90    1.10
  -6   4  -5   44.80    2.00
   6  -4   5   47.80    1.90
   6  -4   5   46.80    2.30
   6  -4   5   46.50    1.80
   6  -4   5   44.60    1.60
   7  -4   5    1.40    0.40
   7  -4   5    1.10    0.70
   7  -4   5    0.60    0.40
   8   3  -5   13.60    1.20
   8   3  -5   10.50    1.00
  -8  -3   5    9.30    0.90
   7   3  -5    0.60    0.60
   7   3  -5    1.20    0.90
  -7  -3   5    0.30    0.50
   6   3  -5  208.08    5.10
   6   3  -5  206.58    5.60
  -6  -3   5  201.88    5.10
   5   3  -5   29.70    2.00
   5   3  -5   29.40    1.60
  -5  -3   5   25.30    1.70
  -5  -3   5   30.20    1.80
  -5  -3   5   26.10    1.60
   4   3  -5  710.73   14.70
   4   3  -5  692.63   14.30
   4   3  -5  692.53   14.50
  -4  -3   5  700.03   14.30
  -4  -3   5  703.23   15.20
  -4  -3   5  697.33   14.30
  -4  -3   5  705.63   14.00
   3   3  -5  305.17    7.00
   3   3  -5  303.47    7.20
  -3  -3   5  301.07    7.00
  -3  -3   5  308.37    7.50
   2   3  -5    2.10    0.90
   2   3  -5    1.30    0.50
  -2  -3   5    1.30    0.60
  -2  -3   5    2.70    0.70
   1   3  -5  127.19    3.90
   1   3  -5  131.49    3.60
  -1  -3   5  136.19    3.90
   0   3  -5    6.80    1.10
   0   3  -5    7.10    0.90
   0  -3   5    6.40    1.00
  -1   3  -5  719.73   14.90
  -1   3  -5  714.63   14.50
  -1   3  -5  712.03   14.90
   1  -3   5  735.43   14.80
   1  -3   5  686.33   14.20
  -2   3  -5  429.06    9.70
  -2   3  -5  433.46   10.10
  -2   3  -5  423.86   11.40
   2  -3   5  431.76    9.20
  -3   3  -5   65.99    2.60
  -3   3  -5   64.99    3.00
   3  -3   5   65.09    2.40
  -4   3  -5    3.20    0.80
   4  -3   5    3.00    0.70
   4  -3   5    2.60    0.80
   4  -3   5    4.90    0.90
   4  -3   5    2.90    0.70
   4  -3   5    1.80    1.00
   4  -3   5    2.40    0.80
   4  -3   5    2.90    0.70
  -5   3  -5  100.79    3.50
  -5   3  -5  103.39    3.40
   5  -3   5  109.09    3.90
   5  -3   5  106.49    3.20
   5  -3   5  105.99    3.00
   5  -3   5  105.89    3.20
  -6   3  -5   41.30    2.10
   6  -3   5   41.70    1.60
   6  -3   5   42.90    1.90
   6  -3   5   46.80    2.50
   7  -3   5   12.50    0.90
   7  -3   5   10.80    1.20
   8   2  -5    7.00    0.90
   8   2  -5    9.40    1.10
  -8  -2   5    9.50    0.90
   7   2  -5  106.89    3.30
   7   2  -5  106.19    3.50
  -7  -2   5  105.49    3.20
   6   2  -5    6.90    1.30
   6   2  -5    5.60    1.00
  -6  -2   5    6.00    1.00
  -6  -2   5    5.60    0.90
  -6  -2   5    5.40    0.90
   5   2  -5   71.49    2.50
   5   2  -5   71.79    2.80
  -5  -2   5   67.99    2.60
  -5  -2   5   72.79    2.50
  -5  -2   5   71.89    2.40
   4   2  -5  107.59    3.40
   4   2  -5  107.99    3.50
  -4  -2   5  109.79    3.30
  -4  -2   5  104.49    3.70
   3   2  -5   16.00    1.40
   3   2  -5   12.90    1.10
  -3  -2   5   14.10    1.20
  -3  -2   5   11.80    1.10
   2   2  -5  326.57    7.40
   2   2  -5  324.37    7.20
  -2  -2   5  326.47    7.40
   1   2  -5  283.27    6.70
   1   2  -5  290.07    6.50
  -1  -2   5  285.57    6.50
   0   2  -5    4.70    0.80
   0   2  -5    3.80    0.90
   0  -2   5    4.20    0.70
  -1   2  -5  503.05   10.80
  -1   2  -5  516.85   10.80
  -1   2  -5  504.45   11.10
   1  -2   5  513.05   10.70
  -2   2  -5  103.99    4.20
  -2   2  -5  104.69    3.50
  -2   2  -5  104.09    3.30
  -2   2  -5  103.49    3.40
  -3   2  -5  191.78    6.80
  -3   2  -5  193.78    5.40
  -3   2  -5  195.38    5.00
   3  -2   5  194.08    4.70
  -4   2  -5    3.10    0.80
   4  -2   5    4.20    0.90
   4  -2   5    4.20    0.90
   4  -2   5    3.70    0.90
   4  -2   5    3.20    1.10
  -5   2  -5   40.60    2.10
   5  -2   5   40.20    1.90
   5  -2   5   38.60    2.40
  -6   2  -5  185.08    5.00
   6  -2   5  190.28    4.80
   6  -2   5  185.38    5.50
  -7   2  -5   10.00    1.10
   7  -2   5   11.30    1.40
   7  -2   5   11.20    1.00
   8  -2   5   59.99    1.70
   8  -2   5   57.79    2.10
   8   1  -5    2.50    0.70
   8   1  -5    3.00    0.90
  -8  -1   5    2.70    0.70
   7   1  -5    1.80    0.70
   7   1  -5   -0.50    0.80
  -7  -1   5    1.00    0.60
  -7  -1   5    1.70    0.70
  -7  -1   5    0.50    0.60
   6   1  -5   52.49    2.40
   6   1  -5   48.60    2.10
  -6  -1   5   50.09    2.10
  -6  -1   5   48.10    2.30
  -6  -1   5   49.00    2.10
   5   1  -5   46.40    2.00
   5   1  -5   46.40    2.30
  -5  -1   5   50.79    2.10
  -5  -1   5   50.89    2.00
  -5  -1   5   46.80    2.40
  -5  -1   5   51.09    2.20
  -4  -1   5   27.60    1.70
  -4  -1   5   24.80    1.50
   3   1  -5  459.65   10.00
  -3  -1   5  469.75    9.90
   2   1  -5  749.82   15.20
   2   1  -5  756.02   15.00
  -2  -1   5  752.82   14.90
   1   1  -5   47.80    1.90
   1   1  -5   46.40    2.20
  -1  -1   5   45.40    1.70
   0   1  -5  156.88    4.50
   0   1  -5  149.79    4.20
   0   1  -5  151.98    4.10
   0  -1   5  149.79    3.70
  -1   1  -5    5.30    0.90
  -1   1  -5    5.60    0.80
  -1   1  -5    5.20    1.00
  -1   1  -5    5.00    1.10
  -2   1  -5  226.68    6.90
  -2   1  -5  230.48    5.50
  -2   1  -5  231.58    5.70
  -2   1  -5  242.08    5.70
  -3   1  -5   31.90    1.90
  -3   1  -5   33.00    1.70
  -3   1  -5   33.70    2.70
  -4   1  -5    5.10    1.60
  -4   1  -5    3.80    1.40
   4  -1   5    3.60    1.20
  -5   1  -5    1.30    0.90
   5  -1   5    0.20    0.70
   5  -1   5    0.60    0.90
  -6   1  -5    0.60    0.80
   6  -1   5   -0.50    0.60
   6  -1   5    0.00    0.90
  -7   1  -5    1.40    0.80
   7  -1   5    1.80    0.70
   7  -1   5    1.10    0.80
  -8   1  -5  105.29    2.60
   8  -1   5  107.49    2.70
   8  -1   5  103.29    3.10
   9   0  -5   11.80    0.90
  -9   0   5   15.80    1.10
   8   0  -5   12.40    1.10
  -8   0   5   14.60    1.20
  -8   0   5   14.60    1.10
  -8   0   5   12.90    1.20
   7   0  -5   23.00    1.80
   7   0  -5   23.30    1.60
  -7   0   5   22.20    1.50
  -7   0   5   19.60    1.60
  -7   0   5   22.90    1.60
   6   0  -5   16.10    1.60
   6   0  -5   18.90    1.50
  -6   0   5   16.30    1.40
  -6   0   5   15.40    1.50
  -6   0   5   16.40    1.40
   5   0  -5   32.90    1.90
   5   0  -5   34.30    2.10
  -5   0   5   42.00    3.30
  -5   0   5   31.00    1.80
  -4   0   5   35.40    1.70
  -4   0   5   36.20    1.80
   3   0  -5    8.60    1.30
  -3   0   5    8.10    0.90
   2   0  -5  113.09    3.60
  -2   0   5  111.29    2.90
   1   0  -5  143.99    4.00
   1   0  -5  141.69    4.20
   0   0  -5  243.68    6.10
   0   0  -5  251.17    6.30
  -1   0  -5    6.00    1.00
  -1   0  -5    5.70    1.10
  -2   0  -5  271.47    7.80
  -2   0  -5  277.57    6.40
  -3   0  -5   15.80    1.30
  -3   0  -5   15.00    2.00
  -4   0  -5   14.40    2.30
   4   0   5   14.20    1.80
  -5   0  -5   48.20    2.30
   5   0   5   48.10    2.20
   5   0   5   49.10    2.80
  -6   0  -5    1.60    0.90
   6   0   5    2.80    1.10
   6   0   5    1.30    0.70
  -7   0  -5  142.79    4.00
   7   0   5  142.49    4.40
   7   0   5  137.39    3.70
  -8   0  -5   50.59    1.70
   8   0   5   48.60    1.60
   8   0   5   46.80    2.10
   9  -1  -5    0.80    0.60
  -9   1   5    0.10    0.50
   8  -1  -5    2.10    0.70
   8  -1  -5    1.00    0.60
  -8   1   5    0.60    0.50
  -8   1   5    1.10    0.70
  -8   1   5    2.10    0.70
   7  -1  -5   98.29    3.20
   7  -1  -5  100.19    3.30
   7  -1  -5  104.99    3.00
  -7   1   5  103.89    3.20
  -7   1   5  103.49    3.50
  -7   1   5  100.09    3.20
   6  -1  -5    3.10    0.80
   6  -1  -5    0.70    0.60
   6  -1  -5    1.30    0.90
  -6   1   5    3.10    0.90
  -6   1   5    1.50    0.70
  -6   1   5    1.60    0.80
   5  -1  -5   61.69    2.30
   5  -1  -5   61.59    2.10
   5  -1  -5   60.99    2.50
  -5   1   5   60.99    2.50
  -5   1   5   60.19    2.30
  -4   1   5   53.99    2.20
  -4   1   5   55.89    2.10
  -3   1   5   17.40    1.10
   2  -1  -5 1389.36   26.40
   2  -1  -5 1376.56   27.00
  -2   1   5 1371.36   26.00
   1  -1  -5  881.01   17.50
   1  -1  -5  905.81   18.30
   0  -1  -5    4.20    1.00
   0  -1  -5    3.00    0.80
   0   1   5    3.60    0.70
  -1  -1  -5   94.49    3.00
  -1  -1  -5   92.69    3.80
   1   1   5   94.09    2.80
  -2  -1  -5  194.28    6.30
  -2  -1  -5  190.08    4.90
  -3  -1  -5  154.18    4.30
  -3  -1  -5  152.08    5.90
  -4  -1  -5  216.08    5.80
  -4  -1  -5  211.28    8.20
   4   1   5  214.08    6.20
  -5  -1  -5    2.00    0.90
  -5  -1  -5    2.40    0.80
   5   1   5    3.00    1.20
   5   1   5    3.20    0.90
   5   1   5    4.00    0.90
  -6  -1  -5    0.10    0.70
   6   1   5    1.40    1.00
   6   1   5    0.40    0.60
   6   1   5    0.30    0.70
  -7  -1  -5   27.10    1.70
   7   1   5   24.60    1.90
   7   1   5   24.80    1.40
   7   1   5   25.70    1.40
  -8  -1  -5    1.20    0.60
   8   1   5    0.20    0.50
   8   1   5    0.10    0.40
   8   1   5    0.20    0.60
   8  -2  -5   29.90    1.40
   8  -2  -5   25.30    1.50
  -8   2   5   28.00    1.40
  -8   2   5   24.40    1.60
  -8   2   5   29.00    1.60
   7  -2  -5    1.50    0.60
   7  -2  -5    2.50    0.80
  -7   2   5    1.70    0.90
  -7   2   5    3.10    0.70
  -7   2   5    2.30    0.80
   6  -2  -5    4.90    0.80
   6  -2  -5    5.10    0.80
   6  -2  -5    5.00    0.90
   6  -2  -5    4.90    1.00
   6  -2  -5    5.50    0.90
  -6   2   5    5.80    0.90
  -6   2   5    4.00    1.00
   5  -2  -5    4.80    1.00
   5  -2  -5    3.30    0.80
   5  -2  -5    3.00    0.70
   5  -2  -5    3.50    0.80
   5  -2  -5    3.20    0.70
  -5   2   5    2.90    0.80
  -5   2   5    4.20    0.80
  -4   2   5  102.49    3.20
  -4   2   5  104.59    3.20
   3  -2  -5  277.87    7.50
  -3   2   5  274.07    6.20
  -3   2   5  260.37    6.10
   2  -2  -5    0.90    0.70
   2  -2  -5    1.70    0.60
  -2   2   5    1.20    0.40
   1  -2  -5    0.70    0.70
   1  -2  -5    4.70    0.80
  -1   2   5    0.50    0.40
   0  -2  -5  124.69    3.60
   0  -2  -5  128.59    4.50
  -1  -2  -5   76.89    3.60
  -1  -2  -5   77.69    2.70
   1   2   5   84.39    2.60
  -2  -2  -5    1.70    0.90
  -2  -2  -5    1.60    0.70
   2   2   5    2.30    0.70
  -3  -2  -5   88.59    3.10
  -3  -2  -5   86.49    4.40
  -4  -2  -5    9.90    1.30
  -4  -2  -5    8.50    1.20
  -4  -2  -5   10.70    1.20
  -4  -2  -5    9.60    1.10
   4   2   5    7.70    1.40
   4   2   5    7.70    1.60
  -5  -2  -5    0.60    0.80
  -5  -2  -5    1.00    0.70
   5   2   5   -0.10    0.70
   5   2   5    0.30    1.10
   5   2   5    0.70    0.80
  -6  -2  -5    0.80    0.80
   6   2   5   -0.30    0.90
   6   2   5    0.80    0.70
   6   2   5   -0.10    0.60
  -7  -2  -5    1.00    0.70
   7   2   5    1.30    0.80
   7   2   5    1.40    0.60
   7   2   5    1.30    0.60
   8  -3  -5    9.80    0.90
   8  -3  -5   10.20    0.90
  -8   3   5   10.20    0.90
  -8   3   5    9.60    1.10
  -8   3   5   10.10    1.10
   7  -3  -5   43.90    1.80
   7  -3  -5   42.20    1.80
   7  -3  -5   39.80    1.90
   7  -3  -5   43.60    1.80
  -7   3   5   40.80    2.00
  -7   3   5   39.70    1.80
  -7   3   5   41.60    2.20
   6  -3  -5    2.10    0.70
   6  -3  -5    0.30    0.60
   6  -3  -5    0.40    0.60
   6  -3  -5    1.00    0.60
  -6   3   5    1.40    0.70
  -6   3   5    0.60    0.70
   5  -3  -5   55.19    2.20
   5  -3  -5   55.59    2.00
   5  -3  -5   52.79    1.90
   5  -3  -5   55.29    2.10
   5  -3  -5   52.39    2.40
   5  -3  -5   51.99    2.30
  -5   3   5   52.99    2.40
  -5   3   5   52.69    2.40
   4  -3  -5  351.76    8.00
   4  -3  -5  341.97    8.10
  -4   3   5  370.76    8.00
  -4   3   5  366.76    8.10
  -4   3   5  352.96   10.40
   3  -3  -5  115.69    4.60
  -3   3   5  115.59    3.20
  -3   3   5  114.59    3.30
   2  -3  -5  470.65   11.50
  -2   3   5  465.45    9.70
   1  -3  -5    8.70    1.00
   1  -3  -5    6.50    1.30
  -1   3   5    6.10    0.70
   0  -3  -5 1437.36   29.90
   0  -3  -5 1489.35   28.30
   0   3   5 1493.65   27.90
  -1  -3  -5    9.70    1.70
  -1  -3  -5    5.60    1.00
   1   3   5    6.80    0.90
  -2  -3  -5  191.58    5.20
  -2  -3  -5  190.68    6.80
   2   3   5  196.88    5.10
  -3  -3  -5   28.30    1.90
  -3  -3  -5   27.30    2.70
  -3  -3  -5   23.70    1.80
   3   3   5   19.70    2.30
   3   3   5   15.10    2.50
  -4  -3  -5  276.47    7.10
  -4  -3  -5  270.37    6.30
  -4  -3  -5  275.67    6.70
  -4  -3  -5  269.07    6.50
   4   3   5  276.17    7.00
   4   3   5  272.47    8.10
  -5  -3  -5  114.69    3.50
  -5  -3  -5  114.39    3.40
  -5  -3  -5  114.89    3.70
   5   3   5  115.99    4.30
   5   3   5  112.09    3.60
   5   3   5  114.99    3.60
  -6  -3  -5   42.40    2.10
  -6  -3  -5   44.70    1.90
   6   3   5   49.80    2.60
   6   3   5   41.40    2.00
   6   3   5   45.20    1.90
  -7  -3  -5   17.40    1.30
   7   3   5   16.80    1.10
   7   3   5   17.40    1.20
   7   3   5   19.30    1.50
   8  -4  -5    1.10    0.50
   8  -4  -5    0.90    0.50
   8  -4  -5    0.30    0.60
  -8   4   5    0.60    0.70
  -8   4   5    0.90    1.10
   7  -4  -5    0.60    0.70
   7  -4  -5    1.70    0.60
   7  -4  -5   -0.10    0.50
   7  -4  -5   -0.30    0.60
   7  -4  -5    2.10    1.10
   7  -4  -5    1.30    0.50
  -7   4   5    0.90    0.80
  -7   4   5    0.80    0.70
   6  -4  -5   35.50    1.60
   6  -4  -5   35.30    1.70
   6  -4  -5   35.30    1.60
   6  -4  -5   34.10    1.80
   6  -4  -5   31.70    1.70
   6  -4  -5   34.60    2.00
  -6   4   5   34.10    2.00
  -6   4   5   35.70    2.10
   5  -4  -5   58.59    2.30
   5  -4  -5   56.09    2.40
   5  -4  -5   58.69    2.60
   5  -4  -5   58.59    2.30
   5  -4  -5   58.09    2.10
   5  -4  -5   58.59    2.30
   5  -4  -5   57.59    2.00
  -5   4   5   61.19    2.60
  -5   4   5   58.39    2.60
   4  -4  -5   18.20    1.40
   4  -4  -5   21.20    1.60
   4  -4  -5   19.00    1.50
   4  -4  -5   19.80    1.30
   4  -4  -5   19.50    1.50
   4  -4  -5   18.10    1.20
   4  -4  -5   18.20    1.30
  -4   4   5   19.30    1.50
  -4   4   5   17.40    1.50
   3  -4  -5  449.95   10.10
   3  -4  -5  446.76    9.90
   3  -4  -5  461.55   12.10
  -3   4   5  476.65    9.90
  -3   4   5  460.65    9.80
   2  -4  -5    0.70    0.70
   2  -4  -5   -0.50    0.70
  -2   4   5    0.60    0.40
   1  -4  -5   79.69    3.90
   1  -4  -5   74.39    2.70
  -1   4   5   78.09    2.50
   0  -4  -5   12.50    1.90
   0  -4  -5   11.40    1.20
   0   4   5   11.30    1.00
  -1  -4  -5    1.00    0.70
  -1  -4  -5    1.60    1.00
   1   4   5    0.80    0.50
  -2  -4  -5   39.60    3.10
  -2  -4  -5   44.20    2.30
  -2  -4  -5   41.70    2.00
  -2  -4  -5   43.50    2.40
   2   4   5   39.90    2.10
  -3  -4  -5   22.70    1.40
  -3  -4  -5   22.10    1.50
  -3  -4  -5   21.50    1.60
  -3  -4  -5   21.30    1.70
  -3  -4  -5   22.50    1.80
  -3  -4  -5   20.70    1.40
  -3  -4  -5   22.60    1.40
  -3  -4  -5   20.60    1.80
  -3  -4  -5   21.20    1.40
   3   4   5   16.30    2.20
   3   4   5   13.10    2.70
  -4  -4  -5   44.90    1.90
  -4  -4  -5   44.00    2.50
  -4  -4  -5   42.50    2.00
  -4  -4  -5   40.40    2.10
  -4  -4  -5   44.60    2.00
  -4  -4  -5   41.00    2.00
   4   4   5   45.20    3.40
   4   4   5   42.50    2.80
   4   4   5   46.10    2.60
  -5  -4  -5   49.10    2.20
  -5  -4  -5   48.00    2.30
  -5  -4  -5   51.79    2.10
   5   4   5   52.29    2.30
   5   4   5   47.50    2.80
  -6  -4  -5   23.50    1.40
  -6  -4  -5   20.60    1.50
   6   4   5   23.90    1.80
   6   4   5   23.70    1.40
   6   4   5   23.20    1.60
  -7  -4  -5    5.20    0.80
   7   4   5    3.30    0.70
   7  -5  -5    8.00    0.80
   7  -5  -5    7.70    0.90
   7  -5  -5    8.80    0.80
   7  -5  -5    7.50    0.80
   7  -5  -5    8.20    0.80
   7  -5  -5    9.80    1.10
  -7   5   5    7.50    1.10
  -7   5   5    8.50    1.00
   6  -5  -5   26.20    1.30
   6  -5  -5   29.90    1.60
   6  -5  -5   30.00    1.60
   6  -5  -5   28.00    1.50
   6  -5  -5   25.20    1.80
   6  -5  -5   27.50    1.40
  -6   5   5   25.00    1.70
  -6   5   5   21.80    1.70
   5  -5  -5    6.30    1.20
   5  -5  -5    7.50    1.00
   5  -5  -5    5.30    0.90
   5  -5  -5    5.90    0.80
   5  -5  -5    3.80    0.80
   5  -5  -5    5.20    0.80
  -5   5   5    6.90    1.10
  -5   5   5    5.90    1.00
   4  -5  -5   14.30    1.60
   4  -5  -5   18.60    1.60
   4  -5  -5   13.50    1.10
   4  -5  -5   15.20    1.20
   4  -5  -5   14.60    1.30
   4  -5  -5   14.00    1.20
   4  -5  -5   14.20    1.30
  -4   5   5   14.40    1.30
  -4   5   5   15.90    1.40
   3  -5  -5 1083.89   21.20
   3  -5  -5 1090.29   21.60
   3  -5  -5 1092.99   21.30
   3  -5  -5 1116.29   22.10
   3  -5  -5 1089.29   21.20
   3  -5  -5 1090.39   21.50
  -3   5   5 1130.49   21.60
   2  -5  -5 1337.07   25.70
   2  -5  -5 1338.97   25.40
   2  -5  -5 1334.67   25.60
   2  -5  -5 1313.57   26.00
   2  -5  -5 1336.27   26.20
   2  -5  -5 1323.67   25.40
  -2   5   5 1375.76   25.70
   1  -5  -5    6.30    1.00
   1  -5  -5    6.50    1.10
   1  -5  -5    5.80    1.20
   1  -5  -5    6.30    1.10
   1  -5  -5    6.80    1.00
   1  -5  -5    6.40    0.80
  -1   5   5    6.00    0.80
   0  -5  -5  132.49    3.70
   0  -5  -5  135.89    4.20
   0  -5  -5  129.99    3.70
   0  -5  -5  134.79    3.80
   0  -5  -5  137.89    3.60
   0  -5  -5  135.09    4.20
   0  -5  -5  136.19    3.90
   0   5   5  134.29    3.70
  -1  -5  -5   22.30    1.80
  -1  -5  -5   21.40    1.60
  -1  -5  -5   18.80    1.30
  -1  -5  -5   20.80    1.40
  -1  -5  -5   20.20    1.50
  -1  -5  -5   17.70    1.70
  -1  -5  -5   19.20    1.40
  -1  -5  -5   19.90    1.40
   1   5   5   20.90    1.50
  -2  -5  -5   -0.10    0.80
  -2  -5  -5   -0.40    0.60
  -2  -5  -5    1.40    0.90
  -2  -5  -5   -0.40    0.60
  -2  -5  -5    1.40    0.70
  -2  -5  -5   -0.30    0.60
  -2  -5  -5    0.30    0.70
  -2  -5  -5    0.40    0.60
   2   5   5    0.00    0.70
  -3  -5  -5   12.40    1.30
  -3  -5  -5   12.70    1.50
  -3  -5  -5   12.80    1.20
  -3  -5  -5   13.20    1.20
  -3  -5  -5   11.70    1.10
  -3  -5  -5   17.00    1.90
  -3  -5  -5   13.60    1.40
  -3  -5  -5   12.30    1.20
   3   5   5    8.80    1.90
   3   5   5    6.80    2.30
  -4  -5  -5    0.10    0.60
  -4  -5  -5    0.10    0.80
  -4  -5  -5    0.90    0.70
  -4  -5  -5    0.70    0.60
  -4  -5  -5    0.60    0.60
  -4  -5  -5    0.40    0.70
  -4  -5  -5    2.20    0.80
   4   5   5    1.70    1.10
   4   5   5    1.00    1.00
   4   5   5    0.00    1.30
  -5  -5  -5  201.58    5.20
  -5  -5  -5  212.18    5.10
  -5  -5  -5  211.48    5.00
  -5  -5  -5  211.78    5.20
   5   5   5  217.38    5.10
   5   5   5  217.48    5.80
  -6  -5  -5   73.69    2.40
  -6  -5  -5   71.19    2.20
   6   5   5   70.79    2.40
   7  -6  -5   50.19    1.70
   7  -6  -5   49.10    1.90
   7  -6  -5   47.00    1.60
   7  -6  -5   48.10    1.50
   7  -6  -5   51.09    1.70
  -7   6   5   47.10    1.80
   6  -6  -5   39.00    1.60
   6  -6  -5   39.20    1.60
   6  -6  -5   44.60    2.00
   6  -6  -5   39.90    1.50
   6  -6  -5   43.40    1.70
   6  -6  -5   40.70    1.50
  -6   6   5   34.20    1.70
  -6   6   5   33.00    1.80
   5  -6  -5    1.60    0.60
   5  -6  -5    0.50    0.60
   5  -6  -5    0.30    0.70
   5  -6  -5    0.10    0.50
   5  -6  -5    0.80    0.50
   5  -6  -5    1.00    0.70
  -5   6   5    1.20    0.60
  -5   6   5    1.50    0.70
   4  -6  -5    9.40    1.00
   4  -6  -5    9.20    1.00
   4  -6  -5   10.30    1.10
   4  -6  -5    9.00    1.10
   4  -6  -5    9.40    1.10
   4  -6  -5   11.70    1.40
  -4   6   5    9.00    1.10
   3  -6  -5   37.00    2.00
   3  -6  -5   40.00    2.00
   3  -6  -5   39.20    1.90
   3  -6  -5   41.30    2.30
   3  -6  -5   38.20    1.80
   3  -6  -5   37.30    1.80
  -3   6   5   40.80    1.90
   2  -6  -5   66.59    2.60
   2  -6  -5   63.39    2.50
   2  -6  -5   64.29    2.60
   2  -6  -5   66.59    2.40
   2  -6  -5   71.49    3.00
  -2   6   5   68.69    2.50
   1  -6  -5    9.40    1.00
   1  -6  -5   10.40    1.20
   1  -6  -5    6.90    1.00
   1  -6  -5    8.80    1.40
   1  -6  -5    9.60    1.20
   1  -6  -5    6.50    1.00
  -1   6   5    8.40    1.00
   0  -6  -5   66.39    2.50
   0  -6  -5   64.89    2.30
   0  -6  -5   64.49    2.90
   0  -6  -5   63.89    2.60
   0  -6  -5   66.39    2.80
   0  -6  -5   64.19    2.40
   0  -6  -5   64.39    2.40
   0   6   5   67.79    2.50
  -1  -6  -5    3.70    0.90
  -1  -6  -5    4.30    0.90
  -1  -6  -5    4.30    1.10
  -1  -6  -5    4.20    1.10
  -1  -6  -5    4.00    0.90
  -1  -6  -5    3.90    0.90
  -1  -6  -5    3.90    0.90
  -1  -6  -5    2.80    0.80
   1   6   5    3.50    0.90
  -2  -6  -5    3.50    0.80
  -2  -6  -5    4.70    0.80
  -2  -6  -5    3.40    0.90
  -2  -6  -5    4.70    1.10
  -2  -6  -5    5.10    1.20
  -2  -6  -5    4.30    0.90
  -2  -6  -5    4.40    0.90
  -2  -6  -5    4.20    0.90
   2   6   5    4.30    1.10
  -3  -6  -5   11.10    1.20
  -3  -6  -5   10.60    1.50
  -3  -6  -5   11.80    1.20
  -3  -6  -5   11.20    1.00
  -3  -6  -5   11.90    1.40
  -3  -6  -5   11.40    1.20
  -3  -6  -5   12.40    1.20
  -3  -6  -5   12.80    1.30
   3   6   5   10.50    1.90
   3   6   5    9.20    2.30
  -4  -6  -5    7.50    1.00
  -4  -6  -5    7.60    1.00
  -4  -6  -5    8.60    1.00
  -4  -6  -5   10.70    1.10
  -4  -6  -5    8.80    1.00
  -4  -6  -5    6.70    1.00
   4   6   5    7.80    1.30
   4   6   5   10.30    1.80
   4   6   5    9.60    1.20
  -5  -6  -5    2.70    0.70
  -5  -6  -5    1.80    0.70
  -5  -6  -5    2.30    0.60
  -5  -6  -5    1.50    0.60
  -5  -6  -5    2.70    0.70
   5   6   5    3.00    0.80
  -6  -6  -5    0.80    0.50
  -6  -6  -5    1.60    0.60
   6   6   5    1.70    0.60
   6  -7  -5    3.80    0.80
   6  -7  -5    5.50    0.90
   6  -7  -5    4.80    0.60
   6  -7  -5    4.60    0.70
   6  -7  -5    3.80    0.70
   5  -7  -5   10.50    1.20
   5  -7  -5    8.40    0.90
   5  -7  -5   10.20    1.00
   5  -7  -5    9.80    0.90
   5  -7  -5   10.30    1.00
   4  -7  -5   30.50    1.50
   4  -7  -5   30.70    1.60
   4  -7  -5   29.30    1.90
   4  -7  -5   30.70    1.50
   4  -7  -5   28.60    1.60
  -4   7   5   31.30    1.70
   3  -7  -5    2.10    0.70
   3  -7  -5    0.90    0.60
   3  -7  -5    1.00    0.70
   3  -7  -5    1.80    0.70
   3  -7  -5    1.60    0.60
   3  -7  -5    1.60    0.80
  -3   7   5    1.60    0.60
   2  -7  -5  274.97    6.50
   2  -7  -5  272.17    6.50
   2  -7  -5  272.97    6.20
   2  -7  -5  276.47    7.00
   2  -7  -5  278.07    6.40
  -2   7   5  267.77    6.50
   1  -7  -5  293.87    7.00
   1  -7  -5  294.47    6.80
   1  -7  -5  296.87    6.60
   1  -7  -5  295.77    7.40
   1  -7  -5  294.87    6.90
  -1   7   5  287.07    6.80
   0  -7  -5   65.39    2.30
   0  -7  -5   64.49    2.50
   0  -7  -5   62.59    2.60
   0  -7  -5   63.39    2.40
   0  -7  -5   60.89    2.40
   0  -7  -5   64.49    2.90
   0   7   5   63.29    2.50
  -1  -7  -5   85.89    3.30
  -1  -7  -5   89.99    2.90
  -1  -7  -5   86.99    2.90
  -1  -7  -5   87.09    3.40
  -1  -7  -5   89.39    2.90
  -1  -7  -5   91.59    2.80
  -1  -7  -5   86.29    3.10
   1   7   5   86.99    3.20
  -2  -7  -5    5.50    0.90
  -2  -7  -5    7.50    0.90
  -2  -7  -5    5.20    0.90
  -2  -7  -5    4.90    0.80
  -2  -7  -5    5.50    1.00
  -2  -7  -5    4.70    1.00
  -2  -7  -5    6.80    1.00
   2   7   5    5.80    1.40
  -3  -7  -5  152.48    3.90
  -3  -7  -5  149.09    4.00
  -3  -7  -5  144.89    3.80
  -3  -7  -5  144.79    3.60
  -3  -7  -5  147.29    3.90
  -3  -7  -5  153.48    4.00
   3   7   5  139.29    5.00
   3   7   5  145.49    4.30
  -4  -7  -5   12.20    1.10
  -4  -7  -5   10.20    1.00
  -4  -7  -5   12.50    1.00
  -4  -7  -5   11.30    1.00
  -4  -7  -5   11.90    1.00
  -5  -7  -5   16.80    1.00
  -5  -7  -5   15.70    0.90
  -5  -7  -5   16.00    1.10
   5   7   5   14.80    1.10
   5  -8  -5   26.80    1.20
   5  -8  -5   25.50    1.10
   5  -8  -5   26.30    1.50
   5  -8  -5   25.30    1.10
   4  -8  -5   29.00    1.30
   4  -8  -5   31.90    1.80
   4  -8  -5   31.40    1.40
   4  -8  -5   31.10    1.30
   4  -8  -5   28.70    1.40
   3  -8  -5   45.70    2.20
   3  -8  -5   44.70    1.70
   3  -8  -5   44.30    1.80
   3  -8  -5   45.10    1.80
   2  -8  -5   10.00    1.00
   2  -8  -5    9.60    1.00
   2  -8  -5   13.90    1.20
   2  -8  -5   11.70    1.30
   2  -8  -5   10.00    0.90
  -2   8   5    9.90    1.00
   1  -8  -5   84.49    3.10
   1  -8  -5   86.79    2.80
   1  -8  -5   82.89    2.50
   1  -8  -5   84.59    2.70
   1  -8  -5   85.39    2.70
  -1   8   5   81.59    2.70
   0  -8  -5    7.40    0.90
   0  -8  -5    6.00    1.00
   0  -8  -5    6.50    1.00
   0  -8  -5    6.50    1.10
   0  -8  -5    9.10    0.90
   0  -8  -5    6.90    0.90
   0   8   5    7.10    1.00
  -1  -8  -5    2.00    0.80
  -1  -8  -5    1.80    0.60
  -1  -8  -5    1.60    0.70
  -1  -8  -5    1.80    0.70
  -1  -8  -5    3.00    0.70
  -1  -8  -5    2.00    0.60
   1   8   5    2.60    0.90
  -2  -8  -5    1.20    0.70
  -2  -8  -5    2.10    0.60
  -2  -8  -5    0.70    0.60
  -2  -8  -5    2.40    0.60
  -2  -8  -5    2.30    0.60
  -3  -8  -5    5.30    0.80
  -3  -8  -5    5.30    0.80
  -3  -8  -5    5.00    0.90
  -3  -8  -5    5.90    0.80
  -3  -8  -5    7.10    0.70
   3  -9  -5   29.80    1.20
   3  -9  -5   28.10    1.10
   2  -9  -5   -0.10    0.40
   2  -9  -5    0.90    0.50
   2  -9  -5    0.80    0.50
   2  -9  -5    0.20    0.60
   1  -9  -5   16.10    0.90
   1  -9  -5   17.50    1.10
   1  -9  -5   15.50    1.00
   1  -9  -5   15.50    1.30
   1  -9  -5   18.20    1.10
   0  -9  -5   17.20    1.20
   0  -9  -5   17.30    1.00
   0  -9  -5   16.10    1.10
  -1  -9  -5   13.50    1.00
  -1  -9  -5   13.00    1.00
  -1  -9  -5   14.80    1.00
  -1  -9  -5   14.70    1.10
  -4  -8   6    0.60    0.60
  -4  -8   6    1.20    0.40
  -4  -8   6    0.90    0.50
  -4  -8   6    0.80    0.50
  -3  -8   6    1.30    0.50
  -3  -8   6    0.90    0.60
  -3  -8   6    2.50    0.60
  -3  -8   6    0.20    0.40
  -2  -8   6    0.60    0.60
  -2  -8   6    1.00    0.60
  -2  -8   6    0.50    0.50
  -2  -8   6    0.70    0.50
  -1  -8   6    1.00    0.60
  -1  -8   6    1.10    0.50
  -1  -8   6    1.70    0.60
   0  -8   6   36.10    1.60
   0  -8   6   36.70    1.60
   0  -8   6   35.80    1.40
   0  -8   6   35.30    1.50
   0  -8   6   38.10    1.50
   1  -8   6   59.79    2.00
   1  -8   6   62.69    2.00
   1  -8   6   65.29    2.00
   1  -8   6   61.39    2.10
   2  -8   6    1.70    0.50
   2  -8   6    2.20    0.60
   2  -8   6    2.40    0.50
   2  -8   6    3.20    0.60
   3  -8   6   39.10    1.40
   3  -8   6   41.30    1.50
   3  -8   6   38.80    1.40
   5   7  -6    1.00    0.60
  -5  -7   6   -0.60    0.40
  -5  -7   6   -0.30    0.60
  -5  -7   6    0.40    0.40
  -5  -7   6   -0.20    0.40
  -4  -7   6    0.10    0.50
  -4  -7   6    1.00    0.60
  -4  -7   6   -0.20    0.60
  -4  -7   6    0.70    0.50
   3   7  -6    0.30    0.60
  -3  -7   6    1.00    0.70
  -3  -7   6    1.20    0.70
  -3  -7   6    0.70    0.60
  -3  -7   6    1.40    0.70
   2   7  -6   41.20    2.10
  -2  -7   6   43.70    1.90
  -2  -7   6   45.50    1.90
  -2  -7   6   44.80    1.90
  -2  -7   6   45.70    1.90
   1   7  -6   60.99    2.60
  -1  -7   6   60.69    2.20
  -1  -7   6   60.89    2.10
  -1  -7   6   60.59    2.30
  -1  -7   6   56.99    2.20
  -1  -7   6   61.09    2.40
  -1  -7   6   60.19    2.20
   0   7  -6   52.69    2.50
   0  -7   6   54.49    2.10
   0  -7   6   50.99    2.10
   0  -7   6   51.39    2.20
   0  -7   6   49.90    2.20
   0  -7   6   51.39    2.00
  -1   7  -6    0.90    0.80
   1  -7   6    1.00    0.60
   1  -7   6   -1.00    0.60
   1  -7   6    0.30    0.60
   1  -7   6    1.00    0.60
   1  -7   6    0.80    0.70
  -2   7  -6   95.29    3.30
   2  -7   6   98.39    3.00
   2  -7   6  101.59    2.90
   2  -7   6   98.79    2.90
   2  -7   6   91.79    3.10
   2  -7   6   98.59    2.80
   3  -7   6   60.29    2.20
   3  -7   6   59.39    2.20
   3  -7   6   57.99    1.90
   3  -7   6   63.79    2.00
   3  -7   6   59.79    2.00
  -4   7  -6   -0.30    0.50
   4  -7   6   -0.60    0.50
   4  -7   6   -0.10    0.40
   4  -7   6    0.40    0.40
   4  -7   6    0.40    0.50
   4  -7   6    0.70    0.50
   6   6  -6    5.10    0.90
  -6  -6   6    3.90    0.60
  -6  -6   6    4.20    0.70
   5   6  -6    5.00    1.00
  -5  -6   6    4.70    0.70
  -5  -6   6    5.70    0.90
  -5  -6   6    5.30    0.80
  -5  -6   6    5.50    0.80
   4   6  -6    1.40    0.80
   4   6  -6    2.00    0.80
  -4  -6   6    1.90    0.80
  -4  -6   6    2.50    0.70
  -4  -6   6    1.20    0.60
  -4  -6   6    2.10    0.70
   3   6  -6    5.30    1.40
   3   6  -6    6.90    1.10
  -3  -6   6    5.70    0.90
  -3  -6   6    5.90    1.00
  -3  -6   6    6.00    0.90
  -3  -6   6    7.80    1.00
   2   6  -6    0.40    0.70
   2   6  -6    1.90    1.10
  -2  -6   6    1.60    0.70
  -2  -6   6    0.60    0.70
  -2  -6   6    0.10    0.70
  -2  -6   6    0.50    0.70
  -2  -6   6   -0.10    0.60
  -2  -6   6    1.00    0.70
   1   6  -6   83.09    3.10
   1   6  -6   77.59    3.60
  -1  -6   6   79.09    2.80
  -1  -6   6   77.29    2.70
  -1  -6   6   79.39    2.70
  -1  -6   6   80.09    3.00
  -1  -6   6   82.59    2.70
  -1  -6   6   80.59    2.60
   0   6  -6   23.70    2.30
   0   6  -6   26.70    1.90
   0  -6   6   27.00    1.80
   0  -6   6   23.50    1.60
   0  -6   6   29.20    1.70
   0  -6   6   25.00    1.50
   0  -6   6   24.60    1.50
  -1   6  -6   10.30    1.40
   1  -6   6    8.00    1.10
   1  -6   6    9.60    1.20
   1  -6   6    9.70    1.00
   1  -6   6    8.60    1.10
   1  -6   6    8.50    1.00
   1  -6   6   11.10    1.10
  -2   6  -6   32.00    2.10
   2  -6   6   35.20    1.80
   2  -6   6   37.10    1.70
   2  -6   6   31.90    1.70
   2  -6   6   36.50    1.90
   2  -6   6   35.40    1.90
  -3   6  -6    4.80    0.90
   3  -6   6    3.50    0.80
   3  -6   6    3.70    0.90
   3  -6   6    2.50    0.70
   3  -6   6    2.60    0.80
   3  -6   6    4.60    0.80
  -4   6  -6    3.20    0.80
   4  -6   6    3.70    0.60
   4  -6   6    3.30    0.70
   4  -6   6    3.70    0.80
   4  -6   6    2.30    0.60
   4  -6   6    3.30    0.80
  -5   6  -6    8.60    0.90
   5  -6   6    8.80    0.80
   5  -6   6   10.20    0.80
   5  -6   6    7.90    0.80
   5  -6   6    8.30    0.80
   7   5  -6    0.20    0.70
  -7  -5   6    0.70    0.50
   6   5  -6   57.59    2.40
  -6  -5   6   54.79    2.10
  -6  -5   6   56.39    2.00
   5   5  -6    9.10    1.20
  -5  -5   6    5.50    1.10
  -5  -5   6    9.00    1.10
  -5  -5   6    8.50    1.00
   4   5  -6    4.30    1.00
   4   5  -6    3.00    1.20
   4   5  -6    2.90    1.00
  -4  -5   6    2.40    0.70
  -4  -5   6    2.50    1.00
  -4  -5   6    1.10    0.60
  -4  -5   6    2.70    0.70
  -4  -5   6    3.90    0.90
   3   5  -6   17.20    1.60
   3   5  -6   20.00    2.10
  -3  -5   6   22.00    1.50
  -3  -5   6   18.00    1.60
  -3  -5   6   19.60    1.50
  -3  -5   6   20.10    1.40
  -3  -5   6   18.70    1.50
  -3  -5   6   19.40    1.40
   2   5  -6  201.08    5.90
   2   5  -6  190.78    5.30
  -2  -5   6  202.68    4.90
  -2  -5   6  195.78    5.00
  -2  -5   6  199.68    4.90
  -2  -5   6  195.68    5.30
  -2  -5   6  191.48    4.90
  -2  -5   6  192.58    4.80
   1   5  -6   69.09    2.80
   1   5  -6   69.89    3.30
  -1  -5   6   67.69    2.50
  -1  -5   6   68.49    2.60
  -1  -5   6   68.69    2.40
  -1  -5   6   68.59    2.40
  -1  -5   6   69.59    2.80
  -1  -5   6   70.69    2.50
   0   5  -6  701.43   14.60
   0   5  -6  713.63   15.30
   0  -5   6  685.33   13.90
   0  -5   6  699.83   14.50
   0  -5   6  684.33   14.00
   0  -5   6  689.93   13.80
   0  -5   6  673.73   14.20
   0  -5   6  689.03   14.00
  -1   5  -6    3.80    1.80
  -1   5  -6    2.30    0.90
   1  -5   6    5.20    1.00
   1  -5   6    2.50    0.80
   1  -5   6    2.90    0.90
   1  -5   6    3.30    0.80
   1  -5   6    3.30    0.70
   1  -5   6    2.20    0.70
  -2   5  -6    3.00    1.10
   2  -5   6    2.20    0.90
   2  -5   6    3.00    0.80
   2  -5   6    2.20    0.70
   2  -5   6    2.80    0.90
   2  -5   6    2.30    0.60
   2  -5   6    3.80    0.80
  -3   5  -6   20.70    1.70
   3  -5   6   20.40    1.60
   3  -5   6   23.50    1.50
   3  -5   6   17.10    1.50
   3  -5   6   20.30    1.30
   3  -5   6   24.00    1.50
  -4   5  -6   50.69    2.30
   4  -5   6   51.09    2.00
   4  -5   6   49.90    1.90
   4  -5   6   50.49    2.20
   4  -5   6   50.29    2.10
   4  -5   6   47.70    1.90
  -5   5  -6   65.89    2.50
   5  -5   6   65.99    2.10
   5  -5   6   68.19    2.30
   5  -5   6   70.89    2.40
   5  -5   6   69.19    2.10
   6  -5   6   19.00    0.90
   6  -5   6   20.10    1.10
   7   4  -6   13.90    1.00
   7   4  -6   11.10    1.20
  -7  -4   6   12.60    1.00
   6   4  -6    1.20    0.80
  -6  -4   6    1.50    0.70
  -6  -4   6    1.60    0.60
   5   4  -6  197.78    5.30
  -5  -4   6  194.28    4.90
  -5  -4   6  195.28    5.10
  -5  -4   6  200.58    5.20
   4   4  -6   10.70    1.30
   4   4  -6   12.70    1.70
   4   4  -6   11.80    1.40
  -4  -4   6   10.10    1.20
  -4  -4   6   13.50    1.30
  -4  -4   6   15.10    1.30
  -4  -4   6   14.90    1.30
  -4  -4   6   13.00    1.40
   3   4  -6   51.79    2.80
   3   4  -6   51.39    2.40
   3   4  -6   50.99    2.40
  -3  -4   6   47.70    2.00
  -3  -4   6   53.09    2.10
  -3  -4   6   52.19    2.10
  -3  -4   6   52.69    2.10
  -3  -4   6   49.40    2.10
  -3  -4   6   47.70    2.30
   2   4  -6  329.57    8.20
   2   4  -6  321.67    7.70
  -2  -4   6  319.67    7.10
  -2  -4   6  321.37    7.20
  -2  -4   6  320.47    7.10
  -2  -4   6  322.57    7.60
  -2  -4   6  321.67    7.30
  -2  -4   6  325.67    7.10
   1   4  -6   -0.70    0.90
   1   4  -6    0.20    0.60
  -1  -4   6   -0.40    0.60
  -1  -4   6    0.30    0.60
   0   4  -6  291.37    7.60
   0   4  -6  293.27    7.10
   0  -4   6  291.67    6.90
   0  -4   6  284.47    7.40
  -1   4  -6    0.00    1.10
  -1   4  -6    0.00    0.70
   1  -4   6    0.70    0.70
   1  -4   6    0.40    0.60
   1  -4   6   -0.60    0.70
   1  -4   6   -0.40    0.80
   1  -4   6    1.00    0.60
   1  -4   6    0.90    0.50
  -2   4  -6  110.49    4.00
   2  -4   6  118.69    3.70
   2  -4   6  108.59    3.10
   2  -4   6  116.19    3.60
   2  -4   6  108.19    3.00
   2  -4   6  106.49    3.20
   2  -4   6  112.29    3.30
  -3   4  -6   15.50    1.50
   3  -4   6   15.80    1.30
   3  -4   6   17.30    1.40
   3  -4   6   16.50    1.30
   3  -4   6   17.10    1.50
   3  -4   6   17.60    1.20
  -4   4  -6  136.39    4.30
   4  -4   6  137.29    3.60
   4  -4   6  143.79    4.10
   4  -4   6  140.79    3.90
   4  -4   6  139.89    3.60
   4  -4   6  140.09    3.80
  -5   4  -6   22.10    1.60
  -5   4  -6   21.40    1.60
   5  -4   6   21.50    1.20
   5  -4   6   23.90    1.30
   5  -4   6   24.10    1.50
   5  -4   6   22.00    1.20
   5  -4   6   22.80    1.70
  -6   4  -6   34.60    1.60
   6  -4   6   34.80    1.80
   6  -4   6   33.20    1.30
   6  -4   6   33.70    1.40
   6  -4   6   35.30    1.40
   8   3  -6    3.90    0.80
   8   3  -6    3.90    0.70
  -8  -3   6    4.10    0.70
   7   3  -6   19.50    1.60
   7   3  -6   19.70    1.40
  -7  -3   6   18.50    1.30
   6   3  -6    0.80    0.80
   6   3  -6   -0.80    0.60
  -6  -3   6    0.50    0.70
  -6  -3   6    0.20    0.60
  -6  -3   6    0.60    0.60
   5   3  -6   40.40    2.20
  -5  -3   6   40.70    1.80
  -5  -3   6   42.60    2.10
  -5  -3   6   36.90    2.00
  -5  -3   6   40.30    1.80
   4   3  -6   61.99    2.60
   4   3  -6   60.19    2.70
   4   3  -6   60.09    3.00
  -4  -3   6   65.39    2.30
  -4  -3   6   62.09    2.60
  -4  -3   6   57.29    2.40
  -4  -3   6   62.59    2.30
   3   3  -6    3.20    1.10
   3   3  -6    3.90    0.90
   3   3  -6    3.50    0.90
  -3  -3   6    3.20    0.80
  -3  -3   6    5.20    1.70
  -3  -3   6    4.30    1.10
  -3  -3   6    4.20    1.00
   2   3  -6  169.38    5.00
   2   3  -6  168.08    4.70
  -2  -3   6  169.78    4.90
   1   3  -6   69.79    3.10
   1   3  -6   67.49    2.70
  -1  -3   6   62.29    2.70
  -1  -3   6   71.49    2.50
   0   3  -6  229.78    6.00
   0   3  -6  242.58    6.50
   0  -3   6  234.68    5.70
   0  -3   6  228.18    6.00
  -1   3  -6    2.10    0.90
  -1   3  -6    2.90    0.90
  -1   3  -6    4.10    1.30
   1  -3   6    3.20    0.70
  -2   3  -6   20.50    1.90
  -2   3  -6   19.60    1.90
  -2   3  -6   19.70    1.70
   2  -3   6   16.50    1.30
  -3   3  -6    8.40    1.10
  -3   3  -6    6.90    1.10
   3  -3   6    9.00    1.10
   3  -3   6    7.20    1.00
   3  -3   6    7.10    1.10
   3  -3   6    9.60    1.00
   3  -3   6   11.50    1.00
  -4   3  -6    9.40    1.20
   4  -3   6    9.80    1.40
   4  -3   6   10.20    1.00
   4  -3   6    8.90    1.00
   4  -3   6   11.00    1.20
   4  -3   6    9.80    1.20
  -5   3  -6    0.40    0.80
   5  -3   6    1.00    0.60
   5  -3   6    1.10    0.90
   5  -3   6    0.00    0.60
  -6   3  -6   17.70    1.40
   6  -3   6   18.90    1.20
   6  -3   6   16.10    1.50
  -7   3  -6    5.50    0.70
   7  -3   6    4.40    0.60
   7  -3   6    3.40    0.80
   8   2  -6    1.00    0.60
   8   2  -6    1.50    0.70
  -8  -2   6    0.00    0.50
   7   2  -6   -0.10    0.60
   7   2  -6    0.30    0.80
  -7  -2   6    0.20    0.90
  -7  -2   6   -0.90    0.60
  -7  -2   6    0.40    0.50
   6   2  -6    5.30    0.90
   6   2  -6    2.70    1.00
  -6  -2   6    5.90    1.00
  -6  -2   6    5.00    0.90
  -6  -2   6    5.80    0.90
   5   2  -6   27.20    1.90
   5   2  -6   30.50    1.60
  -5  -2   6   28.80    1.60
  -5  -2   6   24.00    1.60
  -5  -2   6   29.00    1.80
  -5  -2   6   20.60    1.60
   4   2  -6   18.80    1.90
   4   2  -6   13.10    1.40
  -4  -2   6   15.10    1.60
  -4  -2   6   15.50    1.20
  -4  -2   6   11.30    1.30
  -4  -2   6   14.10    1.20
  -4  -2   6   13.40    1.40
   3   2  -6    2.30    1.10
   3   2  -6    2.30    0.80
  -3  -2   6    1.60    0.60
  -3  -2   6    2.80    0.80
   2   2  -6   20.10    1.50
   2   2  -6   17.60    1.70
  -2  -2   6   21.40    1.50
  -2  -2   6   20.00    1.40
   1   2  -6   46.40    2.50
   1   2  -6   45.60    2.10
  -1  -2   6   43.90    1.80
  -1  -2   6   44.70    2.00
   0   2  -6   10.90    1.50
   0   2  -6   15.50    1.40
   0  -2   6   14.50    1.20
   0  -2   6   11.50    1.10
  -1   2  -6   14.70    1.40
  -1   2  -6   15.10    1.70
  -1   2  -6   13.60    1.40
   1  -2   6   14.90    1.20
  -2   2  -6   71.89    2.80
  -2   2  -6   75.39    2.90
  -2   2  -6   75.49    3.00
   2  -2   6   76.19    2.50
  -3   2  -6    5.20    1.00
  -3   2  -6    4.20    1.60
   3  -2   6    5.40    0.90
   3  -2   6    7.40    1.30
   3  -2   6    4.70    1.00
  -4   2  -6    6.20    1.10
   4  -2   6    5.00    0.90
   4  -2   6    3.70    1.20
   4  -2   6    4.60    0.90
   4  -2   6    4.60    0.90
  -5   2  -6   -0.20    0.80
   5  -2   6    1.20    0.90
   5  -2   6    1.00    0.60
  -6   2  -6   60.09    2.40
   6  -2   6   57.29    2.10
   6  -2   6   59.79    2.80
  -7   2  -6   -0.20    0.60
   7  -2   6    0.40    0.50
   7  -2   6    0.20    0.70
   8   1  -6   14.30    1.10
   8   1  -6   12.80    1.20
  -8  -1   6   13.80    1.50
  -8  -1   6   13.90    1.10
   7   1  -6  173.48    4.40
   7   1  -6  164.18    4.60
  -7  -1   6  171.68    4.60
  -7  -1   6  166.48    4.30
  -7  -1   6  165.58    4.30
   6   1  -6   20.90    1.50
   6   1  -6   19.90    1.80
  -6  -1   6   23.20    1.70
  -6  -1   6   23.80    1.50
  -6  -1   6   25.10    1.50
   5   1  -6  140.49    3.80
   5   1  -6  145.99    4.20
  -5  -1   6  135.09    3.80
  -5  -1   6  144.09    3.80
  -5  -1   6  139.19    4.20
   4   1  -6   22.60    1.60
  -4  -1   6   20.40    1.50
   3   1  -6  379.16    9.00
  -3  -1   6  375.46    8.30
   2   1  -6  470.25   10.70
  -2  -1   6  469.25    9.80
   1   1  -6    9.60    1.20
   1   1  -6    6.40    1.40
   0   1  -6   88.99    3.10
   0   1  -6   88.09    3.50
  -1   1  -6   77.99    3.10
  -1   1  -6   79.59    2.80
  -2   1  -6  302.07    7.10
  -2   1  -6  297.97    8.60
  -3   1  -6  289.27    9.10
   3  -1   6  292.17    7.40
  -4   1  -6   24.40    1.50
  -4   1  -6   24.50    1.80
   4  -1   6   21.40    1.50
   4  -1   6   26.40    2.10
  -5   1  -6   34.00    2.00
   5  -1   6   31.90    1.80
   5  -1   6   32.70    2.30
  -6   1  -6   90.19    3.10
   6  -1   6   88.29    3.50
   6  -1   6   90.79    2.80
  -7   1  -6    1.60    0.70
   7  -1   6    1.80    0.80
   7  -1   6    1.20    0.60
   8   0  -6    0.80    0.60
   8   0  -6    0.60    0.70
  -8   0   6    0.90    0.50
  -8   0   6   -1.00    0.50
  -8   0   6    0.00    0.60
   7   0  -6   32.10    1.70
   7   0  -6   36.60    2.10
  -7   0   6   35.20    1.80
  -7   0   6   35.30    1.70
  -7   0   6   33.90    2.00
   6   0  -6    7.60    1.00
   6   0  -6   11.70    1.40
  -6   0   6   10.90    1.30
  -6   0   6    8.70    1.10
  -6   0   6   10.90    1.10
   5   0  -6  503.95   10.60
   5   0  -6  501.05   10.90
  -5   0   6  505.95   10.60
  -5   0   6  506.65   11.00
  -5   0   6  510.35   10.40
   4   0  -6  162.48    4.50
  -4   0   6  173.28    4.60
   3   0  -6   35.60    2.30
  -3   0   6   37.40    1.70
   2   0  -6  180.08    5.20
   1   0  -6  273.57    6.90
   0   0  -6  208.78    6.00
   0   0  -6  217.18    5.70
  -1   0  -6  110.89    4.30
  -1   0  -6  107.99    3.50
  -2   0  -6   70.39    3.70
  -2   0  -6   73.39    2.80
  -3   0  -6   15.30    2.30
  -3   0  -6   16.10    1.60
   3   0   6   14.10    1.80
  -4   0  -6   31.90    2.00
  -4   0  -6   31.10    1.80
   4   0   6   28.90    2.20
   4   0   6   32.40    1.80
  -5   0  -6   75.19    2.90
   5   0   6   74.79    3.40
  -6   0  -6    9.00    1.20
   6   0   6    8.10    1.00
   6   0   6    9.60    1.50
  -7   0  -6   14.10    1.20
   7   0   6   15.30    1.10
   7   0   6   13.80    1.40
   8  -1  -6   10.10    1.00
  -8   1   6   11.30    1.00
  -8   1   6   10.10    1.00
  -8   1   6   11.10    1.20
   7  -1  -6   13.70    1.40
   7  -1  -6   13.50    1.20
  -7   1   6   12.90    1.40
  -7   1   6   14.30    1.20
  -7   1   6   12.30    1.20
   6  -1  -6  130.19    4.00
   6  -1  -6  124.49    3.70
  -6   1   6  130.69    3.80
  -6   1   6  129.89    3.60
  -6   1   6  128.89    4.10
   5  -1  -6  239.68    5.80
   5  -1  -6  239.28    5.60
   5  -1  -6  242.68    6.10
  -5   1   6  242.58    5.80
  -5   1   6  240.18    6.10
   4  -1  -6   14.60    1.40
  -4   1   6   16.90    1.40
  -3   1   6  245.88    5.80
   2  -1  -6   40.80    2.00
  -2   1   6   40.00    1.70
   1  -1  -6  212.88    5.40
   1  -1  -6  213.78    6.10
  -1   1   6  215.28    5.10
   0  -1  -6  185.38    5.80
   0  -1  -6  195.68    5.10
  -1  -1  -6    6.80    1.10
  -1  -1  -6    5.10    1.20
  -2  -1  -6    8.70    1.20
  -2  -1  -6    4.50    1.30
  -3  -1  -6  620.34   15.90
  -3  -1  -6  648.84   13.50
   3   1   6  638.64   14.70
  -4  -1  -6   68.89    2.60
  -4  -1  -6   69.09    2.80
   4   1   6   70.69    2.70
   4   1   6   67.79    3.30
  -5  -1  -6    3.30    0.80
  -5  -1  -6    1.20    0.80
   5   1   6    3.10    1.30
   5   1   6    2.90    0.90
  -6  -1  -6   36.50    2.00
   6   1   6   37.60    2.40
   6   1   6   37.50    1.80
  -7  -1  -6    0.50    0.60
   7   1   6    0.30    0.80
   7   1   6   -0.60    0.50
   8  -2  -6   20.80    1.10
   8  -2  -6   20.90    1.30
  -8   2   6   20.40    1.50
  -8   2   6   19.50    1.10
  -8   2   6   22.40    1.40
   7  -2  -6    3.40    0.70
   7  -2  -6    3.10    0.80
   7  -2  -6    4.20    0.90
  -7   2   6    3.90    1.00
  -7   2   6    4.00    0.70
  -7   2   6    2.80    0.80
   6  -2  -6   29.70    1.70
   6  -2  -6   29.40    1.60
   6  -2  -6   29.20    1.50
   6  -2  -6   31.90    1.90
  -6   2   6   30.80    1.80
  -6   2   6   27.50    1.90
   5  -2  -6  301.07    6.80
   5  -2  -6  305.97    6.80
   5  -2  -6  297.87    7.10
   5  -2  -6  295.87    6.90
  -5   2   6  298.27    6.80
  -5   2   6  297.27    7.20
   4  -2  -6  340.07    7.80
   4  -2  -6  342.97    7.20
   4  -2  -6  334.47    7.50
   4  -2  -6  346.27    7.50
  -4   2   6  342.27    7.40
  -4   2   6  339.97    7.80
  -4   2   6  339.27    7.70
   3  -2  -6    8.10    1.10
  -3   2   6    7.80    1.00
  -3   2   6    7.40    0.90
   2  -2  -6    6.40    1.30
  -2   2   6    7.50    0.90
   1  -2  -6  154.48    4.20
   1  -2  -6  148.79    5.20
   0  -2  -6   29.50    2.30
   0  -2  -6   30.80    1.80
   0   2   6   31.80    1.60
  -1  -2  -6  179.68    6.30
  -1  -2  -6  180.48    5.00
   1   2   6  184.98    4.80
  -2  -2  -6    1.70    0.80
  -2  -2  -6    4.20    1.30
  -3  -2  -6   11.70    1.30
  -3  -2  -6   12.50    1.30
  -3  -2  -6   10.40    1.00
  -3  -2  -6   12.90    1.50
   3   2   6   11.30    1.70
   3   2   6   12.40    2.40
  -4  -2  -6   62.79    2.50
  -4  -2  -6   63.59    2.60
  -4  -2  -6   60.69    2.20
  -4  -2  -6   59.49    2.70
   4   2   6   69.79    3.60
  -5  -2  -6   62.79    2.50
  -5  -2  -6   64.19    2.70
   5   2   6   65.29    2.60
   5   2   6   66.89    2.50
   5   2   6   64.59    3.20
  -6  -2  -6   19.60    1.30
  -6  -2  -6   24.20    1.70
   6   2   6   24.10    1.50
   6   2   6   24.10    2.00
   6   2   6   21.90    1.50
  -7  -2  -6   10.30    1.00
   7   2   6   10.60    0.90
   7   2   6   11.10    0.90
   7   2   6   11.10    1.20
   8  -3  -6    0.30    0.40
   8  -3  -6    0.40    0.50
  -8   3   6    0.40    0.70
  -8   3   6    0.40    0.70
   7  -3  -6    7.80    0.90
   7  -3  -6    5.90    0.90
   7  -3  -6    6.90    0.80
  -7   3   6    7.00    1.00
  -7   3   6    7.70    1.10
   6  -3  -6   33.80    1.70
   6  -3  -6   33.50    1.60
   6  -3  -6   32.40    1.90
   6  -3  -6   34.10    1.80
  -6   3   6   32.90    1.80
  -6   3   6   34.50    2.00
   5  -3  -6  306.67    7.10
   5  -3  -6  315.77    7.30
   5  -3  -6  317.77    7.00
   5  -3  -6  314.77    7.10
   5  -3  -6  308.37    6.80
  -5   3   6  315.07    7.40
  -5   3   6  297.77    7.50
  -5   3   6  308.47    7.10
   4  -3  -6  191.48    4.60
   4  -3  -6  196.08    5.20
   4  -3  -6  195.28    5.20
   4  -3  -6  191.78    5.00
   4  -3  -6  195.38    4.90
   4  -3  -6  196.18    4.80
  -4   3   6  201.08    5.10
  -4   3   6  202.38    4.90
  -4   3   6  198.08    5.20
   3  -3  -6  270.87    6.60
   3  -3  -6  279.37    8.30
   3  -3  -6  275.87    6.60
  -3   3   6  277.37    6.30
  -3   3   6  273.27    6.50
   2  -3  -6   67.59    3.50
   2  -3  -6   62.49    3.30
   2  -3  -6   59.79    2.40
  -2   3   6   64.99    2.40
   1  -3  -6  249.88    6.10
   1  -3  -6  241.68    7.50
  -1   3   6  245.98    5.90
   0  -3  -6  188.38    5.10
   0  -3  -6  183.18    6.50
   0   3   6  191.68    4.90
  -1  -3  -6   14.90    1.50
  -1  -3  -6   17.70    2.20
   1   3   6   13.80    1.30
  -2  -3  -6   28.30    2.00
  -2  -3  -6   29.90    3.00
  -2  -3  -6   28.00    2.00
  -2  -3  -6   31.20    1.90
  -2  -3  -6   27.90    1.50
   2   3   6   28.40    2.10
  -3  -3  -6   62.19    2.30
  -3  -3  -6   65.29    2.50
  -3  -3  -6   67.69    3.00
  -3  -3  -6   62.59    2.80
  -3  -3  -6   66.39    2.50
  -3  -3  -6   66.39    2.40
  -3  -3  -6   61.59    2.20
   3   3   6   51.39    4.20
  -4  -3  -6  381.26    8.60
  -4  -3  -6  384.16    8.80
  -4  -3  -6  379.96    8.30
  -4  -3  -6  378.16    9.20
   4   3   6  393.06   10.20
   4   3   6  403.46    9.00
  -5  -3  -6  339.07    7.70
  -5  -3  -6  345.97    7.90
   5   3   6  342.67    7.80
   5   3   6  346.07    8.70
   5   3   6  339.57    7.70
  -6  -3  -6   15.20    1.10
  -6  -3  -6   15.80    1.30
   6   3   6   15.70    1.60
   6   3   6   16.10    1.20
   6   3   6   14.70    1.20
  -7  -3  -6    1.60    0.70
   7   3   6    1.00    0.50
   7   3   6    1.40    0.70
   7   3   6    2.00    0.50
   7  -4  -6   51.79    1.90
   7  -4  -6   52.69    1.90
   7  -4  -6   56.19    1.90
  -7   4   6   54.59    2.10
  -7   4   6   53.39    2.30
   6  -4  -6   35.80    1.90
   6  -4  -6   39.90    1.50
   6  -4  -6   35.90    1.70
   6  -4  -6   36.50    1.80
   6  -4  -6   35.00    1.70
   6  -4  -6   37.00    2.00
  -6   4   6   36.40    2.00
  -6   4   6   33.80    1.80
  -6   4   6   34.30    2.00
   5  -4  -6   36.80    2.00
   5  -4  -6   35.70    1.60
   5  -4  -6   38.00    1.80
   5  -4  -6   34.80    1.70
   5  -4  -6   36.30    1.80
   5  -4  -6   36.60    1.60
   5  -4  -6   35.40    2.00
  -5   4   6   33.70    1.90
  -5   4   6   35.10    2.00
  -5   4   6   32.70    1.80
   4  -4  -6  985.00   19.20
   4  -4  -6  966.30   20.00
   4  -4  -6  998.90   19.10
   4  -4  -6  975.10   19.50
   4  -4  -6  992.30   19.70
   4  -4  -6 1018.30   19.90
   4  -4  -6 1004.80   19.50
  -4   4   6 1015.30   19.80
  -4   4   6 1012.10   20.00
  -4   4   6 1021.80   19.50
   3  -4  -6  197.08    4.70
   3  -4  -6  195.18    5.20
   3  -4  -6  199.28    4.80
   3  -4  -6  195.88    5.00
   3  -4  -6  194.88    5.30
  -3   4   6  197.18    5.20
   2  -4  -6  455.05    9.60
   2  -4  -6  448.06    9.50
   2  -4  -6  449.86   10.10
   2  -4  -6  457.05    9.70
   2  -4  -6  443.96    9.90
   2  -4  -6  452.65    9.40
  -2   4   6  461.55    9.90
   1  -4  -6   22.60    1.70
   1  -4  -6   23.50    2.50
   1  -4  -6   27.20    1.80
   1  -4  -6   24.10    1.70
  -1   4   6   25.30    1.50
   0  -4  -6   66.09    2.80
   0  -4  -6   63.09    2.50
   0  -4  -6   59.89    2.70
   0  -4  -6   65.39    3.90
   0  -4  -6   60.19    2.60
   0   4   6   64.39    2.50
  -1  -4  -6  102.99    3.70
  -1  -4  -6  102.79    3.10
  -1  -4  -6  105.49    3.70
  -1  -4  -6  102.89    3.30
  -1  -4  -6  100.69    3.10
  -1  -4  -6   99.29    3.20
  -1  -4  -6  100.99    3.10
  -1  -4  -6  105.89    3.10
   1   4   6  104.19    3.50
  -2  -4  -6    6.90    1.10
  -2  -4  -6    7.70    1.00
  -2  -4  -6    6.60    1.20
  -2  -4  -6    7.60    1.10
  -2  -4  -6    6.90    0.90
  -2  -4  -6    6.80    1.10
  -2  -4  -6    7.50    1.00
  -2  -4  -6    7.10    1.20
   2   4   6    6.50    1.20
  -3  -4  -6    0.60    0.60
  -3  -4  -6    0.80    0.90
  -3  -4  -6    0.90    0.90
  -3  -4  -6   -0.20    0.60
  -3  -4  -6    0.90    0.80
  -3  -4  -6    1.40    0.70
   3   4   6    0.30    1.80
   3   4   6    1.10    1.40
  -4  -4  -6   28.40    1.80
  -4  -4  -6   26.50    2.10
  -4  -4  -6   27.00    1.70
  -4  -4  -6   28.70    1.60
  -4  -4  -6   27.30    1.70
   4   4   6   30.60    2.80
   4   4   6   32.10    2.20
  -5  -4  -6   22.70    1.40
  -5  -4  -6   21.80    1.50
  -5  -4  -6   18.50    1.50
   5   4   6   24.50    2.10
   5   4   6   21.70    1.60
   5   4   6   23.60    1.70
  -6  -4  -6   47.50    1.80
  -6  -4  -6   48.70    1.90
   6   4   6   50.29    1.90
   6   4   6   48.60    1.80
   6   4   6   48.70    2.20
   7  -5  -6   16.30    1.00
   7  -5  -6   16.70    1.10
   7  -5  -6   18.40    1.10
   7  -5  -6   20.30    1.20
  -7   5   6   16.90    1.20
   6  -5  -6   11.20    1.10
   6  -5  -6   11.00    1.20
   6  -5  -6    9.70    0.90
   6  -5  -6   12.00    1.00
   6  -5  -6   10.90    1.00
  -6   5   6    9.00    1.00
  -6   5   6   10.60    1.20
  -6   5   6    8.80    1.60
   5  -5  -6   41.10    1.80
   5  -5  -6   50.89    2.30
   5  -5  -6   49.70    2.00
   5  -5  -6   47.00    1.70
   5  -5  -6   50.19    2.20
   5  -5  -6   49.00    2.10
   5  -5  -6   50.29    2.00
  -5   5   6   47.80    2.30
  -5   5   6   46.10    2.00
  -5   5   6   47.90    2.20
   4  -5  -6   89.79    3.00
   4  -5  -6   98.89    3.30
   4  -5  -6   92.49    2.90
   4  -5  -6   93.99    2.80
   4  -5  -6   95.79    3.40
   4  -5  -6   91.39    2.90
  -4   5   6   92.69    3.30
   3  -5  -6  210.98    5.90
   3  -5  -6  212.28    5.20
   3  -5  -6  219.38    5.50
   3  -5  -6  215.58    5.20
   3  -5  -6  212.28    5.60
   3  -5  -6  216.48    5.30
  -3   5   6  231.78    5.70
   2  -5  -6  125.19    3.50
   2  -5  -6  124.79    3.70
   2  -5  -6  124.89    3.40
   2  -5  -6  123.29    3.50
   2  -5  -6  124.59    3.90
   2  -5  -6  120.19    4.10
  -2   5   6  123.49    3.80
   1  -5  -6   64.79    2.40
   1  -5  -6   70.79    3.00
   1  -5  -6   70.39    2.50
   1  -5  -6   67.29    2.50
   1  -5  -6   62.69    3.50
   1  -5  -6   65.79    2.30
   1  -5  -6   68.69    2.70
  -1   5   6   68.09    2.60
   0  -5  -6  122.09    4.10
   0  -5  -6  121.89    3.60
   0  -5  -6  118.79    3.60
   0  -5  -6  115.69    3.70
   0  -5  -6  119.39    3.50
   0  -5  -6  127.39    4.10
   0  -5  -6  118.69    3.40
   0   5   6  116.29    3.70
  -1  -5  -6   24.40    1.90
  -1  -5  -6   19.90    1.40
  -1  -5  -6   25.60    1.50
  -1  -5  -6   22.70    2.10
  -1  -5  -6   24.50    1.70
  -1  -5  -6   21.20    1.50
  -1  -5  -6   23.70    1.50
  -1  -5  -6   20.90    1.70
   1   5   6   22.10    1.70
  -2  -5  -6   89.19    2.90
  -2  -5  -6   86.99    2.80
  -2  -5  -6   88.09    3.70
  -2  -5  -6   85.69    3.00
  -2  -5  -6   92.29    2.90
  -2  -5  -6   87.19    3.40
  -2  -5  -6   87.29    3.00
  -2  -5  -6   85.29    2.90
   2   5   6   98.79    3.70
  -3  -5  -6   50.29    2.00
  -3  -5  -6   51.79    2.80
  -3  -5  -6   53.89    2.30
  -3  -5  -6   52.19    2.00
  -3  -5  -6   52.19    2.50
  -3  -5  -6   53.19    2.20
  -3  -5  -6   53.29    2.10
  -3  -5  -6   52.79    2.20
   3   5   6   43.40    4.00
   3   5   6   49.10    3.40
  -4  -5  -6   16.60    1.20
  -4  -5  -6   12.60    1.20
  -4  -5  -6   12.70    1.20
  -4  -5  -6   12.50    1.20
  -4  -5  -6   14.10    1.30
   4   5   6   13.80    1.40
   4   5   6   12.30    1.90
  -5  -5  -6  226.18    5.20
  -5  -5  -6  220.68    5.10
  -5  -5  -6  216.88    5.20
   5   5   6  223.08    5.30
   5   5   6  228.98    5.80
   5   5   6  224.28    5.10
  -6  -5  -6   67.19    2.00
  -6  -5  -6   67.69    2.00
   6   5   6   67.19    1.80
   6   5   6   67.29    2.00
   6  -6  -6   -0.80    0.50
   6  -6  -6    0.70    0.40
   6  -6  -6   -0.30    0.50
   6  -6  -6    0.60    0.60
   6  -6  -6    0.60    0.50
  -6   6   6    0.00    0.50
   5  -6  -6  215.98    5.00
   5  -6  -6  206.48    4.90
   5  -6  -6  211.28    4.80
   5  -6  -6  216.28    5.40
   5  -6  -6  206.98    4.90
  -5   6   6  185.98    5.30
   4  -6  -6   54.39    2.10
   4  -6  -6   55.89    2.30
   4  -6  -6   56.09    2.20
   4  -6  -6   57.59    2.60
   4  -6  -6   61.69    2.30
   4  -6  -6   56.19    2.10
  -4   6   6   57.69    2.50
   3  -6  -6  580.34   12.00
   3  -6  -6  569.64   12.10
   3  -6  -6  565.44   11.80
   3  -6  -6  581.34   12.10
   3  -6  -6  586.34   12.70
   3  -6  -6  582.24   11.80
  -3   6   6  594.64   12.40
   2  -6  -6  278.97    7.20
   2  -6  -6  291.37    6.50
   2  -6  -6  278.27    6.80
   2  -6  -6  282.47    6.70
   2  -6  -6  281.27    6.60
  -2   6   6  284.87    6.90
   1  -6  -6    3.20    1.00
   1  -6  -6    3.90    0.90
   1  -6  -6    4.00    0.80
   1  -6  -6    4.70    0.90
   1  -6  -6    3.70    0.80
   1  -6  -6    2.00    1.00
  -1   6   6    2.60    0.80
   0  -6  -6    3.60    1.00
   0  -6  -6    5.00    1.10
   0  -6  -6    3.10    0.80
   0  -6  -6    5.50    0.90
   0  -6  -6    5.30    1.20
   0  -6  -6    5.70    0.90
   0  -6  -6    6.00    1.00
   0   6   6    4.40    0.90
  -1  -6  -6    4.80    0.90
  -1  -6  -6    3.20    0.80
  -1  -6  -6    5.50    1.20
  -1  -6  -6    5.30    1.00
  -1  -6  -6    5.00    0.90
  -1  -6  -6    6.40    1.10
  -1  -6  -6    3.60    0.90
  -1  -6  -6    4.20    1.20
   1   6   6    6.00    1.10
  -2  -6  -6    6.80    1.00
  -2  -6  -6    3.80    0.80
  -2  -6  -6    3.30    0.80
  -2  -6  -6    7.80    1.10
  -2  -6  -6    6.00    1.20
  -2  -6  -6    5.70    0.80
  -2  -6  -6    5.40    0.80
  -2  -6  -6    3.50    1.10
   2   6   6    5.70    1.30
  -3  -6  -6    0.30    0.60
  -3  -6  -6   -0.50    0.50
  -3  -6  -6    0.00    0.50
  -3  -6  -6   -0.60    0.60
  -3  -6  -6   -0.40    0.50
  -3  -6  -6    0.50    0.70
   3   6   6    0.00    1.10
   3   6   6   -0.10    1.60
   3   6   6    2.10    1.10
  -4  -6  -6    1.40    0.60
  -4  -6  -6    0.90    0.60
  -4  -6  -6    0.00    0.60
  -4  -6  -6    0.40    0.50
   4   6   6    1.70    1.00
   4   6   6   -0.60    0.60
  -5  -6  -6   44.10    1.70
   5   6   6   43.40    1.50
   5   6   6   42.50    1.70
   5  -7  -6    9.90    1.10
   5  -7  -6    9.90    0.90
   5  -7  -6   10.60    0.90
   5  -7  -6    9.70    0.80
   5  -7  -6    9.00    0.80
   4  -7  -6   22.60    1.30
   4  -7  -6   20.50    1.30
   4  -7  -6   19.20    1.20
   4  -7  -6   21.80    1.20
   4  -7  -6   20.00    1.40
   4  -7  -6   22.30    1.70
   3  -7  -6   37.10    1.80
   3  -7  -6   36.70    1.70
   3  -7  -6   39.30    1.80
   3  -7  -6   34.70    1.80
   3  -7  -6   36.30    2.10
   3  -7  -6   34.70    1.60
  -3   7   6   33.60    1.80
   2  -7  -6    8.00    1.10
   2  -7  -6    7.20    1.20
   2  -7  -6    6.40    1.00
   2  -7  -6    7.00    0.90
   2  -7  -6    7.50    1.00
  -2   7   6    8.90    1.10
   1  -7  -6   23.10    1.90
   1  -7  -6   24.60    1.60
   1  -7  -6   23.50    1.70
   1  -7  -6   24.50    1.50
   1  -7  -6   25.50    1.50
   1  -7  -6   25.10    1.50
  -1   7   6   24.70    1.60
   0  -7  -6   17.80    1.50
   0  -7  -6   17.30    1.40
   0  -7  -6   19.00    1.30
   0  -7  -6   17.00    1.30
   0  -7  -6   18.00    1.70
   0  -7  -6   16.90    1.40
   0   7   6   17.60    1.50
  -1  -7  -6    0.00    0.60
  -1  -7  -6    0.60    0.60
  -1  -7  -6    0.20    0.60
  -1  -7  -6    1.10    0.60
  -1  -7  -6    0.40    0.80
  -1  -7  -6    0.40    0.60
   1   7   6    1.10    0.80
  -2  -7  -6   19.40    1.30
  -2  -7  -6   20.00    1.50
  -2  -7  -6   21.30    1.30
  -2  -7  -6   19.00    1.60
  -2  -7  -6   20.90    1.30
  -2  -7  -6   20.20    1.50
  -2  -7  -6   18.00    1.20
   2   7   6   17.10    2.10
   2   7   6   11.70    2.30
  -3  -7  -6   42.10    1.70
  -3  -7  -6   42.70    1.80
  -3  -7  -6   41.50    1.70
  -3  -7  -6   42.40    1.80
  -3  -7  -6   41.60    1.70
   3   7   6   42.60    2.00
   3   7   6   43.50    2.70
  -4  -7  -6    0.20    0.60
  -4  -7  -6   -0.50    0.50
  -4  -7  -6    0.70    0.60
  -4  -7  -6    0.80    0.50
   4  -8  -6    3.90    0.90
   4  -8  -6    2.80    0.60
   4  -8  -6    4.10    0.60
   4  -8  -6    3.00    0.60
   3  -8  -6   72.89    2.20
   3  -8  -6   69.69    2.10
   3  -8  -6   71.69    2.20
   3  -8  -6   71.19    2.20
   3  -8  -6   72.79    2.60
   2  -8  -6    0.00    0.50
   2  -8  -6    0.40    0.60
   2  -8  -6    0.00    0.50
   2  -8  -6    1.20    0.50
   2  -8  -6    0.20    0.70
   1  -8  -6   24.90    1.40
   1  -8  -6   28.00    1.50
   1  -8  -6   26.00    1.50
   1  -8  -6   26.20    1.80
   1  -8  -6   25.60    1.30
   0  -8  -6    9.00    0.90
   0  -8  -6    9.00    0.90
   0  -8  -6    7.40    1.00
   0  -8  -6    9.30    1.20
   0  -8  -6    7.70    0.90
   0  -8  -6    9.80    1.00
  -1  -8  -6    7.80    1.00
  -1  -8  -6    9.20    0.80
  -1  -8  -6    7.90    1.00
  -1  -8  -6    7.20    0.80
  -1  -8  -6    8.20    0.90
  -1  -8  -6    9.60    1.00
  -2  -8  -6   14.30    1.10
  -2  -8  -6   17.50    1.10
  -2  -8  -6   15.70    0.90
  -2  -8  -6   15.40    1.20
  -2  -8  -6   17.20    1.20
   2   8   6   13.80    1.30
   2   8  -7    9.60    1.00
  -2  -8   7   10.70    0.80
  -2  -8   7   10.00    0.90
  -2  -8   7   11.30    0.90
  -2  -8   7    9.10    0.70
  -1  -8   7   31.70    1.30
  -1  -8   7   31.30    1.30
  -1  -8   7   32.10    1.20
  -1  -8   7   31.80    1.50
   0  -8   7    1.40    0.60
   0  -8   7    2.40    0.50
   0  -8   7    2.50    0.60
   0  -8   7    2.70    0.50
   1  -8   7    1.30    0.50
   1  -8   7    0.00    0.40
   1  -8   7   -0.40    0.50
   2  -8   7   19.80    1.10
   2  -8   7   19.60    1.00
   2  -8   7   18.90    1.00
  -4  -7   7    2.10    0.60
  -4  -7   7    1.60    0.60
  -4  -7   7    3.10    0.70
  -4  -7   7    2.70    0.60
  -3  -7   7    9.20    0.90
  -3  -7   7   10.20    1.00
  -3  -7   7    9.60    0.90
  -3  -7   7   11.30    1.00
   2   7  -7    0.20    0.80
  -2  -7   7   -0.10    0.60
  -2  -7   7    0.10    0.60
  -2  -7   7    0.20    0.60
  -2  -7   7    0.80    0.50
  -2  -7   7    0.00    0.60
  -2  -7   7   -0.10    0.50
   1   7  -7   38.40    2.20
  -1  -7   7   41.60    1.90
  -1  -7   7   40.10    1.70
  -1  -7   7   42.10    1.80
  -1  -7   7   42.80    1.90
  -1  -7   7   42.90    1.70
   0   7  -7   32.40    2.10
   0  -7   7   35.20    1.60
   0  -7   7   35.90    1.70
   0  -7   7   33.20    1.60
   0  -7   7   33.00    1.70
   0  -7   7   37.80    1.90
  -1   7  -7   32.10    2.00
   1  -7   7   30.90    1.30
   1  -7   7   32.40    1.50
   1  -7   7   32.40    1.40
   1  -7   7   29.60    1.50
   1  -7   7   31.50    1.60
   1  -7   7   33.30    1.70
   2  -7   7   34.60    1.60
   2  -7   7   36.40    1.50
   2  -7   7   36.50    1.50
   2  -7   7   34.20    1.60
   2  -7   7   34.30    1.50
   3  -7   7    1.60    0.50
   3  -7   7    1.60    0.50
   3  -7   7    1.10    0.60
   3  -7   7    1.00    0.50
   3  -7   7    0.30    0.50
   5   6  -7   22.70    1.40
  -5  -6   7   19.50    1.10
  -5  -6   7   21.20    1.30
  -5  -6   7   22.20    1.10
  -4  -6   7   27.20    1.40
  -4  -6   7   28.60    1.40
  -4  -6   7   27.50    1.40
  -4  -6   7   27.80    1.60
   3   6  -7    1.50    0.80
  -3  -6   7    0.30    0.60
  -3  -6   7    1.90    0.70
  -3  -6   7    1.70    0.70
  -3  -6   7    3.20    0.70
  -3  -6   7    1.10    0.70
  -3  -6   7    1.70    0.70
   2   6  -7  136.79    4.40
  -2  -6   7  142.19    3.90
  -2  -6   7  140.59    4.10
  -2  -6   7  146.79    3.80
  -2  -6   7  140.79    3.80
  -2  -6   7  141.49    3.80
  -2  -6   7  139.69    3.80
   1   6  -7   18.30    1.80
   1   6  -7   16.10    2.60
  -1  -6   7   17.30    1.40
  -1  -6   7   18.70    1.40
  -1  -6   7   18.50    1.30
  -1  -6   7   19.30    1.50
  -1  -6   7   17.80    1.30
  -1  -6   7   18.10    1.60
   0   6  -7  141.79    4.70
   0  -6   7  147.99    4.30
   0  -6   7  141.99    3.90
   0  -6   7  145.09    4.00
   0  -6   7  140.19    3.80
   0  -6   7  139.59    3.80
  -1   6  -7   28.70    2.20
   1  -6   7   31.40    1.90
   1  -6   7   27.00    1.50
   1  -6   7   28.20    1.70
   1  -6   7   34.50    1.70
   1  -6   7   31.90    1.60
   1  -6   7   29.90    1.70
  -2   6  -7   19.60    1.60
   2  -6   7   20.40    1.40
   2  -6   7   19.20    1.50
   2  -6   7   18.60    1.50
   2  -6   7   20.70    1.20
   2  -6   7   21.70    1.40
   2  -6   7   21.10    1.30
  -3   6  -7    5.80    0.90
   3  -6   7    7.60    0.90
   3  -6   7    6.60    0.90
   3  -6   7    5.80    0.80
   3  -6   7    7.20    1.00
   3  -6   7    6.00    0.70
  -4   6  -7   16.60    1.20
   4  -6   7   17.40    1.10
   4  -6   7   17.40    1.30
   4  -6   7   16.30    1.10
   4  -6   7   14.40    1.00
   4  -6   7   16.00    1.00
   6   5  -7   11.10    1.10
   6   5  -7    9.50    1.20
  -6  -5   7   10.20    0.90
  -6  -5   7    9.70    0.90
   5   5  -7   45.80    2.10
  -5  -5   7   44.90    1.80
  -5  -5   7   46.20    2.00
   4   5  -7   26.30    1.70
   4   5  -7   29.00    2.00
  -4  -5   7   29.70    1.70
  -4  -5   7   27.50    1.50
  -4  -5   7   26.60    1.60
  -4  -5   7   27.70    1.50
  -4  -5   7   27.90    1.70
   3   5  -7   59.79    2.80
   3   5  -7   62.59    3.40
  -3  -5   7   61.39    2.40
  -3  -5   7   61.69    2.30
  -3  -5   7   62.79    2.40
  -3  -5   7   61.19    2.30
  -3  -5   7   62.49    2.60
  -3  -5   7   67.79    2.30
   2   5  -7    0.60    0.80
   2   5  -7    2.20    1.30
  -2  -5   7    1.00    0.60
  -2  -5   7    1.20    0.70
  -2  -5   7    0.90    0.70
  -2  -5   7    0.80    0.70
  -2  -5   7    2.10    0.80
  -2  -5   7    1.50    0.80
   1   5  -7  110.69    4.00
   1   5  -7  117.69    4.60
  -1  -5   7  113.99    3.40
  -1  -5   7  115.59    3.30
  -1  -5   7  111.49    3.40
  -1  -5   7  113.79    3.30
  -1  -5   7  111.99    3.70
  -1  -5   7  112.49    3.30
   0   5  -7   -0.10    0.90
   0   5  -7    0.90    1.30
   0  -5   7    0.60    0.70
   0  -5   7    0.70    0.80
   0  -5   7    1.40    0.70
   0  -5   7    0.30    0.50
   0  -5   7    1.10    0.70
   0  -5   7    0.40    0.70
  -1   5  -7   49.70    2.80
   1  -5   7   49.70    2.00
   1  -5   7   48.80    2.00
   1  -5   7   47.60    2.30
   1  -5   7   50.99    2.30
   1  -5   7   52.09    2.10
   1  -5   7   48.20    2.10
  -2   5  -7    3.20    1.00
   2  -5   7    1.10    0.70
   2  -5   7    2.10    0.70
   2  -5   7    2.10    0.70
   2  -5   7    2.50    0.60
   2  -5   7    2.20    0.90
   2  -5   7    1.90    0.70
  -3   5  -7  127.29    4.10
   3  -5   7  130.19    3.50
   3  -5   7  126.99    3.40
   3  -5   7  136.09    3.90
   3  -5   7  132.09    3.60
   3  -5   7  129.99    3.80
  -4   5  -7   10.90    1.20
   4  -5   7   11.50    1.00
   4  -5   7   11.60    0.90
   4  -5   7   13.00    1.10
   4  -5   7   12.30    1.20
   4  -5   7   11.10    1.00
  -5   5  -7    3.90    0.80
   5  -5   7    3.50    0.50
   5  -5   7    2.70    0.50
   5  -5   7    3.70    0.70
   7   4  -7   30.20    1.60
  -7  -4   7   27.30    1.30
   6   4  -7    2.70    1.00
   6   4  -7    3.30    0.90
  -6  -4   7    3.30    0.70
  -6  -4   7    2.40    0.80
   5   4  -7    3.40    0.90
  -5  -4   7    2.10    0.80
  -5  -4   7    3.40    0.80
  -5  -4   7    2.60    0.90
  -5  -4   7    2.40    0.70
   4   4  -7    2.20    0.90
   4   4  -7    0.50    1.10
  -4  -4   7    2.80    0.80
  -4  -4   7    1.30    0.70
  -4  -4   7    2.30    0.70
  -4  -4   7    3.20    0.90
  -4  -4   7    2.60    0.90
   3   4  -7   90.69    4.00
   3   4  -7   92.79    3.50
  -3  -4   7   95.49    2.90
  -3  -4   7   95.19    3.10
  -3  -4   7   92.39    3.30
  -3  -4   7   96.19    3.10
  -3  -4   7   92.19    2.90
   2   4  -7    1.70    1.30
   2   4  -7    0.40    0.70
  -2  -4   7   -0.60    0.60
  -2  -4   7    0.40    0.70
  -2  -4   7    1.00    0.60
  -2  -4   7    1.30    0.70
  -2  -4   7    0.00    0.60
  -2  -4   7    1.10    0.70
   1   4  -7  365.96    8.90
   1   4  -7  364.06    9.50
  -1  -4   7  364.16    7.90
  -1  -4   7  367.06    8.00
  -1  -4   7  367.36    8.50
  -1  -4   7  375.66    8.20
  -1  -4   7  351.86    8.50
  -1  -4   7  367.16    8.00
  -1  -4   7  369.76    8.00
   0   4  -7  196.28    5.80
   0   4  -7  192.78    6.30
   0   4  -7  189.28    5.30
   0  -4   7  184.58    4.70
   0  -4   7  190.58    4.70
   0  -4   7  194.68    5.20
   0  -4   7  189.18    4.80
   0  -4   7  185.18    4.60
   0  -4   7  190.58    4.90
   0  -4   7  183.58    5.20
  -1   4  -7  344.97    9.20
  -1   4  -7  341.97    8.80
   1  -4   7  335.97    7.50
   1  -4   7  336.07    8.00
   1  -4   7  351.46    7.70
   1  -4   7  357.66    7.60
   1  -4   7  346.37    7.70
   1  -4   7  350.46    8.20
  -2   4  -7    9.20    1.30
   2  -4   7   12.00    1.20
   2  -4   7    8.40    1.20
   2  -4   7   10.20    1.00
   2  -4   7   10.30    1.30
   2  -4   7    9.70    1.10
   2  -4   7    9.90    1.00
  -3   4  -7    4.00    1.00
  -3   4  -7    4.00    0.90
   3  -4   7    6.60    1.10
   3  -4   7    3.70    0.80
   3  -4   7    5.00    0.70
   3  -4   7    3.70    0.80
   3  -4   7    3.40    0.70
  -4   4  -7   -0.70    0.60
   4  -4   7    0.30    0.60
   4  -4   7    0.30    0.50
   4  -4   7   -0.10    0.60
   4  -4   7   -0.70    0.50
   4  -4   7   -0.40    0.50
  -5   4  -7   11.30    1.20
   5  -4   7    9.30    1.00
  -6   4  -7    5.40    0.80
   6  -4   7    5.30    0.60
   7   3  -7   17.20    1.10
   7   3  -7   13.70    1.30
  -7  -3   7   11.60    1.00
   6   3  -7   86.69    3.10
  -6  -3   7   90.29    2.80
  -6  -3   7   89.39    3.00
  -6  -3   7   85.09    2.70
   5   3  -7    6.00    1.10
  -5  -3   7    6.20    1.00
  -5  -3   7    4.40    0.90
  -5  -3   7    4.60    0.80
  -5  -3   7    5.40    1.00
   4   3  -7  294.57    7.10
   4   3  -7  302.67    8.20
  -4  -3   7  303.07    7.00
  -4  -3   7  301.67    7.30
  -4  -3   7  294.87    6.90
  -4  -3   7  307.77    6.80
   3   3  -7   -0.40    0.60
   3   3  -7    0.10    0.70
   3   3  -7   -0.30    1.10
  -3  -3   7    0.40    0.70
  -3  -3   7    0.10    0.60
  -3  -3   7    0.50    0.70
  -3  -3   7    0.50    0.70
  -3  -3   7   -1.50    0.60
   2   3  -7   65.89    2.90
   2   3  -7   67.59    3.50
  -2  -3   7   63.79    2.80
  -2  -3   7   65.39    2.50
  -2  -3   7   69.89    2.70
  -2  -3   7   66.49    2.40
  -2  -3   7   68.29    2.50
  -2  -3   7   67.69    2.30
   1   3  -7   37.60    2.90
   1   3  -7   37.20    2.30
  -1  -3   7   42.00    2.60
  -1  -3   7   39.40    1.80
  -1  -3   7   40.20    2.00
  -1  -3   7   42.90    2.30
  -1  -3   7   41.70    1.80
  -1  -3   7   38.20    1.90
  -1  -3   7   43.10    1.80
   0   3  -7  244.38    7.30
   0   3  -7  247.88    6.80
   0  -3   7  253.17    5.80
   0  -3   7  249.48    6.20
   0  -3   7  250.07    5.80
   0  -3   7  252.77    6.50
   0  -3   7  247.78    5.90
  -1   3  -7   62.19    3.00
  -1   3  -7   59.09    3.30
   1  -3   7   54.69    2.60
   1  -3   7   63.59    2.30
   1  -3   7   62.19    2.80
   1  -3   7   64.29    2.50
   1  -3   7   63.99    2.20
   1  -3   7   66.39    2.30
  -2   3  -7   68.19    2.90
  -2   3  -7   68.49    2.60
   2  -3   7   68.79    2.40
   2  -3   7   65.29    2.40
   2  -3   7   67.89    2.60
   2  -3   7   68.99    2.80
   2  -3   7   68.59    2.30
  -3   3  -7   33.20    2.00
  -3   3  -7   33.20    1.80
   3  -3   7   33.00    1.60
   3  -3   7   34.50    1.80
   3  -3   7   32.40    1.70
   3  -3   7   37.50    2.00
  -4   3  -7  130.09    4.00
   4  -3   7  135.09    3.70
   4  -3   7  137.89    3.90
  -5   3  -7   10.90    1.30
   5  -3   7    7.50    0.90
   5  -3   7    8.70    1.20
  -6   3  -7    6.60    0.90
   6  -3   7    6.10    0.60
   6  -3   7    6.50    0.90
   8   2  -7    6.20    0.80
   8   2  -7    6.30    0.70
  -8  -2   7    6.30    0.70
   7   2  -7   34.50    1.50
   7   2  -7   31.50    1.90
  -7  -2   7   31.20    1.60
  -7  -2   7   33.70    1.70
  -7  -2   7   32.90    1.50
   6   2  -7   17.50    1.70
   6   2  -7   21.50    1.40
  -6  -2   7   17.00    1.30
  -6  -2   7   15.40    1.40
  -6  -2   7   16.60    1.30
   5   2  -7  180.88    5.00
   5   2  -7  189.78    5.30
  -5  -2   7  184.38    4.50
  -5  -2   7  174.88    4.60
  -5  -2   7  178.58    5.00
  -5  -2   7  164.48    4.60
   4   2  -7   66.69    3.40
   4   2  -7   65.39    2.70
  -4  -2   7   65.19    2.30
  -4  -2   7   60.19    2.40
  -4  -2   7   65.79    2.70
  -4  -2   7   69.49    2.50
   3   2  -7   71.49    2.70
   3   2  -7   77.09    3.70
  -3  -2   7   77.09    2.60
  -3  -2   7   74.99    2.40
  -3  -2   7   76.29    2.80
  -3  -2   7   73.49    2.60
   2   2  -7   41.90    2.90
  -2  -2   7   40.30    2.10
   1   2  -7   59.29    2.80
   1   2  -7   61.39    3.30
  -1  -2   7   61.89    2.40
   0   2  -7   14.40    1.60
   0   2  -7   11.60    1.80
   0  -2   7   14.00    1.30
  -1   2  -7  250.97    6.50
  -1   2  -7  249.28    6.90
   1  -2   7  250.67    6.00
  -2   2  -7  177.68    5.00
  -2   2  -7  175.18    4.70
  -2   2  -7  180.48    5.20
   2  -2   7  184.18    5.10
   2  -2   7  176.88    4.50
   2  -2   7  177.48    4.60
  -3   2  -7   24.60    1.60
   3  -2   7   21.40    1.40
   3  -2   7   21.20    1.70
  -4   2  -7   15.20    1.50
  -4   2  -7   16.10    1.30
   4  -2   7   13.10    1.60
   4  -2   7   11.60    1.20
  -5   2  -7    0.80    0.80
   5  -2   7   -0.20    0.60
   5  -2   7    1.40    0.90
  -6   2  -7    4.70    0.90
   6  -2   7    4.90    0.70
   6  -2   7    5.40    1.00
   8   1  -7    6.20    0.80
   8   1  -7    8.00    0.90
  -8  -1   7    8.00    0.80
  -8  -1   7    8.90    0.90
   7   1  -7    0.50    0.60
   7   1  -7    0.60    0.80
  -7  -1   7    0.80    0.70
  -7  -1   7    0.00    0.50
  -7  -1   7    1.30    0.70
   6   1  -7   10.80    1.40
   6   1  -7   12.50    1.20
  -6  -1   7   11.90    1.20
  -6  -1   7   14.60    1.20
  -6  -1   7   11.30    1.30
   5   1  -7   25.00    1.80
   5   1  -7   26.90    1.50
  -5  -1   7   23.00    1.50
  -5  -1   7   21.40    1.80
  -5  -1   7   22.70    1.40
   4   1  -7    5.90    1.10
   4   1  -7    5.50    1.40
  -4  -1   7    7.40    0.90
  -4  -1   7    9.10    1.10
  -4  -1   7    7.60    1.20
   3   1  -7   29.30    2.50
   3   1  -7   29.70    1.80
  -3  -1   7   28.00    1.60
  -3  -1   7   28.20    1.70
   2   1  -7    0.00    1.10
  -2  -1   7   -0.20    0.60
   1   1  -7   16.70    2.10
  -1  -1   7   15.50    1.30
   0   1  -7  271.97    7.30
   0  -1   7  267.57    6.30
  -1   1  -7  508.15   11.40
  -2   1  -7  104.79    3.30
  -2   1  -7  107.39    3.70
   2  -1   7  104.49    3.20
   2  -1   7  107.29    3.70
  -3   1  -7    0.80    0.80
  -3   1  -7    0.20    0.70
   3  -1   7    0.10    0.60
   3  -1   7   -0.10    0.70
   3  -1   7    0.30    0.90
  -4   1  -7    4.30    0.90
  -4   1  -7    7.10    1.20
   4  -1   7    5.20    0.90
   4  -1   7    6.20    1.30
  -5   1  -7   73.59    2.90
   5  -1   7   74.89    3.20
   5  -1   7   73.69    2.50
  -6   1  -7   -0.60    0.60
   6  -1   7   -0.80    0.50
   6  -1   7   -0.70    0.70
  -7   1  -7   16.30    1.20
   7  -1   7   16.00    1.00
   7  -1   7   16.40    1.40
   8   0  -7   69.79    2.20
   8   0  -7   70.19    2.10
  -8   0   7   68.69    2.20
  -8   0   7   68.99    2.00
   7   0  -7  136.99    4.00
   7   0  -7  140.79    3.70
  -7   0   7  140.69    3.80
  -7   0   7  131.79    3.60
  -7   0   7  136.99    4.00
   6   0  -7   99.09    3.10
   6   0  -7  101.09    3.40
  -6   0   7   99.69    3.20
  -6   0   7  102.79    3.50
  -6   0   7  101.59    3.00
   5   0  -7    2.70    0.80
   5   0  -7    3.60    1.00
  -5   0   7    8.20    0.90
  -5   0   7    4.80    0.90
  -5   0   7    3.80    0.90
   4   0  -7    1.10    0.90
   4   0  -7   -0.20    0.80
   4   0  -7    0.80    0.70
  -4   0   7    1.30    0.70
  -4   0   7   -0.60    0.60
  -4   0   7   -0.20    0.70
   3   0  -7  318.77    8.00
   3   0  -7  309.87    7.30
  -3   0   7  323.37    7.30
   2   0  -7   35.30    2.30
  -2   0   7   38.10    1.80
   1   0  -7  132.09    4.40
  -1   0   7  130.79    3.60
   0   0  -7  399.86    9.40
  -1   0  -7   15.10    1.60
  -2   0  -7  982.30   19.40
  -2   0  -7 1006.60   20.00
  -2   0  -7  949.51   21.90
   2   0   7  995.10   20.60
  -3   0  -7    1.20    0.80
  -3   0  -7    2.00    0.80
  -3   0  -7    2.40    0.90
   3   0   7    1.60    1.20
   3   0   7    0.70    0.80
  -4   0  -7  104.19    3.30
  -4   0  -7  108.99    3.60
   4   0   7  105.19    3.30
   4   0   7  112.89    4.20
  -5   0  -7   37.50    1.70
  -5   0  -7   38.90    2.10
   5   0   7   31.90    2.30
   5   0   7   37.40    1.80
  -6   0  -7    6.10    1.00
   6   0   7    6.70    1.20
   6   0   7    7.30    0.90
  -7   0  -7    7.20    0.90
   7   0   7    7.70    1.00
   7   0   7    8.70    0.80
   8  -1  -7   19.90    1.20
   8  -1  -7   19.90    1.20
  -8   1   7   18.80    1.00
  -8   1   7   20.10    1.40
   7  -1  -7  102.19    3.00
   7  -1  -7   97.19    3.20
  -7   1   7   99.89    2.80
  -7   1   7  101.19    3.10
  -7   1   7   99.39    3.30
   6  -1  -7    7.20    1.00
   6  -1  -7    8.30    1.20
  -6   1   7    4.40    1.00
  -6   1   7    8.30    1.10
  -6   1   7    6.90    1.20
   5  -1  -7    6.50    0.90
   5  -1  -7    7.80    1.20
   5  -1  -7    6.40    1.00
  -5   1   7    8.20    1.20
  -5   1   7    7.00    1.20
  -5   1   7    7.60    1.10
   4  -1  -7  177.38    4.60
   4  -1  -7  180.88    5.00
   4  -1  -7  183.28    4.60
  -4   1   7  180.58    4.60
  -4   1   7  186.48    4.90
   3  -1  -7   31.00    2.70
   3  -1  -7   27.50    1.80
  -3   1   7   26.60    1.60
   2  -1  -7  121.69    3.90
   2  -1  -7  118.69    3.50
  -2   1   7  121.29    3.40
   1  -1  -7  290.77    7.20
   0  -1  -7   17.10    1.90
   0  -1  -7   18.60    1.80
  -1  -1  -7   63.89    3.60
  -1  -1  -7   65.59    2.90
  -2  -1  -7  647.54   12.90
  -2  -1  -7  602.74   12.40
  -2  -1  -7  661.43   13.60
  -2  -1  -7  616.44   16.00
   2   1   7  575.34   14.70
  -3  -1  -7 1118.09   22.30
  -3  -1  -7 1114.79   21.90
  -3  -1  -7 1099.79   21.70
   3   1   7 1098.29   23.10
   3   1   7 1106.89   21.80
  -4  -1  -7   43.70    2.10
  -4  -1  -7   46.70    2.30
   4   1   7   43.90    2.20
   4   1   7   45.40    2.80
  -5  -1  -7    9.50    1.30
  -5  -1  -7    7.60    1.00
   5   1   7    9.60    1.50
   5   1   7   10.00    1.20
  -6  -1  -7    2.30    0.80
   6   1   7    2.20    0.90
   6   1   7    1.10    0.60
  -7  -1  -7    2.90    0.70
   7   1   7    2.10    0.60
   7   1   7    2.70    0.80
   8  -2  -7   17.10    1.10
  -8   2   7   15.80    1.20
   7  -2  -7   14.40    1.20
   7  -2  -7   16.20    1.40
  -7   2   7   14.70    1.20
  -7   2   7   14.40    1.40
   6  -2  -7  399.16    8.40
   6  -2  -7  381.76    8.50
   6  -2  -7  397.66    8.80
  -6   2   7  382.66    8.50
  -6   2   7  384.96    8.90
   5  -2  -7  488.85   10.40
   5  -2  -7  479.85   10.20
   5  -2  -7  492.75   10.60
  -5   2   7  484.95   10.30
  -5   2   7  484.55   10.70
   4  -2  -7    0.10    0.60
   4  -2  -7    0.80    0.60
   4  -2  -7   -0.10    0.60
  -4   2   7    0.20    0.60
  -4   2   7    0.40    0.60
   3  -2  -7    0.50    0.60
   3  -2  -7    0.10    0.80
   3  -2  -7    0.80    0.70
   3  -2  -7    0.80    0.60
  -3   2   7    0.70    0.60
  -3   2   7    0.90    0.60
  -3   2   7    0.70    0.60
   2  -2  -7    2.50    0.80
   2  -2  -7    1.00    0.70
  -2   2   7    1.30    0.60
   1  -2  -7   32.70    2.50
   1  -2  -7   33.10    2.00
   1  -2  -7   34.40    1.80
  -1   2   7   33.40    1.80
   0  -2  -7    0.30    0.80
   0  -2  -7    0.30    0.80
   0   2   7    0.10    0.50
  -1  -2  -7   37.10    2.10
  -1  -2  -7   32.50    2.80
  -1  -2  -7   38.10    2.30
  -2  -2  -7    7.20    1.30
  -2  -2  -7    9.50    1.20
  -2  -2  -7    9.00    1.00
  -2  -2  -7    7.40    1.20
  -2  -2  -7    6.90    1.10
   2   2   7    5.50    2.20
  -3  -2  -7  130.49    4.30
  -3  -2  -7  125.29    3.80
  -3  -2  -7  123.99    3.80
   3   2   7  136.79    5.60
   3   2   7  130.29    4.40
  -4  -2  -7   12.00    1.40
  -4  -2  -7   10.60    1.20
  -4  -2  -7   13.40    1.50
   4   2   7    9.90    1.70
   4   2   7   12.20    1.40
  -5  -2  -7    2.60    0.90
  -5  -2  -7    4.30    0.90
   5   2   7    3.50    1.20
   5   2   7    4.50    0.90
  -6  -2  -7   13.10    1.00
  -6  -2  -7   12.20    1.20
   6   2   7   11.40    1.30
   6   2   7   11.90    1.00
   7  -3  -7   33.10    1.50
   7  -3  -7   32.30    1.50
   7  -3  -7   31.10    1.60
   7  -3  -7   32.50    1.30
  -7   3   7   32.30    1.70
  -7   3   7   32.30    1.80
  -7   3   7   32.40    1.80
   6  -3  -7   -0.60    0.70
   6  -3  -7   -0.30    0.60
   6  -3  -7    0.30    0.60
   6  -3  -7    0.60    0.50
  -6   3   7    0.70    0.70
  -6   3   7    0.10    0.70
   5  -3  -7    2.10    0.70
   5  -3  -7    0.50    0.70
   5  -3  -7    3.50    1.00
   5  -3  -7    3.40    0.70
  -5   3   7    2.30    0.80
  -5   3   7    2.00    0.80
   4  -3  -7  192.88    4.80
   4  -3  -7  183.18    5.10
   4  -3  -7  188.88    4.80
  -4   3   7  179.18    5.10
  -4   3   7  189.88    5.00
  -4   3   7  187.08    4.70
   3  -3  -7  438.16    9.30
   3  -3  -7  440.76    9.70
   3  -3  -7  429.06    9.30
   3  -3  -7  436.06    9.70
  -3   3   7  434.56    9.70
   2  -3  -7    4.80    1.00
   2  -3  -7    7.70    1.10
   2  -3  -7    6.70    0.90
   2  -3  -7    7.80    1.00
   2  -3  -7    7.20    1.00
   2  -3  -7    5.50    1.10
  -2   3   7    6.20    1.00
   1  -3  -7   23.40    1.70
   1  -3  -7   23.40    1.70
   1  -3  -7   27.30    1.60
   1  -3  -7   24.70    2.50
   1  -3  -7   24.80    1.80
   1  -3  -7   26.00    2.50
   1  -3  -7   25.80    1.60
  -1   3   7   23.60    1.60
  -1   3   7   27.70    2.90
   0  -3  -7   46.90    2.10
   0  -3  -7   50.59    2.00
   0  -3  -7   53.99    2.50
   0  -3  -7   49.60    2.20
   0  -3  -7   50.39    2.50
   0   3   7   51.29    2.40
  -1  -3  -7  184.18    4.50
  -1  -3  -7  181.48    4.80
  -1  -3  -7  186.88    4.70
  -1  -3  -7  174.78    5.20
  -1  -3  -7  176.28    5.40
   1   3   7  185.58    5.20
  -2  -3  -7  166.98    4.60
  -2  -3  -7  173.98    4.30
  -2  -3  -7  170.98    4.60
  -2  -3  -7  172.88    5.20
  -2  -3  -7  169.48    5.00
   2   3   7  150.08    6.70
  -3  -3  -7  290.97    7.00
  -3  -3  -7  309.97    6.70
  -3  -3  -7  309.67    7.80
  -3  -3  -7  295.77    6.90
  -3  -3  -7  299.87    6.70
   3   3   7  285.57    9.20
   3   3   7  293.17    7.80
  -4  -3  -7  604.14   12.50
  -4  -3  -7  598.24   12.50
  -4  -3  -7  577.04   13.10
  -4  -3  -7  594.34   12.10
   4   3   7  613.74   13.90
   4   3   7  614.44   12.70
  -5  -3  -7   47.60    2.00
  -5  -3  -7   49.00    2.10
   5   3   7   49.90    2.70
   5   3   7   47.10    2.10
   5   3   7   45.60    1.90
  -6  -3  -7    2.30    0.60
  -6  -3  -7    2.90    0.70
   6   3   7    3.10    0.90
   6   3   7    3.50    0.70
   6   3   7    4.10    0.70
   7  -4  -7    0.50    0.50
   7  -4  -7   -0.40    0.50
   7  -4  -7    0.20    0.40
  -7   4   7   -1.40    0.60
  -7   4   7    0.50    0.70
  -7   4   7    0.00    0.60
   6  -4  -7    0.30    0.60
   6  -4  -7    1.70    0.70
   6  -4  -7    0.70    0.50
   6  -4  -7    1.50    0.60
  -6   4   7    1.40    0.70
  -6   4   7    1.00    0.70
   5  -4  -7    2.90    1.30
   5  -4  -7    2.40    0.80
   5  -4  -7    1.50    0.70
   5  -4  -7    2.10    0.60
   5  -4  -7    1.70    0.70
  -5   4   7    2.10    0.80
  -5   4   7    2.40    0.70
  -5   4   7    1.50    0.70
   4  -4  -7  287.57    6.80
   4  -4  -7  286.17    6.60
   4  -4  -7  295.67    6.40
   4  -4  -7  291.37    7.00
   4  -4  -7  285.77    7.10
   4  -4  -7  290.77    6.70
  -4   4   7  302.07    7.30
  -4   4   7  304.87    7.30
   3  -4  -7  331.67    7.40
   3  -4  -7  323.57    7.90
   3  -4  -7  326.47    7.10
   3  -4  -7  334.17    7.50
   3  -4  -7  328.17    7.30
   3  -4  -7  324.07    7.80
  -3   4   7  334.07    7.90
   2  -4  -7   30.10    1.70
   2  -4  -7   30.80    1.50
   2  -4  -7   28.40    1.50
   2  -4  -7   30.30    1.70
   2  -4  -7   31.70    1.60
   2  -4  -7   26.40    1.90
   2  -4  -7   28.20    1.80
  -2   4   7   27.60    1.70
   1  -4  -7   20.10    1.70
   1  -4  -7   22.00    1.40
   1  -4  -7   19.60    1.70
   1  -4  -7   19.70    1.60
   1  -4  -7   17.60    1.30
   1  -4  -7   17.80    1.80
   1  -4  -7   19.10    1.30
   1  -4  -7   19.30    1.30
  -1   4   7   23.90    1.80
  -1   4   7   18.40    1.50
   0  -4  -7   80.39    2.70
   0  -4  -7   83.69    3.30
   0  -4  -7   76.89    2.80
   0  -4  -7   78.59    2.90
   0  -4  -7   79.39    2.60
   0  -4  -7   78.09    2.60
   0  -4  -7   81.09    3.20
   0   4   7   78.69    3.00
  -1  -4  -7    5.50    0.90
  -1  -4  -7    6.90    1.00
  -1  -4  -7    5.40    1.00
  -1  -4  -7    8.30    1.00
  -1  -4  -7    5.10    1.20
  -1  -4  -7    5.70    0.90
  -1  -4  -7    5.30    1.20
   1   4   7    7.20    1.20
  -2  -4  -7    0.50    0.60
  -2  -4  -7   -0.50    0.60
  -2  -4  -7    1.00    1.00
  -2  -4  -7    2.30    0.70
  -2  -4  -7    1.80    1.00
  -2  -4  -7    0.80    0.70
   2   4   7   -0.10    1.00
  -3  -4  -7   40.60    1.80
  -3  -4  -7   41.50    2.10
  -3  -4  -7   41.00    1.80
  -3  -4  -7   39.00    2.50
  -3  -4  -7   38.60    1.90
   3   4   7   33.50    2.60
   3   4   7   37.40    3.60
  -4  -4  -7   29.10    1.60
  -4  -4  -7   29.60    1.50
  -4  -4  -7   30.80    1.80
  -4  -4  -7   30.50    1.60
   4   4   7   32.50    2.70
   4   4   7   30.70    1.90
  -5  -4  -7    5.00    0.80
  -5  -4  -7    4.80    0.80
   5   4   7    4.40    0.80
   5   4   7    3.80    1.00
   5   4   7    3.50    0.80
  -6  -4  -7    6.80    0.80
  -6  -4  -7    5.00    0.70
   6   4   7    7.00    0.90
   6   4   7    6.60    0.70
   6   4   7    7.60    0.70
   6  -5  -7   29.00    1.40
   6  -5  -7   32.10    1.40
   6  -5  -7   32.80    1.20
   6  -5  -7   31.50    1.50
  -6   5   7   29.40    1.50
  -6   5   7   27.80    1.60
   5  -5  -7    1.30    0.60
   5  -5  -7    2.20    0.60
   5  -5  -7    1.40    0.60
   5  -5  -7    1.90    0.80
   5  -5  -7    1.40    0.60
   5  -5  -7    1.60    0.70
  -5   5   7    2.30    0.70
   4  -5  -7   77.69    2.50
   4  -5  -7   71.89    2.90
   4  -5  -7   78.19    2.80
   4  -5  -7   71.49    2.30
   4  -5  -7   69.89    2.60
   4  -5  -7   73.79    2.50
  -4   5   7   74.39    2.90
   3  -5  -7   99.09    3.00
   3  -5  -7   93.69    2.90
   3  -5  -7   94.09    2.80
   3  -5  -7   96.99    3.20
   3  -5  -7   96.29    3.50
   3  -5  -7   90.09    3.30
  -3   5   7   96.79    3.40
   2  -5  -7  178.78    4.50
   2  -5  -7  178.48    5.20
   2  -5  -7  177.58    4.60
   2  -5  -7  177.08    4.50
   2  -5  -7  183.48    4.90
   2  -5  -7  174.18    4.40
   2  -5  -7  172.48    4.70
  -2   5   7  174.38    5.00
   1  -5  -7    8.60    1.00
   1  -5  -7    7.60    1.20
   1  -5  -7    9.60    1.20
   1  -5  -7    7.90    1.30
   1  -5  -7   10.20    1.00
   1  -5  -7    9.10    1.10
  -1   5   7    9.00    1.20
   0  -5  -7    3.80    0.80
   0  -5  -7    3.70    1.10
   0  -5  -7    2.30    0.80
   0  -5  -7    2.90    0.80
   0  -5  -7    1.40    1.00
   0  -5  -7    3.10    0.90
   0  -5  -7    4.70    1.00
   0   5   7    3.70    0.90
  -1  -5  -7   17.00    1.50
  -1  -5  -7   18.60    1.90
  -1  -5  -7   16.10    1.30
  -1  -5  -7   20.00    2.00
  -1  -5  -7   20.60    1.50
  -1  -5  -7   18.20    1.40
  -1  -5  -7   18.10    1.50
  -1  -5  -7   18.90    1.30
   1   5   7   18.60    1.70
  -2  -5  -7   90.39    3.50
  -2  -5  -7   93.89    3.00
  -2  -5  -7   88.59    2.90
  -2  -5  -7   92.39    3.10
  -2  -5  -7   85.29    3.60
  -2  -5  -7   93.59    2.90
  -2  -5  -7   87.79    2.80
  -2  -5  -7   94.69    2.80
   2   5   7   94.59    4.10
  -3  -5  -7    0.70    0.70
  -3  -5  -7   -0.20    0.60
  -3  -5  -7    0.40    0.60
  -3  -5  -7    0.40    0.60
   3   5   7   -0.10    1.60
   3   5   7    4.90    1.40
  -4  -5  -7    2.20    0.70
  -4  -5  -7    2.80    0.80
  -4  -5  -7    1.20    0.60
   4   5   7    0.90    0.80
   4   5   7    3.70    1.20
  -5  -5  -7   13.50    1.10
   5   5   7   12.30    0.90
   5   5   7   13.60    1.30
   5   5   7   14.80    1.10
   6  -6  -7   28.90    1.30
   6  -6  -7   29.80    1.20
   6  -6  -7   28.00    1.30
   6  -6  -7   27.90    1.10
   5  -6  -7   12.90    1.20
   5  -6  -7   11.50    1.00
   5  -6  -7   12.00    1.00
   5  -6  -7   13.40    1.10
   5  -6  -7   13.10    0.90
   5  -6  -7   13.40    1.10
   4  -6  -7    0.40    0.60
   4  -6  -7   -0.30    0.70
   4  -6  -7    0.80    0.60
   4  -6  -7    0.20    0.60
   4  -6  -7   -0.30    0.60
   4  -6  -7    0.80    0.60
  -4   6   7    0.00    0.50
   3  -6  -7    2.70    0.70
   3  -6  -7    1.90    0.60
   3  -6  -7    1.90    0.80
   3  -6  -7    2.40    0.90
   3  -6  -7    2.10    0.60
   3  -6  -7    1.70    0.70
  -3   6   7    0.80    0.60
   2  -6  -7   19.60    1.40
   2  -6  -7   16.50    1.40
   2  -6  -7   22.40    1.40
   2  -6  -7   18.30    1.80
   2  -6  -7   18.90    1.60
  -2   6   7   20.20    1.50
   1  -6  -7   75.69    2.60
   1  -6  -7   78.09    2.60
   1  -6  -7   75.59    2.70
   1  -6  -7   74.99    2.80
   1  -6  -7   75.59    3.20
   1  -6  -7   76.09    2.60
  -1   6   7   71.89    2.90
   0  -6  -7   21.90    1.50
   0  -6  -7   21.20    1.50
   0  -6  -7   22.60    1.60
   0  -6  -7   22.00    1.50
   0  -6  -7   23.10    2.00
   0  -6  -7   21.90    1.50
   0   6   7   22.60    1.70
  -1  -6  -7    5.60    1.00
  -1  -6  -7    5.40    1.00
  -1  -6  -7    4.80    1.20
  -1  -6  -7    6.10    0.90
  -1  -6  -7    4.20    0.80
  -1  -6  -7    6.50    0.90
   1   6   7    5.60    1.10
  -2  -6  -7   35.00    1.70
  -2  -6  -7   33.00    1.60
  -2  -6  -7   33.40    1.60
  -2  -6  -7   33.10    1.60
  -2  -6  -7   35.80    1.70
  -2  -6  -7   33.30    1.70
  -2  -6  -7   34.90    2.10
   2   6   7   22.60    2.40
   2   6   7   21.70    2.90
  -3  -6  -7   29.70    1.50
  -3  -6  -7   30.90    1.60
  -3  -6  -7   32.00    1.60
  -3  -6  -7   33.50    1.70
  -3  -6  -7   33.50    1.50
   3   6   7   35.50    2.90
   3   6   7   32.30    2.00
  -4  -6  -7   28.00    1.40
  -4  -6  -7   25.50    1.30
  -4  -6  -7   25.20    1.30
   4   6   7   27.70    1.40
   4   6   7   29.20    1.90
   5  -7  -7   23.40    1.40
   5  -7  -7   23.40    1.00
   5  -7  -7   23.00    1.10
   5  -7  -7   21.60    1.10
   5  -7  -7   21.70    1.20
  -5   7   7   17.80    1.30
   4  -7  -7   15.80    1.40
   4  -7  -7   15.70    1.10
   4  -7  -7   15.70    1.10
   4  -7  -7   14.50    1.00
   4  -7  -7   15.20    1.00
   4  -7  -7   13.20    1.10
  -4   7   7   15.80    1.20
   3  -7  -7    8.40    1.00
   3  -7  -7    7.10    0.90
   3  -7  -7    7.70    0.90
   3  -7  -7    8.30    0.80
   3  -7  -7    8.60    1.20
   2  -7  -7    1.90    0.90
   2  -7  -7    1.30    0.60
   2  -7  -7    0.70    0.50
   2  -7  -7    0.30    0.60
   2  -7  -7    0.80    0.60
  -2   7   7    1.50    0.70
   1  -7  -7    2.30    0.70
   1  -7  -7    2.30    1.00
   1  -7  -7    2.00    0.80
   1  -7  -7    1.00    0.60
   1  -7  -7    3.80    0.80
   1  -7  -7    2.00    0.70
  -1   7   7    2.00    0.70
   0  -7  -7    5.90    0.80
   0  -7  -7    6.30    0.90
   0  -7  -7    4.00    0.80
   0  -7  -7    6.00    1.20
   0  -7  -7    6.80    1.00
   0  -7  -7    5.70    0.90
   0   7   7    6.80    1.10
  -1  -7  -7    3.90    0.90
  -1  -7  -7    3.80    0.80
  -1  -7  -7    3.30    0.60
  -1  -7  -7    3.30    0.70
  -1  -7  -7    4.70    0.80
  -1  -7  -7    3.10    0.70
  -2  -7  -7   16.20    1.20
  -2  -7  -7   15.80    1.20
  -2  -7  -7   17.30    1.10
  -2  -7  -7   15.80    1.00
  -2  -7  -7   15.50    1.10
  -2  -7  -7   15.60    1.10
   2   7   7   13.10    2.10
  -3  -7  -7    0.30    0.50
  -3  -7  -7   -0.20    0.50
  -3  -7  -7    0.60    0.50
  -3  -7  -7    1.00    0.50
  -3  -7  -7   -0.70    0.60
   3   7   7    0.80    0.60
   3   7   7    0.40    0.90
   3  -8  -7    3.10    0.90
   3  -8  -7    4.00    0.70
   3  -8  -7    4.50    0.70
   3  -8  -7    3.20    0.60
   2  -8  -7    0.30    0.60
   2  -8  -7   -0.20    0.50
   2  -8  -7    0.90    0.60
   2  -8  -7   -0.70    0.70
   2  -8  -7    0.30    0.50
   1  -8  -7   59.09    2.30
   1  -8  -7   56.99    2.00
   1  -8  -7   58.99    2.00
   1  -8  -7   57.49    2.00
   1  -8  -7   57.19    1.80
   0  -8  -7   18.90    1.40
   0  -8  -7   18.30    1.20
   0  -8  -7   16.30    1.30
   0  -8  -7   18.30    1.20
   0  -8  -7   17.00    1.00
   0  -8  -7   17.80    1.10
  -1  -8  -7    4.00    0.70
  -1  -8  -7    5.90    0.60
  -1  -8  -7    3.40    0.70
  -1  -8  -7    5.60    0.70
  -1  -8  -7    5.50    0.70
   1   8   7    3.00    1.50
   3   7  -8   22.60    1.70
  -3  -7   8   21.40    1.10
  -3  -7   8   21.90    1.20
  -3  -7   8   21.00    1.20
   2   7  -8    7.30    1.10
  -2  -7   8    8.30    0.80
  -2  -7   8    9.80    0.80
  -2  -7   8    7.90    0.80
  -2  -7   8    8.40    0.80
  -1  -7   8    8.00    0.80
  -1  -7   8    7.30    0.80
  -1  -7   8    9.00    0.80
  -1  -7   8    8.70    0.90
  -1  -7   8    9.40    1.00
   0  -7   8    0.70    0.50
   0  -7   8    0.30    0.50
   0  -7   8    0.80    0.50
   0  -7   8    1.40    0.50
   0  -7   8    1.10    0.50
  -1   7  -8   30.70    1.40
   1  -7   8   32.40    1.20
   1  -7   8   31.30    2.00
   1  -7   8   31.20    1.30
   1  -7   8   32.20    1.40
   1  -7   8   30.70    1.40
   1  -7   8   30.30    1.50
   2  -7   8    1.20    0.50
   2  -7   8    0.80    0.50
   2  -7   8    2.20    0.60
   2  -7   8    1.90    0.50
   5   6  -8    8.30    1.10
  -5  -6   8    6.30    0.70
   4   6  -8    9.70    1.30
  -4  -6   8    9.40    0.80
  -4  -6   8   10.50    0.90
  -4  -6   8   10.30    0.90
  -4  -6   8   10.70    1.00
  -3  -6   8   10.10    0.90
  -3  -6   8    9.20    0.90
  -3  -6   8   11.00    0.90
  -3  -6   8    8.80    1.00
  -3  -6   8    9.80    1.00
  -3  -6   8    9.30    0.90
   2   6  -8   17.60    1.70
   2   6  -8   17.30    1.70
  -2  -6   8   15.70    1.40
  -2  -6   8   21.10    1.30
  -2  -6   8   18.80    1.30
  -2  -6   8   17.80    1.20
  -2  -6   8   18.90    1.30
  -2  -6   8   18.80    1.30
   1   6  -8    3.20    1.10
   1   6  -8    3.20    1.00
  -1  -6   8    3.30    0.90
  -1  -6   8    2.50    0.70
  -1  -6   8    1.90    0.70
  -1  -6   8    2.90    0.80
  -1  -6   8    2.30    0.60
   0   6  -8    0.00    0.80
   0  -6   8   -0.50    0.40
   0  -6   8    0.50    0.60
   0  -6   8    0.80    0.70
   0  -6   8    0.80    0.60
   0  -6   8    0.60    0.60
   0  -6   8   -0.20    0.50
  -1   6  -8   70.49    2.80
   1  -6   8   66.09    2.40
   1  -6   8   69.49    2.30
   1  -6   8   72.09    2.20
   1  -6   8   71.29    2.40
   1  -6   8   67.99    2.20
   1  -6   8   72.39    2.60
  -2   6  -8   39.10    1.60
   2  -6   8   35.10    1.40
   2  -6   8   39.00    1.70
   2  -6   8   38.10    1.70
   2  -6   8   38.90    1.60
   2  -6   8   37.90    1.70
   3  -6   8    0.90    0.60
   3  -6   8    1.20    0.50
   3  -6   8    1.50    0.50
   3  -6   8    0.90    0.40
   3  -6   8    1.30    0.60
  -4   6  -8    1.70    0.70
   4  -6   8    3.30    0.50
   4  -6   8    3.00    0.60
   6   5  -8    0.20    0.70
  -6  -5   8    0.70    0.50
   5   5  -8    1.50    0.60
   5   5  -8    0.30    0.90
  -5  -5   8    0.30    0.60
  -5  -5   8    1.20    0.60
  -5  -5   8    1.00    0.50
  -4  -5   8   -0.30    0.50
  -4  -5   8    0.70    0.60
  -4  -5   8    0.80    0.70
  -4  -5   8    0.20    0.50
  -4  -5   8    0.90    0.60
   3   5  -8   39.80    2.40
  -3  -5   8   42.00    1.90
  -3  -5   8   41.40    2.10
  -3  -5   8   41.30    1.90
  -3  -5   8   40.90    1.80
  -3  -5   8   42.60    1.80
  -3  -5   8   42.60    1.80
   2   5  -8  182.68    5.60
  -2  -5   8  187.88    4.70
  -2  -5   8  187.58    4.70
  -2  -5   8  188.58    4.80
  -2  -5   8  195.38    5.20
  -2  -5   8  197.08    4.70
  -2  -5   8  190.28    4.70
   1   5  -8   22.70    2.60
   1   5  -8   27.20    2.10
   1   5  -8   20.40    2.00
  -1  -5   8   22.40    1.50
  -1  -5   8   21.70    1.60
  -1  -5   8   20.70    1.50
  -1  -5   8   19.60    1.30
  -1  -5   8   20.00    1.40
  -1  -5   8   22.30    1.40
  -1  -5   8   22.00    2.00
   0   5  -8   97.39    5.20
   0   5  -8   86.39    3.80
   0  -5   8   90.29    2.80
   0  -5   8   93.09    3.20
   0  -5   8   88.69    2.90
   0  -5   8   92.49    2.80
   0  -5   8   90.99    2.90
   0  -5   8   84.19    3.00
  -1   5  -8  109.39    3.90
   1  -5   8  101.69    3.00
   1  -5   8  102.19    2.90
   1  -5   8  103.39    3.10
   1  -5   8  100.09    3.40
   1  -5   8  105.29    3.40
   1  -5   8  101.29    3.10
  -2   5  -8   92.49    3.00
  -2   5  -8   93.69    3.40
   2  -5   8   95.79    2.80
   2  -5   8   94.29    3.10
   2  -5   8   90.99    3.00
   2  -5   8   96.49    2.70
   2  -5   8   95.79    2.90
   3  -5   8    6.40    0.90
   3  -5   8    7.20    0.70
   3  -5   8    7.90    0.90
   3  -5   8    7.00    0.90
   3  -5   8    7.20    0.80
  -4   5  -8   17.20    1.30
   4  -5   8   17.10    1.20
   4  -5   8   14.20    0.90
   4  -5   8   17.20    1.00
   6   4  -8   68.69    2.50
   6   4  -8   69.39    2.40
  -6  -4   8   66.59    2.10
  -6  -4   8   66.79    2.00
   5   4  -8   61.39    2.40
   5   4  -8   56.69    2.70
  -5  -4   8   62.79    2.10
  -5  -4   8   60.79    2.20
  -5  -4   8   56.79    2.30
  -5  -4   8   59.49    2.20
   4   4  -8   82.89    2.90
  -4  -4   8   87.49    3.20
  -4  -4   8   96.09    3.00
  -4  -4   8   91.29    2.90
  -4  -4   8   90.89    2.80
  -4  -4   8   86.69    2.80
   3   4  -8   75.59    4.00
  -3  -4   8   87.09    2.80
  -3  -4   8   81.09    2.60
  -3  -4   8   78.99    2.80
  -3  -4   8   83.89    2.70
  -3  -4   8   80.39    3.10
   2   4  -8   49.10    2.80
   2   4  -8   46.10    3.30
  -2  -4   8   53.59    2.30
  -2  -4   8   52.29    2.10
  -2  -4   8   49.50    2.40
  -2  -4   8   53.09    2.10
  -2  -4   8   53.09    2.10
  -2  -4   8   49.80    2.10
   1   4  -8  161.08    5.40
   1   4  -8  158.28    5.90
   1   4  -8  162.58    4.90
  -1  -4   8  162.78    4.30
  -1  -4   8  167.38    4.40
  -1  -4   8  158.78    4.70
  -1  -4   8  162.38    4.20
  -1  -4   8  166.78    4.70
  -1  -4   8  161.88    4.30
  -1  -4   8  165.78    4.30
   0   4  -8   78.49    4.00
   0   4  -8   85.49    3.70
   0   4  -8   81.19    3.20
   0  -4   8   76.49    3.10
   0  -4   8   81.19    2.70
   0  -4   8   79.79    2.70
   0  -4   8   81.59    2.60
   0  -4   8   79.99    3.00
   0  -4   8   78.09    2.70
  -1   4  -8   -0.10    0.90
  -1   4  -8    1.00    0.80
   1  -4   8    0.40    0.70
   1  -4   8    0.60    0.80
   1  -4   8    0.50    0.60
   1  -4   8    0.90    0.70
   1  -4   8   -0.30    0.60
   1  -4   8    0.40    0.60
  -2   4  -8  214.68    5.90
  -2   4  -8  224.18    5.60
   2  -4   8  221.08    5.40
   2  -4   8  222.28    5.60
   2  -4   8  219.28    5.30
   2  -4   8  228.58    5.10
   2  -4   8  222.98    5.70
  -3   4  -8   93.39    2.90
   3  -4   8   94.09    2.90
   3  -4   8   90.39    3.00
   3  -4   8   88.09    2.70
   3  -4   8   96.29    2.90
  -4   4  -8   78.29    2.70
   4  -4   8   78.19    2.50
  -5   4  -8    5.40    0.90
   5  -4   8    4.60    0.70
   7   3  -8    6.80    1.00
  -7  -3   8    8.20    0.80
   6   3  -8    1.90    0.80
   6   3  -8    2.10    0.90
  -6  -3   8    2.20    0.70
  -6  -3   8    1.60    0.60
  -6  -3   8    1.70    0.60
   5   3  -8    1.80    1.00
   5   3  -8    1.20    0.70
  -5  -3   8    1.00    0.70
  -5  -3   8    1.60    0.70
  -5  -3   8    0.40    0.50
   4   3  -8    0.90    1.20
   4   3  -8    1.60    0.80
   4   3  -8    1.00    1.10
  -4  -3   8    1.30    0.70
  -4  -3   8    1.20    0.80
  -4  -3   8    1.50    0.80
  -4  -3   8    1.20    0.60
   3   3  -8   19.70    2.40
   3   3  -8   17.10    1.80
  -3  -3   8   22.50    1.50
  -3  -3   8   22.00    1.60
  -3  -3   8   19.40    1.30
  -3  -3   8   20.90    1.70
  -3  -3   8   21.80    1.70
   2   3  -8  174.08    5.30
   2   3  -8  175.78    6.20
  -2  -3   8  176.68    4.70
  -2  -3   8  174.98    4.40
  -2  -3   8  181.78    4.60
  -2  -3   8  186.38    5.10
  -2  -3   8  183.68    4.70
  -2  -3   8  164.48    5.10
   1   3  -8  199.28    5.60
   1   3  -8  186.68    5.90
   1   3  -8  204.48    6.80
  -1  -3   8  197.78    4.70
  -1  -3   8  197.78    5.00
  -1  -3   8  187.98    5.70
  -1  -3   8  203.98    4.90
  -1  -3   8  194.88    5.60
  -1  -3   8  196.58    5.30
   0   3  -8    3.60    1.10
   0   3  -8    2.00    1.10
   0   3  -8    4.10    1.50
   0  -3   8    2.60    0.80
   0  -3   8    1.50    1.00
   0  -3   8    3.20    0.90
   0  -3   8    3.20    0.80
   0  -3   8    2.50    0.70
  -1   3  -8   49.00    2.80
  -1   3  -8   51.19    2.60
   1  -3   8   45.60    2.00
   1  -3   8   48.40    2.00
   1  -3   8   45.60    2.00
   1  -3   8   51.59    2.30
   1  -3   8   51.79    2.60
  -2   3  -8   24.50    1.70
   2  -3   8   30.20    1.80
   2  -3   8   24.80    1.50
   2  -3   8   25.60    1.90
   2  -3   8   27.50    1.60
  -3   3  -8    5.30    0.90
   3  -3   8    3.40    0.90
   3  -3   8    2.90    0.80
  -4   3  -8    6.70    1.10
   4  -3   8    6.80    0.90
  -5   3  -8    2.40    0.80
   5  -3   8    1.40    0.50
   7   2  -8   39.60    1.90
  -7  -2   8   39.30    1.50
  -7  -2   8   40.70    1.60
   6   2  -8    1.40    0.80
  -6  -2   8    0.20    0.70
  -6  -2   8    1.00    0.50
  -6  -2   8    0.60    0.70
   5   2  -8   34.80    2.40
   5   2  -8   40.40    2.10
  -5  -2   8   38.20    1.90
  -5  -2   8   35.60    1.60
  -5  -2   8   36.70    2.00
   4   2  -8    1.50    1.10
   4   2  -8    0.10    0.80
   4   2  -8    0.90    1.10
  -4  -2   8    0.50    0.60
  -4  -2   8    0.00    0.70
  -4  -2   8    0.20    0.80
   3   2  -8    0.00    1.20
   3   2  -8    0.70    0.80
   3   2  -8    0.40    1.10
  -3  -2   8    0.10    0.70
  -3  -2   8    0.60    0.70
  -3  -2   8   -1.10    0.80
  -3  -2   8   -0.30    0.50
   2   2  -8   -0.90    0.90
   2   2  -8   -1.10    1.20
  -2  -2   8   -0.90    0.50
  -2  -2   8   -1.00    0.80
  -2  -2   8   -0.50    0.60
  -2  -2   8   -0.10    0.60
   1   2  -8   86.89    4.20
   1   2  -8   84.99    3.40
  -1  -2   8   82.69    3.40
  -1  -2   8   81.59    2.80
  -1  -2   8   80.79    2.70
  -1  -2   8   86.99    3.10
   0   2  -8  177.78    5.10
   0   2  -8  184.18    5.90
   0  -2   8  180.58    5.40
   0  -2   8  182.98    4.60
   0  -2   8  184.78    4.90
   0  -2   8  180.38    4.60
  -1   2  -8  311.37    8.00
  -1   2  -8  295.47    7.20
   1  -2   8  307.57    7.10
   1  -2   8  299.87    6.80
   1  -2   8  306.37    7.60
   1  -2   8  306.87    6.80
   1  -2   8  297.77    6.70
  -2   2  -8    6.30    1.10
  -2   2  -8    8.40    1.40
   2  -2   8    7.50    1.20
   2  -2   8    8.70    1.10
  -3   2  -8   30.30    1.70
  -3   2  -8   33.00    1.90
   3  -2   8   31.20    1.80
   3  -2   8   32.40    1.70
  -4   2  -8    9.60    1.00
  -4   2  -8    8.70    1.30
   4  -2   8   10.20    1.10
  -5   2  -8    4.70    0.90
   5  -2   8    3.90    0.90
  -6   2  -8    0.40    0.60
   6  -2   8    0.40    0.50
   6  -2   8    0.60    0.40
   7   1  -8    4.60    0.90
   7   1  -8    5.60    0.70
  -7  -1   8    6.00    0.80
  -7  -1   8    6.20    0.70
  -7  -1   8    5.50    0.90
   6   1  -8    9.50    1.20
   6   1  -8   11.90    1.00
  -6  -1   8   11.30    1.20
  -6  -1   8   10.10    1.00
  -6  -1   8    9.50    1.20
   5   1  -8   21.10    1.80
   5   1  -8   18.00    1.70
  -5  -1   8   20.30    1.30
  -5  -1   8   17.40    1.60
  -5  -1   8   16.80    1.40
   4   1  -8    2.30    0.90
   4   1  -8    1.50    1.10
  -4  -1   8    3.20    1.10
  -4  -1   8    2.50    0.80
  -4  -1   8    1.40    0.80
   3   1  -8    7.20    1.50
   3   1  -8    7.10    1.40
   3   1  -8    8.60    1.20
  -3  -1   8    8.20    1.20
  -3  -1   8    9.10    1.40
  -3  -1   8    7.50    1.00
   2   1  -8    8.60    1.70
   2   1  -8    8.00    1.50
  -2  -1   8    8.30    1.10
  -2  -1   8    9.40    1.40
  -2  -1   8    9.00    1.50
  -2  -1   8    7.80    1.10
   1   1  -8   47.50    2.50
   1   1  -8   43.30    2.80
  -1  -1   8   41.40    2.30
  -1  -1   8   41.30    1.80
  -1  -1   8   44.10    1.90
  -1  -1   8   42.00    2.00
   0   1  -8   67.19    2.60
   0   1  -8   67.99    2.70
   0   1  -8   68.89    3.30
   0  -1   8   63.09    2.90
   0  -1   8   67.69    2.50
   0  -1   8   62.99    2.30
  -1   1  -8  425.96    9.90
  -1   1  -8  412.66    9.10
  -1   1  -8  416.56    9.20
   1  -1   8  411.66    9.70
   1  -1   8  408.86    8.80
  -2   1  -8  617.54   13.50
  -2   1  -8  622.04   12.90
   2  -1   8  611.84   12.60
   2  -1   8  620.64   13.20
  -3   1  -8   98.39    3.20
  -3   1  -8  101.39    3.40
   3  -1   8   99.49    3.30
   3  -1   8   89.99    3.80
  -4   1  -8  107.69    3.60
  -4   1  -8  111.49    3.30
   4  -1   8  107.99    3.80
   4  -1   8  112.09    3.10
  -5   1  -8   28.60    1.80
   5  -1   8   30.00    1.50
   5  -1   8   29.90    1.90
  -6   1  -8    9.10    1.00
   6  -1   8    8.90    1.00
   6  -1   8    8.90    0.70
   7   0  -8  149.79    3.60
   7   0  -8  147.09    3.90
  -7   0   8  141.09    3.50
  -7   0   8  145.89    3.80
  -7   0   8  144.29    4.00
   6   0  -8  269.27    6.10
   6   0  -8  269.87    6.50
  -6   0   8  269.67    6.20
  -6   0   8  264.27    6.50
   5   0  -8  109.49    3.60
   5   0  -8  106.49    3.20
  -5   0   8  110.59    3.30
  -5   0   8  109.19    3.60
  -5   0   8  106.29    3.60
   4   0  -8   24.80    1.80
   4   0  -8   23.80    1.80
  -4   0   8   21.20    1.80
  -4   0   8   22.70    1.60
  -4   0   8   24.00    1.70
   3   0  -8  106.19    3.50
   3   0  -8  100.19    3.60
   3   0  -8  103.99    3.80
  -3   0   8  103.19    3.60
  -3   0   8  113.09    3.50
  -3   0   8  106.39    3.20
   2   0  -8   12.20    1.50
   2   0  -8   13.50    1.40
   2   0  -8   15.50    1.80
  -2   0   8   11.80    1.30
  -2   0   8   10.60    1.30
  -2   0   8   13.60    1.20
   1   0  -8   20.10    2.00
   1   0  -8   23.50    1.90
   1   0  -8   22.70    1.70
  -1   0   8   23.50    1.90
  -1   0   8   24.50    1.60
   0   0  -8    9.30    1.20
   0   0  -8    8.40    1.50
   0   0  -8    7.60    1.20
   0   0   8    9.70    1.40
  -1   0  -8  197.98    5.10
  -1   0  -8  199.98    5.20
  -1   0  -8  198.98    5.80
   1   0   8  196.88    5.50
  -2   0  -8  178.78    4.90
  -2   0  -8  185.48    4.90
  -2   0  -8  184.68    5.40
   2   0   8  175.68    5.10
   2   0   8  186.48    5.60
  -3   0  -8   10.50    1.30
  -3   0  -8   16.10    1.60
  -3   0  -8   10.90    1.40
   3   0   8   13.60    1.20
   3   0   8    9.70    1.60
  -4   0  -8   17.80    1.40
  -4   0  -8   15.60    1.50
   4   0   8   15.60    1.70
   4   0   8   19.40    1.40
  -5   0  -8    8.10    1.10
  -5   0  -8    7.20    0.90
   5   0   8    6.20    1.20
   5   0   8    6.20    0.80
  -6   0  -8    8.40    1.00
   6   0   8    7.30    1.00
   6   0   8    6.10    0.70
   7  -1  -8    3.50    0.70
   7  -1  -8    1.20    0.70
  -7   1   8    1.60    0.70
  -7   1   8    1.60    0.70
   6  -1  -8    2.50    0.70
   6  -1  -8    3.20    0.90
  -6   1   8    1.30    0.80
  -6   1   8    2.00    0.70
  -6   1   8    2.20    0.80
   5  -1  -8  102.39    3.10
   5  -1  -8  100.79    3.50
  -5   1   8  101.69    3.20
  -5   1   8  101.49    3.50
  -5   1   8  104.19    3.50
   4  -1  -8   14.40    1.50
   4  -1  -8   12.20    1.40
   4  -1  -8   11.70    1.20
  -4   1   8    9.80    1.20
  -4   1   8   14.60    1.60
  -4   1   8   10.60    1.20
   3  -1  -8   10.20    1.20
   3  -1  -8   12.70    1.40
  -3   1   8   13.00    1.30
  -3   1   8    9.00    1.20
  -3   1   8   11.60    1.20
   2  -1  -8   25.70    1.90
   2  -1  -8   25.60    1.90
   2  -1  -8   20.60    1.60
  -2   1   8   26.30    1.80
  -2   1   8   23.70    1.50
   1  -1  -8   17.60    1.70
   1  -1  -8   18.40    1.90
  -1   1   8   14.60    1.50
   0  -1  -8   35.50    2.30
   0  -1  -8   36.00    2.00
   0  -1  -8   33.20    1.80
   0   1   8   34.70    2.00
  -1  -1  -8   14.60    1.70
  -1  -1  -8   11.50    1.30
  -1  -1  -8   14.40    1.40
   1   1   8   19.70    1.80
   1   1   8    6.70    2.00
  -2  -1  -8  118.39    4.20
  -2  -1  -8  117.89    3.50
  -2  -1  -8  123.29    3.70
   2   1   8  121.69    3.90
   2   1   8  121.79    4.90
  -3  -1  -8  446.46   10.40
  -3  -1  -8  445.16    9.80
  -3  -1  -8  452.85    9.80
   3   1   8  439.66   10.80
   3   1   8  448.96    9.70
  -4  -1  -8   48.00    2.10
  -4  -1  -8   48.50    2.30
   4   1   8   44.20    2.60
   4   1   8   48.70    2.10
  -5  -1  -8   10.00    1.20
  -5  -1  -8   10.10    1.00
   5   1   8    9.60    1.30
   5   1   8   10.70    1.00
  -6  -1  -8   -0.10    0.60
   6   1   8    0.30    0.80
   6   1   8    0.10    0.50
   7  -2  -8   12.20    1.00
   7  -2  -8   11.00    1.10
  -7   2   8   10.30    1.10
  -7   2   8   10.20    1.00
   6  -2  -8   48.20    2.20
   6  -2  -8   45.90    1.90
  -6   2   8   44.90    2.20
  -6   2   8   46.20    2.20
  -6   2   8   48.20    2.00
   5  -2  -8  434.56    9.20
   5  -2  -8  425.56    9.60
   5  -2  -8  432.96    9.20
  -5   2   8  426.26    9.60
  -5   2   8  432.46    9.60
  -5   2   8  427.76    9.20
   4  -2  -8  145.89    4.10
   4  -2  -8  150.48    4.40
   4  -2  -8  148.69    4.00
  -4   2   8  150.18    4.50
  -4   2   8  155.18    4.30
  -4   2   8  149.49    4.00
   3  -2  -8    5.50    1.10
   3  -2  -8    5.10    1.00
   3  -2  -8    7.00    0.90
  -3   2   8    5.20    0.90
  -3   2   8    4.80    0.90
  -3   2   8    5.50    1.10
   2  -2  -8   78.49    2.90
   2  -2  -8   84.99    3.20
   2  -2  -8   81.49    3.00
  -2   2   8   77.49    3.00
   1  -2  -8   57.49    2.80
   1  -2  -8   61.59    2.50
   1  -2  -8   59.29    2.50
  -1   2   8   59.19    2.60
   0  -2  -8    3.60    0.90
   0  -2  -8    4.00    1.10
   0  -2  -8    2.20    0.70
   0  -2  -8    4.20    0.90
   0  -2  -8    5.60    1.10
   0   2   8    4.20    1.10
  -1  -2  -8  269.17    7.00
  -1  -2  -8  249.78    5.70
  -1  -2  -8  262.27    6.20
  -1  -2  -8  258.47    6.50
  -1  -2  -8  255.67    6.10
   1   2   8  211.38    8.00
  -2  -2  -8  300.67    6.90
  -2  -2  -8  307.27    7.80
  -2  -2  -8  302.97    6.50
  -2  -2  -8  292.07    6.80
   2   2   8  270.17    8.80
   2   2   8  263.27    7.30
  -3  -2  -8  219.98    6.20
  -3  -2  -8  217.18    5.70
  -3  -2  -8  226.58    5.70
   3   2   8  242.28    7.10
   3   2   8  227.98    5.90
  -4  -2  -8   21.00    1.50
  -4  -2  -8   18.30    1.50
   4   2   8   14.20    1.80
   4   2   8   17.80    1.40
  -5  -2  -8    0.60    0.60
  -5  -2  -8   -0.90    0.50
   5   2   8    0.60    0.60
   5   2   8    0.20    0.90
  -6  -2  -8    1.90    0.50
  -6  -2  -8    3.00    0.70
   6   2   8    3.50    0.60
   6   2   8    2.80    0.90
   7  -3  -8   11.00    0.90
   7  -3  -8   11.60    1.00
  -7   3   8   12.50    1.10
  -7   3   8   11.80    1.00
   6  -3  -8    0.00    0.50
   6  -3  -8    1.60    0.80
  -6   3   8    0.60    0.70
  -6   3   8    0.80    0.60
  -6   3   8   -0.40    0.70
   5  -3  -8   13.80    1.20
   5  -3  -8   14.90    1.50
   5  -3  -8   12.00    1.20
  -5   3   8   12.70    1.40
  -5   3   8   13.90    1.30
  -5   3   8   13.90    1.20
   4  -3  -8    0.10    0.80
   4  -3  -8    2.10    0.70
   4  -3  -8    1.50    0.70
  -4   3   8    1.70    1.00
  -4   3   8    0.90    0.60
  -4   3   8    0.10    0.60
   3  -3  -8   53.59    2.10
   3  -3  -8   46.60    2.10
   3  -3  -8   48.90    2.40
   3  -3  -8   51.09    2.20
  -3   3   8   50.49    2.40
   2  -3  -8  118.19    3.70
   2  -3  -8  114.99    3.50
   2  -3  -8  113.69    3.80
   2  -3  -8  110.39    3.30
  -2   3   8  115.19    3.70
  -2   3   8  110.89    3.70
   1  -3  -8    0.10    0.70
   1  -3  -8    0.00    0.60
   1  -3  -8    2.10    0.80
   1  -3  -8   -0.30    0.80
   1  -3  -8    0.20    0.70
  -1   3   8   -0.20    0.60
  -1   3   8    0.80    0.90
   0  -3  -8   24.70    2.00
   0  -3  -8   23.80    1.80
   0  -3  -8   21.80    1.50
   0  -3  -8   23.70    1.50
   0  -3  -8   21.50    1.60
   0  -3  -8   21.90    1.90
  -1  -3  -8   33.60    1.90
  -1  -3  -8   32.10    1.70
  -1  -3  -8   29.90    2.10
  -1  -3  -8   31.00    2.30
  -1  -3  -8   31.50    1.80
  -2  -3  -8   94.69    2.90
  -2  -3  -8   98.59    3.80
  -2  -3  -8   89.79    3.10
  -2  -3  -8   91.19    3.40
  -2  -3  -8   92.59    3.00
   2   3   8   68.89    4.80
  -3  -3  -8    1.60    0.70
  -3  -3  -8    3.30    1.20
  -3  -3  -8    2.40    0.80
   3   3   8   -0.20    1.40
   3   3   8    2.30    1.10
  -4  -3  -8   25.30    1.50
  -4  -3  -8   26.50    1.70
   4   3   8   25.30    1.70
   4   3   8   27.70    2.20
  -5  -3  -8   24.20    1.40
  -5  -3  -8   25.80    1.40
   5   3   8   27.30    1.90
   5   3   8   24.80    1.40
   6  -4  -8   11.70    1.00
   6  -4  -8   13.70    1.20
   6  -4  -8   13.20    1.10
  -6   4   8   11.70    1.10
  -6   4   8   12.50    1.30
  -6   4   8   10.20    0.90
   5  -4  -8   33.40    1.70
   5  -4  -8   32.10    1.50
   5  -4  -8   33.60    1.70
   5  -4  -8   33.80    1.80
  -5   4   8   36.70    1.60
  -5   4   8   34.20    1.80
   4  -4  -8   28.00    1.40
   4  -4  -8   28.40    1.60
   4  -4  -8   26.20    1.60
   4  -4  -8   24.60    1.80
   3  -4  -8   35.90    1.80
   3  -4  -8   34.00    1.70
   3  -4  -8   37.20    2.10
   3  -4  -8   34.60    1.60
   3  -4  -8   36.30    1.70
   3  -4  -8   35.10    2.10
  -3   4   8   38.00    2.10
  -3   4   8   34.30    2.00
   2  -4  -8   38.60    1.70
   2  -4  -8   41.50    2.00
   2  -4  -8   36.80    2.20
   2  -4  -8   37.70    2.10
   2  -4  -8   38.30    1.90
  -2   4   8   38.70    2.10
  -2   4   8   40.80    2.20
   1  -4  -8  236.98    5.50
   1  -4  -8  229.68    6.30
   1  -4  -8  239.08    6.30
   1  -4  -8  238.58    6.00
   1  -4  -8  233.18    5.80
   1  -4  -8  231.78    5.60
  -1   4   8  234.88    6.20
  -1   4   8  239.68    6.00
   0  -4  -8  382.96    8.70
   0  -4  -8  379.06    9.30
   0  -4  -8  385.66    8.60
   0  -4  -8  395.46    9.30
   0  -4  -8  394.26    8.40
   0   4   8  380.26    9.10
  -1  -4  -8    9.10    1.20
  -1  -4  -8   13.20    1.20
  -1  -4  -8    9.70    1.10
  -1  -4  -8   11.30    1.50
  -1  -4  -8   13.90    1.20
  -1  -4  -8   12.40    1.60
  -1  -4  -8   13.30    1.30
  -2  -4  -8  160.48    4.40
  -2  -4  -8  160.28    5.10
  -2  -4  -8  160.08    4.10
  -2  -4  -8  159.98    4.30
  -2  -4  -8  159.68    4.80
  -2  -4  -8  159.68    4.10
  -3  -4  -8    7.70    1.00
  -3  -4  -8   10.40    1.00
  -3  -4  -8    9.30    1.10
   3   4   8    9.60    1.40
   3   4   8    8.30    1.80
  -4  -4  -8   55.19    1.80
  -4  -4  -8   55.99    2.10
   4   4   8   53.69    2.70
   4   4   8   53.79    2.00
   4   4   8   56.99    2.20
  -5  -4  -8    1.40    0.60
   5   4   8    1.10    0.60
   5   4   8    1.70    0.90
   6  -5  -8   60.09    1.70
   6  -5  -8   61.19    2.00
  -6   5   8   58.89    2.40
   5  -5  -8   29.90    1.30
   5  -5  -8   32.40    1.50
   5  -5  -8   30.20    1.60
   5  -5  -8   30.40    1.50
  -5   5   8   30.70    1.90
   4  -5  -8   24.90    1.60
   4  -5  -8   25.60    1.70
   4  -5  -8   23.80    1.30
   4  -5  -8   27.70    1.50
   4  -5  -8   27.50    1.40
   4  -5  -8   26.00    1.50
  -4   5   8   26.90    1.70
  -4   5   8   24.90    1.80
   3  -5  -8   -0.70    0.70
   3  -5  -8    0.10    0.60
   3  -5  -8   -0.40    0.60
   3  -5  -8    0.30    0.60
   3  -5  -8   -0.10    0.70
   3  -5  -8    0.20    0.50
  -3   5   8   -0.90    0.70
  -3   5   8    0.70    0.60
   2  -5  -8    9.30    1.30
   2  -5  -8   10.50    1.10
   2  -5  -8    9.10    1.10
   2  -5  -8    8.00    1.10
   2  -5  -8   10.10    1.00
   2  -5  -8   10.60    1.10
  -2   5   8    9.90    1.30
  -2   5   8   10.10    1.30
   1  -5  -8   15.30    1.30
   1  -5  -8   14.00    1.60
   1  -5  -8   16.90    1.40
   1  -5  -8   12.90    1.40
   1  -5  -8   15.30    1.20
   1  -5  -8   14.00    1.20
  -1   5   8   15.20    1.50
   0  -5  -8   54.29    2.80
   0  -5  -8   57.19    2.40
   0  -5  -8   57.99    2.20
   0  -5  -8   60.29    4.10
   0  -5  -8   58.49    2.40
   0  -5  -8   55.99    2.20
   0  -5  -8   55.59    2.20
   0   5   8   59.19    2.70
  -1  -5  -8   16.30    1.40
  -1  -5  -8   18.80    1.50
  -1  -5  -8   18.40    1.30
  -1  -5  -8   18.10    1.30
  -1  -5  -8   18.60    1.30
  -1  -5  -8   19.30    1.80
  -1  -5  -8   19.90    1.40
   1   5   8   19.10    1.80
  -2  -5  -8    6.80    1.20
  -2  -5  -8    6.80    0.90
  -2  -5  -8    6.80    1.00
  -2  -5  -8    7.90    1.00
  -2  -5  -8    9.00    1.00
   2   5   8    4.00    2.00
  -3  -5  -8   78.49    2.60
  -3  -5  -8   81.39    2.40
  -3  -5  -8   76.99    2.50
   3   5   8   78.09    2.90
   3   5   8   82.39    3.80
  -4  -5  -8   23.40    1.40
  -4  -5  -8   24.80    1.20
   4   5   8   23.60    1.40
   4   5   8   26.60    1.90
   4   5   8   24.50    1.30
   5  -6  -8    1.00    0.60
   5  -6  -8   -0.30    0.50
   5  -6  -8    0.80    0.40
   5  -6  -8    1.10    0.50
   5  -6  -8    0.10    0.40
  -5   6   8   -0.40    0.70
   4  -6  -8    5.00    0.70
   4  -6  -8    5.50    0.70
   4  -6  -8    6.40    0.80
   4  -6  -8    3.90    0.70
   4  -6  -8    3.80    0.90
  -4   6   8    4.90    0.90
   3  -6  -8   16.30    1.10
   3  -6  -8   16.30    1.20
   3  -6  -8   18.60    1.40
   3  -6  -8   14.40    1.40
   3  -6  -8   18.50    1.30
  -3   6   8   18.10    1.40
   2  -6  -8  138.69    3.50
   2  -6  -8  133.99    4.20
   2  -6  -8  130.79    3.80
   2  -6  -8  133.79    3.70
   2  -6  -8  135.79    3.60
  -2   6   8  131.19    4.10
   1  -6  -8   44.30    2.10
   1  -6  -8   44.30    1.90
   1  -6  -8   45.30    1.90
   1  -6  -8   44.60    2.40
   1  -6  -8   48.00    1.90
   1  -6  -8   44.70    1.90
  -1   6   8   39.50    2.10
   0  -6  -8    0.10    0.60
   0  -6  -8    0.60    0.60
   0  -6  -8    0.80    0.60
   0  -6  -8    1.10    0.70
   0  -6  -8    0.20    0.60
   0  -6  -8    0.90    1.00
   0   6   8    0.80    0.70
  -1  -6  -8  210.98    5.50
  -1  -6  -8  208.28    5.00
  -1  -6  -8  209.68    4.80
  -1  -6  -8  198.58    5.00
  -1  -6  -8  211.78    4.80
  -1  -6  -8  208.38    4.80
  -2  -6  -8   61.29    1.90
  -2  -6  -8   61.39    2.00
  -2  -6  -8   59.39    2.00
  -2  -6  -8   56.69    2.00
  -2  -6  -8   60.49    2.20
  -2  -6  -8   57.59    1.90
   2   6   8   52.29    2.60
   2   6   8   56.89    3.60
  -3  -6  -8    1.80    0.60
  -3  -6  -8    2.90    0.60
  -3  -6  -8    2.90    0.70
   3   6   8    1.50    0.70
   3   6   8    3.10    1.10
   4  -7  -8    1.00    0.60
   3  -7  -8    1.50    0.60
   3  -7  -8    0.50    0.60
   3  -7  -8    0.70    0.60
   3  -7  -8    1.90    0.50
   3  -7  -8    1.70    0.80
   2  -7  -8    5.30    0.80
   2  -7  -8    5.90    0.70
   2  -7  -8    6.50    0.80
   2  -7  -8    6.80    1.10
   2  -7  -8    6.80    0.90
   1  -7  -8    0.70    0.60
   1  -7  -8    0.20    0.50
   1  -7  -8    0.40    0.50
   1  -7  -8    0.60    0.50
   1  -7  -8    0.00    0.80
   1  -7  -8    0.50    0.60
   0  -7  -8   32.80    1.50
   0  -7  -8   30.30    1.40
   0  -7  -8   32.90    1.40
   0  -7  -8   32.60    1.90
   0  -7  -8   34.70    1.50
   0  -7  -8   32.00    1.60
  -1  -7  -8    0.60    0.60
  -1  -7  -8    1.40    0.60
  -1  -7  -8    0.60    0.50
  -1  -7  -8    0.50    0.70
  -1  -7  -8    1.00    0.60
  -1  -7  -8    0.60    0.50
   1   7   8    0.20    1.50
  -2  -7  -8    5.40    0.60
  -2  -7  -8    5.30    0.70
  -2  -7  -8    5.50    0.80
   2   7   8    4.40    0.90
   2   7   8    5.10    1.30
   3   6  -9   13.80    1.30
  -3  -6   9   15.10    1.00
  -3  -6   9   15.30    1.00
  -3  -6   9   16.30    1.00
   2   6  -9   79.19    2.80
  -2  -6   9   82.09    2.30
  -2  -6   9   80.19    2.30
  -2  -6   9   77.89    2.40
  -2  -6   9   80.49    2.60
  -2  -6   9   83.89    2.30
  -1  -6   9   44.50    1.60
  -1  -6   9   48.80    1.80
  -1  -6   9   47.90    1.70
  -1  -6   9   44.40    1.90
  -1  -6   9   45.30    1.60
   0  -6   9   87.99    2.50
   0  -6   9   91.39    2.60
   0  -6   9   91.99    2.50
   0  -6   9   94.09    2.60
   0  -6   9   89.09    2.40
   0  -6   9   92.39    2.80
  -1   6  -9   31.40    1.50
   1  -6   9   32.10    1.40
   1  -6   9   29.80    1.40
   1  -6   9   29.70    1.50
   1  -6   9   29.10    1.20
   1  -6   9   29.90    1.40
  -2   6  -9   45.40    1.50
   2  -6   9   44.00    1.40
   2  -6   9   44.10    1.50
   2  -6   9   44.70    1.60
   2  -6   9   44.20    1.70
   5   5  -9    0.70    0.80
  -5  -5   9    0.10    0.40
  -5  -5   9    0.50    0.50
   4   5  -9   -0.10    0.80
  -4  -5   9    0.40    0.50
  -4  -5   9    0.00    0.40
  -4  -5   9   -0.10    0.40
  -4  -5   9   -0.30    0.50
   3   5  -9    9.40    1.30
  -3  -5   9   11.00    0.90
  -3  -5   9   12.80    1.10
  -3  -5   9   12.00    1.00
  -3  -5   9   11.70    1.20
   2   5  -9   20.60    1.70
  -2  -5   9   24.50    1.30
  -2  -5   9   24.00    1.60
  -2  -5   9   19.90    1.20
  -2  -5   9   21.90    1.30
  -2  -5   9   19.80    1.40
   1   5  -9   28.60    1.90
  -1  -5   9   30.20    1.40
  -1  -5   9   29.10    1.50
  -1  -5   9   29.00    1.80
  -1  -5   9   28.10    1.40
  -1  -5   9   29.90    1.60
  -1  -5   9   30.10    1.60
   0   5  -9    0.60    0.90
   0  -5   9    1.30    0.70
   0  -5   9   -0.20    0.50
   0  -5   9   -0.10    0.60
   0  -5   9    0.20    0.50
   0  -5   9    0.90    0.60
   0  -5   9   -0.20    0.50
  -1   5  -9   45.10    2.00
   1  -5   9   42.80    1.80
   1  -5   9   42.60    1.90
   1  -5   9   42.90    1.80
   1  -5   9   42.50    1.90
   1  -5   9   41.80    1.60
  -2   5  -9    4.60    0.80
   2  -5   9    3.80    0.70
   2  -5   9    4.40    0.60
   2  -5   9    4.20    0.80
   2  -5   9    3.20    0.70
   2  -5   9    4.20    0.70
  -3   5  -9   35.40    1.70
   3  -5   9   31.60    1.20
   3  -5   9   32.10    1.40
   3  -5   9   34.50    1.60
   5   4  -9    4.80    0.80
   5   4  -9    6.50    1.10
  -5  -4   9    5.10    0.70
  -5  -4   9    5.40    0.70
  -5  -4   9    4.00    0.70
   4   4  -9    1.60    0.90
  -4  -4   9    2.40    0.60
  -4  -4   9    2.60    0.70
  -4  -4   9    1.50    0.70
   3   4  -9   19.50    1.70
  -3  -4   9   21.10    1.50
  -3  -4   9   20.60    1.30
  -3  -4   9   23.00    1.60
  -3  -4   9   25.40    1.40
   2   4  -9   20.10    1.90
  -2  -4   9   24.60    1.70
  -2  -4   9   20.50    1.30
  -2  -4   9   21.10    1.60
  -2  -4   9   23.40    1.40
  -2  -4   9   20.30    1.50
   1   4  -9   38.00    2.20
  -1  -4   9   37.90    2.00
  -1  -4   9   39.70    2.10
  -1  -4   9   36.00    1.70
  -1  -4   9   34.20    1.60
  -1  -4   9   38.20    1.80
  -1  -4   9   37.70    1.70
   0   4  -9  232.58    5.70
   0  -4   9  232.38    5.50
   0  -4   9  221.98    5.90
   0  -4   9  226.98    5.20
   0  -4   9  225.48    5.30
   0  -4   9  231.58    5.40
   0  -4   9  237.98    5.90
  -1   4  -9  104.99    3.40
   1  -4   9  105.49    3.40
   1  -4   9  102.99    3.00
   1  -4   9  106.79    3.50
   1  -4   9  108.09    3.10
  -2   4  -9    1.20    0.70
   2  -4   9    2.00    0.70
   2  -4   9    1.70    0.60
   2  -4   9    0.90    0.50
   2  -4   9    1.30    0.80
  -3   4  -9    8.70    0.90
  -3   4  -9    9.40    1.10
   3  -4   9    9.80    1.00
   3  -4   9    9.10    0.90
  -4   4  -9   47.70    2.00
   4  -4   9   49.20    1.70
   6   3  -9   34.10    2.00
   6   3  -9   33.60    1.60
  -6  -3   9   32.00    1.50
  -6  -3   9   34.90    1.30
   5   3  -9    1.30    0.80
   5   3  -9    1.50    0.70
  -5  -3   9    0.50    0.60
  -5  -3   9    0.20    0.50
  -5  -3   9    0.00    0.60
   4   3  -9   21.10    1.50
   4   3  -9   21.30    1.90
  -4  -3   9   22.40    1.30
  -4  -3   9   18.20    1.60
  -4  -3   9   20.50    1.50
   3   3  -9   19.00    1.90
  -3  -3   9   21.50    1.30
  -3  -3   9   17.50    1.20
  -3  -3   9   17.00    1.40
  -3  -3   9   17.30    1.60
   2   3  -9    5.90    1.30
   2   3  -9    6.10    1.60
  -2  -3   9    6.30    1.20
  -2  -3   9    7.00    0.90
  -2  -3   9    7.80    1.00
  -2  -3   9    7.60    1.10
   1   3  -9    8.40    1.70
   1   3  -9    6.00    1.30
  -1  -3   9    6.10    1.10
  -1  -3   9    7.00    1.20
  -1  -3   9    6.20    0.90
  -1  -3   9    5.00    0.90
   0   3  -9   86.69    3.80
   0   3  -9   84.99    3.10
   0   3  -9   82.39    3.00
   0  -3   9   80.39    2.70
   0  -3   9   83.69    3.00
   0  -3   9   81.89    3.30
   0  -3   9   83.89    2.70
   0  -3   9   83.19    2.80
  -1   3  -9  151.78    4.30
  -1   3  -9  141.49    4.70
   1  -3   9  143.49    4.40
   1  -3   9  146.99    3.90
   1  -3   9  149.69    4.20
   1  -3   9  143.39    3.90
  -2   3  -9   10.30    1.20
   2  -3   9    9.70    1.10
   2  -3   9    9.50    1.20
   2  -3   9    9.20    1.00
  -3   3  -9    2.20    0.80
  -3   3  -9    1.10    0.60
   3  -3   9    1.80    0.70
   3  -3   9    1.30    0.70
  -4   3  -9    0.50    0.50
  -4   3  -9    1.80    0.80
   4  -3   9    1.00    0.60
  -5   3  -9    9.00    0.90
   6   2  -9   30.50    1.70
  -6  -2   9   27.20    1.60
  -6  -2   9   26.40    1.20
  -6  -2   9   27.00    1.50
   5   2  -9   26.10    1.70
   5   2  -9   26.90    1.90
  -5  -2   9   26.20    1.60
  -5  -2   9   28.00    1.80
  -5  -2   9   26.10    1.30
   4   2  -9   50.19    2.20
   4   2  -9   49.99    2.50
  -4  -2   9   48.40    2.30
  -4  -2   9   48.60    2.10
   3   2  -9   62.89    2.90
   3   2  -9   63.09    3.30
  -3  -2   9   64.09    2.40
  -3  -2   9   65.79    2.90
  -3  -2   9   59.29    2.60
   2   2  -9   -0.90    0.80
   2   2  -9   -0.60    1.00
  -2  -2   9    0.80    0.60
  -2  -2   9   -0.60    0.80
  -2  -2   9    1.30    0.80
  -2  -2   9    0.30    0.70
   1   2  -9  213.68    6.60
   1   2  -9  207.18    5.80
   1   2  -9  211.48    5.50
  -1  -2   9  214.38    6.00
  -1  -2   9  214.48    5.10
  -1  -2   9  210.38    5.60
  -1  -2   9  211.68    5.20
   0   2  -9  671.53   14.10
   0   2  -9  677.13   14.10
   0   2  -9  683.03   15.10
   0  -2   9  677.83   13.70
   0  -2   9  677.13   14.60
   0  -2   9  674.23   13.70
   0  -2   9  699.93   14.10
  -1   2  -9   12.10    1.60
  -1   2  -9   14.40    1.50
   1  -2   9   10.50    1.40
   1  -2   9   15.70    1.30
  -2   2  -9   10.90    1.30
  -2   2  -9   11.10    1.80
   2  -2   9   11.60    1.10
   2  -2   9   11.70    1.40
  -3   2  -9    1.70    0.70
  -3   2  -9    1.70    0.80
   3  -2   9    0.60    0.70
  -4   2  -9    4.30    0.90
  -4   2  -9    2.60    0.60
   4  -2   9    2.20    0.60
  -5   2  -9   40.60    1.80
   7   1  -9    3.60    0.80
  -7  -1   9    2.70    0.70
   6   1  -9   44.50    2.00
  -6  -1   9   42.10    1.80
  -6  -1   9   40.60    2.00
   5   1  -9   62.29    2.50
   5   1  -9   68.19    2.50
  -5  -1   9   62.59    2.60
  -5  -1   9   66.59    2.40
   4   1  -9    4.20    1.00
   4   1  -9    3.90    1.00
  -4  -1   9    4.00    0.90
  -4  -1   9    5.20    1.10
  -4  -1   9    4.60    1.00
   3   1  -9  184.48    5.70
   3   1  -9  187.08    5.00
   3   1  -9  190.18    5.40
  -3  -1   9  196.58    5.20
  -3  -1   9  191.98    4.80
  -3  -1   9  190.58    5.40
   2   1  -9   -0.40    0.80
   2   1  -9   -0.40    0.90
   2   1  -9    0.90    0.90
  -2  -1   9   -0.30    0.90
  -2  -1   9    0.20    0.60
  -2  -1   9    0.30    0.70
   1   1  -9   94.69    4.00
   1   1  -9   96.49    3.40
   1   1  -9   95.99    3.20
  -1  -1   9   98.59    3.30
  -1  -1   9   94.99    3.00
  -1  -1   9   90.69    3.60
   0   1  -9   19.30    2.00
   0   1  -9   16.80    1.60
   0   1  -9   14.80    1.50
   0  -1   9   16.50    1.80
  -1   1  -9    0.70    0.90
  -1   1  -9    0.80    0.70
  -1   1  -9    0.70    0.80
   1  -1   9    2.00    1.00
  -2   1  -9  105.79    3.90
  -2   1  -9  110.59    3.50
  -2   1  -9  106.19    3.40
   2  -1   9  112.79    3.70
  -3   1  -9   82.69    2.80
  -3   1  -9   77.89    2.90
   3  -1   9   84.89    2.80
  -4   1  -9   26.50    1.50
  -4   1  -9   29.60    1.80
  -5   1  -9    3.10    0.80
   5  -1   9    1.60    0.60
   7   0  -9   11.30    1.00
   7   0  -9   12.10    1.10
  -7   0   9    9.90    1.00
   6   0  -9   10.90    1.20
  -6   0   9   11.10    1.20
  -6   0   9   10.60    1.10
   5   0  -9   90.69    3.10
  -5   0   9   86.69    2.80
  -5   0   9   82.39    3.10
  -5   0   9   90.19    3.10
   4   0  -9   37.50    2.10
   4   0  -9   37.90    2.00
  -4   0   9   35.50    1.80
  -4   0   9   36.10    2.00
  -4   0   9   37.70    2.10
   3   0  -9   10.20    1.40
   3   0  -9   10.00    1.30
   3   0  -9    7.60    1.20
  -3   0   9    8.60    1.30
  -3   0   9   10.90    1.30
  -3   0   9   10.50    1.10
   2   0  -9   25.00    2.00
   2   0  -9   25.60    2.00
  -2   0   9   24.10    1.50
  -2   0   9   26.20    1.70
  -2   0   9   27.90    2.10
   1   0  -9  163.68    4.50
   1   0  -9  168.28    4.80
   1   0  -9  167.48    5.30
  -1   0   9  169.38    5.00
   0   0  -9   28.50    2.20
   0   0  -9   23.20    1.70
   0   0  -9   27.90    1.80
   0   0   9   30.20    2.10
  -1   0  -9  535.85   11.50
  -1   0  -9  551.64   11.70
  -1   0  -9  549.05   12.50
   1   0   9  559.44   12.20
  -2   0  -9  157.88    5.10
  -2   0  -9  164.68    4.50
   2   0   9  172.68    4.80
  -3   0  -9   32.70    1.80
  -3   0  -9   31.30    1.80
   3   0   9   32.30    2.10
  -4   0  -9   38.80    1.80
  -4   0  -9   40.20    2.00
   4   0   9   41.50    1.60
   4   0   9   43.10    2.20
  -5   0  -9    7.70    0.90
  -5   0  -9    7.10    0.80
   5   0   9    6.70    0.90
   5   0   9    7.00    0.70
   7  -1  -9   37.80    1.70
   7  -1  -9   37.70    1.30
  -7   1   9   37.30    1.70
   6  -1  -9   46.30    1.70
   6  -1  -9   47.80    2.10
  -6   1   9   42.90    2.00
  -6   1   9   45.30    2.00
  -6   1   9   45.80    1.90
   5  -1  -9   95.59    3.20
   5  -1  -9   90.19    2.80
  -5   1   9   91.79    3.20
  -5   1   9   92.89    3.10
  -5   1   9   94.99    2.90
   4  -1  -9  138.69    4.20
   4  -1  -9  137.09    4.00
  -4   1   9  140.49    3.80
  -4   1   9  146.79    4.30
  -4   1   9  136.69    4.10
   3  -1  -9    1.20    0.80
   3  -1  -9    1.30    0.90
  -3   1   9    0.80    0.70
  -3   1   9    2.20    1.00
  -3   1   9    1.60    0.80
   2  -1  -9  128.69    3.90
   2  -1  -9  126.49    4.30
   2  -1  -9  132.49    4.00
  -2   1   9  133.59    4.20
   1  -1  -9    0.10    0.80
   1  -1  -9    1.20    0.80
  -1   1   9   -0.20    0.80
   0  -1  -9  278.27    7.30
   0  -1  -9  259.67    6.40
   0  -1  -9  272.47    6.60
   0   1   9  265.77    6.80
  -1  -1  -9   50.89    2.30
  -1  -1  -9   51.99    2.30
  -1  -1  -9   49.20    2.80
   1   1   9   51.09    2.50
  -2  -1  -9   71.49    3.20
  -2  -1  -9   73.59    2.80
  -2  -1  -9   70.89    2.60
   2   1   9   69.89    2.70
   2   1   9   73.49    3.40
  -3  -1  -9   21.20    1.60
  -3  -1  -9   17.90    1.50
   3   1   9   21.30    1.40
   3   1   9   20.30    1.90
  -4  -1  -9    3.30    0.80
  -4  -1  -9    3.00    0.70
   4   1   9    4.10    0.70
   4   1   9    4.80    1.10
  -5  -1  -9   21.50    1.40
  -5  -1  -9   24.20    1.20
   5   1   9   23.10    1.10
   5   1   9   22.80    1.60
   6  -2  -9   -0.30    0.40
   6  -2  -9   -0.90    0.60
  -6   2   9    0.30    0.60
  -6   2   9    1.00    0.60
  -6   2   9    1.40    0.70
   5  -2  -9   12.10    1.30
   5  -2  -9   16.90    1.20
  -5   2   9   16.30    1.40
  -5   2   9   14.10    1.50
  -5   2   9   15.40    1.20
   4  -2  -9    3.90    1.00
   4  -2  -9    3.20    0.70
  -4   2   9    2.90    0.70
  -4   2   9    3.40    1.10
  -4   2   9    2.30    0.80
   3  -2  -9  132.69    3.80
   3  -2  -9  132.69    4.00
  -3   2   9  129.59    4.20
   2  -2  -9  156.18    4.40
   2  -2  -9  157.18    4.50
   2  -2  -9  153.18    4.80
  -2   2   9  148.89    4.50
   1  -2  -9   45.10    2.10
   1  -2  -9   42.10    2.20
   1  -2  -9   40.40    2.50
  -1   2   9   47.90    2.40
   0  -2  -9   14.40    1.50
   0  -2  -9   15.50    1.40
   0  -2  -9   12.80    1.60
   0  -2  -9   13.50    1.50
   0   2   9   14.90    1.60
   0   2   9    8.10    2.40
  -1  -2  -9    0.40    0.70
  -1  -2  -9    1.50    0.60
  -1  -2  -9    1.60    0.70
  -1  -2  -9    1.50    0.90
   1   2   9    0.20    1.10
   1   2   9    1.30    1.60
  -2  -2  -9   43.90    2.00
  -2  -2  -9   46.20    2.10
  -2  -2  -9   42.40    2.50
   2   2   9   45.40    3.10
   2   2   9   41.60    2.20
  -3  -2  -9   42.40    2.00
   3   2   9   44.30    2.60
   3   2   9   43.70    2.00
  -4  -2  -9    1.20    0.60
  -4  -2  -9    1.70    0.70
   4   2   9    1.40    0.60
   4   2   9    0.50    0.80
  -5  -2  -9    1.60    0.60
  -5  -2  -9    2.10    0.60
   5   2   9    1.90    0.50
   5   2   9    1.60    0.80
   6  -3  -9   54.19    1.80
   6  -3  -9   59.19    2.10
  -6   3   9   55.79    1.90
  -6   3   9   56.29    2.30
   5  -3  -9   -0.30    0.60
   5  -3  -9    0.20    0.50
  -5   3   9    0.50    0.60
  -5   3   9   -1.10    0.50
  -5   3   9   -0.90    0.70
   4  -3  -9  107.59    3.50
   4  -3  -9  109.69    3.20
  -4   3   9  110.89    3.60
   3  -3  -9   27.90    1.60
   3  -3  -9   28.60    1.90
   3  -3  -9   29.50    1.60
  -3   3   9   28.80    2.00
   2  -3  -9   69.49    2.70
  -2   3   9   68.29    2.80
   1  -3  -9   89.19    3.00
   1  -3  -9   81.29    3.30
   1  -3  -9   84.99    3.20
   1  -3  -9   85.29    3.00
  -1   3   9   80.29    3.10
   0  -3  -9  197.98    4.80
   0  -3  -9  203.98    5.50
   0  -3  -9  209.68    5.20
   0  -3  -9  198.38    5.90
   0  -3  -9  205.28    5.30
  -1  -3  -9   60.09    2.20
  -1  -3  -9   65.09    2.50
  -1  -3  -9   62.69    3.00
  -1  -3  -9   60.49    2.40
  -1  -3  -9   63.39    2.70
  -2  -3  -9   60.29    2.30
  -2  -3  -9   58.19    2.30
   2   3   9   54.99    3.60
   2   3   9   55.49    2.70
  -3  -3  -9    0.00    0.50
  -3  -3  -9    0.60    0.60
   3   3   9    0.20    0.70
   3   3   9    0.80    1.00
  -4  -3  -9    1.10    0.60
   4   3   9    0.80    0.80
   4   3   9    1.60    0.60
   6  -4  -9    7.20    0.80
   6  -4  -9    5.00    0.70
  -6   4   9    6.50    1.10
   5  -4  -9  115.69    3.30
   5  -4  -9  111.89    3.00
  -5   4   9  110.99    3.40
   4  -4  -9  100.69    3.30
   4  -4  -9  104.49    3.00
  -4   4   9  106.59    3.40
   3  -4  -9   -0.40    0.50
   3  -4  -9    0.10    0.70
   3  -4  -9   -0.90    0.90
  -3   4   9   -1.10    0.70
   2  -4  -9    1.30    0.60
   2  -4  -9    2.80    0.70
   2  -4  -9    4.60    0.90
   2  -4  -9    2.70    0.80
   2  -4  -9    2.80    0.90
  -2   4   9    3.20    0.90
   1  -4  -9   13.10    1.10
   1  -4  -9   13.50    1.50
   1  -4  -9   15.10    1.40
   1  -4  -9   15.20    1.40
  -1   4   9   14.30    1.40
   0  -4  -9   80.89    2.50
   0  -4  -9   81.19    3.10
   0  -4  -9   78.89    2.80
   0  -4  -9   76.69    2.70
  -1  -4  -9  141.29    4.00
  -1  -4  -9  142.29    3.80
  -1  -4  -9  140.69    3.70
  -1  -4  -9  140.79    4.30
  -2  -4  -9  122.89    3.50
  -2  -4  -9  124.89    3.50
   2   4   9  121.49    5.00
   2   4   9  122.09    4.00
  -3  -4  -9   20.80    1.30
  -3  -4  -9   21.80    1.40
   3   4   9   22.20    1.50
   3   4   9   21.90    2.00
  -4  -4  -9  124.39    3.10
   4   4   9  116.79    3.00
   4   4   9  116.19    3.50
   5  -5  -9    9.00    0.90
   5  -5  -9    9.20    0.80
  -5   5   9    8.80    1.10
   4  -5  -9    7.80    1.00
   4  -5  -9    5.30    0.80
  -4   5   9    6.60    1.00
   3  -5  -9   80.99    2.70
   3  -5  -9   80.89    2.30
   3  -5  -9   85.49    2.60
   3  -5  -9   82.29    2.90
  -3   5   9   79.79    2.80
   2  -5  -9   13.60    1.20
   2  -5  -9   15.20    1.20
   2  -5  -9   17.10    1.40
   2  -5  -9   16.00    1.50
   2  -5  -9   16.10    1.10
  -2   5   9   16.60    1.40
   1  -5  -9    2.30    0.90
   1  -5  -9    3.20    0.70
   1  -5  -9    2.80    0.80
   1  -5  -9    4.20    0.80
   1  -5  -9    3.70    0.90
   0  -5  -9   56.99    2.60
   0  -5  -9   56.19    2.30
   0  -5  -9   58.49    2.20
   0  -5  -9   58.79    2.00
  -1  -5  -9    0.80    0.50
  -1  -5  -9    1.60    0.70
  -1  -5  -9    2.00    0.90
  -1  -5  -9    1.10    0.60
   1   5   9    1.30    1.60
  -2  -5  -9   89.69    2.60
  -2  -5  -9   97.29    2.80
   2   5   9   91.49    3.10
   2   5   9   89.89    3.90
  -3  -5  -9    3.60    0.70
  -3  -5  -9    2.70    0.60
   3   5   9    3.30    1.00
   3   5   9    2.70    0.70
   4  -6  -9    9.20    0.90
   4  -6  -9    8.50    0.70
   4  -6  -9   10.00    0.90
  -4   6   9   10.00    1.00
   3  -6  -9   57.59    1.80
   3  -6  -9   58.89    2.20
   3  -6  -9   60.09    2.10
   3  -6  -9   58.69    1.80
   3  -6  -9   59.09    2.00
  -3   6   9   60.89    2.10
   2  -6  -9   39.40    1.50
   2  -6  -9   40.40    1.50
   2  -6  -9   40.40    2.00
   2  -6  -9   41.50    1.80
   2  -6  -9   40.70    1.60
   1  -6  -9    0.90    0.60
   1  -6  -9    1.40    0.80
   1  -6  -9    1.10    0.50
   1  -6  -9    2.10    0.60
   1  -6  -9    1.90    0.60
   1  -6  -9    2.10    0.60
   0  -6  -9   -0.10    0.40
   0  -6  -9    0.30    0.60
   0  -6  -9    0.30    0.50
   0  -6  -9    0.10    0.50
   0  -6  -9    0.80    0.50
   0  -6  -9    0.00    0.70
  -1  -6  -9    0.40    0.50
  -1  -6  -9    1.50    0.50
  -1  -6  -9    1.90    0.70
  -1  -6  -9    2.60    0.60
   1   6   9    1.00    1.40
  -2  -6  -9   21.50    1.30
  -2  -6  -9   18.20    1.20
  -2  -6  -9   21.30    1.00
   2   6   9   21.60    1.50
   2   6   9   20.90    1.80
   3   5 -10    7.90    0.80
   3   5 -10    7.10    1.00
  -3  -5  10    7.20    0.80
  -3  -5  10    7.40    0.70
  -3  -5  10    6.60    0.60
   2   5 -10    3.10    0.80
   2   5 -10    2.00    0.70
  -2  -5  10    2.90    0.50
  -2  -5  10    2.20    0.70
  -2  -5  10    3.50    0.60
  -2  -5  10    2.50    0.70
   1   5 -10    1.00    0.70
   1   5 -10    1.90    0.70
  -1  -5  10    1.50    0.60
  -1  -5  10    1.10    0.50
  -1  -5  10    1.50    0.60
  -1  -5  10    1.00    0.60
  -1  -5  10    1.70    0.50
  -1  -5  10    1.50    0.50
   0   5 -10    2.50    0.70
   0  -5  10    2.40    0.50
   0  -5  10    1.50    0.60
   0  -5  10    1.40    0.60
   0  -5  10    1.50    0.60
  -1   5 -10   39.50    1.70
   1  -5  10   39.20    1.50
   1  -5  10   40.00    1.60
   1  -5  10   38.90    1.40
  -2   5 -10    0.40    0.60
  -2   5 -10    0.90    0.50
   2  -5  10    0.10    0.60
   2  -5  10    1.00    0.40
   2  -5  10    0.20    0.50
   4   4 -10   13.50    1.30
  -4  -4  10   12.90    0.80
  -4  -4  10   10.30    1.00
  -4  -4  10   13.90    1.10
   3   4 -10    7.90    0.90
   3   4 -10    6.60    1.00
  -3  -4  10    5.60    0.90
  -3  -4  10    8.30    0.80
  -3  -4  10    6.20    0.70
  -3  -4  10    6.60    0.80
   2   4 -10  234.18    5.70
   2   4 -10  225.48    5.40
  -2  -4  10  223.88    5.30
  -2  -4  10  228.98    5.30
  -2  -4  10  225.48    5.60
  -2  -4  10  236.88    5.10
   1   4 -10  149.99    4.00
   1   4 -10  143.89    4.00
  -1  -4  10  147.29    4.00
  -1  -4  10  148.29    3.80
  -1  -4  10  151.28    4.10
  -1  -4  10  150.98    3.70
   0   4 -10    1.20    0.70
   0  -4  10    2.10    0.70
   0  -4  10    0.90    0.50
   0  -4  10    0.60    0.60
   0  -4  10    0.40    0.60
  -1   4 -10    9.20    1.00
   1  -4  10    9.10    0.90
   1  -4  10    9.00    0.80
   1  -4  10   10.40    1.10
   1  -4  10    9.80    1.00
  -2   4 -10   17.00    1.30
  -2   4 -10   16.30    1.20
   2  -4  10   13.90    1.10
   2  -4  10   15.60    0.90
   2  -4  10   15.50    1.10
  -3   4 -10   39.40    1.40
  -3   4 -10   40.70    1.70
   3  -4  10   39.20    1.60
   5   3 -10    1.40    0.70
  -5  -3  10    1.20    0.60
   4   3 -10   41.80    2.00
  -4  -3  10   43.10    1.90
  -4  -3  10   41.70    1.80
   3   3 -10    3.50    1.00
   3   3 -10    5.00    1.10
  -3  -3  10    6.90    1.00
  -3  -3  10    8.30    1.10
  -3  -3  10    6.40    0.90
   2   3 -10    3.70    0.90
   2   3 -10    2.80    0.90
  -2  -3  10    2.40    0.70
  -2  -3  10    4.70    0.80
  -2  -3  10    1.60    0.70
  -2  -3  10    2.10    0.90
   1   3 -10   60.89    2.50
   1   3 -10   58.29    2.40
  -1  -3  10   56.79    2.10
  -1  -3  10   54.09    2.50
  -1  -3  10   60.89    2.40
   0   3 -10    2.60    0.80
   0   3 -10    2.20    0.80
   0  -3  10    1.20    0.70
   0  -3  10    2.30    0.70
   0  -3  10    2.40    0.90
  -1   3 -10   73.49    2.60
   1  -3  10   79.19    2.30
   1  -3  10   78.89    2.40
   1  -3  10   78.39    2.60
   1  -3  10   75.09    2.80
  -2   3 -10   31.70    1.60
  -2   3 -10   32.70    1.70
   2  -3  10   30.80    1.70
  -3   3 -10    5.70    0.70
  -3   3 -10    5.10    0.90
   3  -3  10    5.70    0.80
   5   2 -10   14.30    1.20
   5   2 -10   14.90    1.20
  -5  -2  10   18.30    1.20
  -5  -2  10   15.40    1.30
   4   2 -10    3.20    0.90
  -4  -2  10    3.10    0.80
  -4  -2  10    3.80    0.80
   3   2 -10    4.80    1.00
  -3  -2  10    5.30    1.00
  -3  -2  10    6.30    0.90
  -3  -2  10    4.70    1.10
   2   2 -10    0.50    0.80
   2   2 -10    0.40    0.70
  -2  -2  10   -0.80    0.80
  -2  -2  10    0.10    0.60
  -2  -2  10    0.10    0.60
   1   2 -10    0.60    0.80
   1   2 -10    1.20    0.80
  -1  -2  10    1.50    0.60
  -1  -2  10    0.50    0.60
  -1  -2  10   -0.40    0.90
   0   2 -10  120.59    3.60
   0   2 -10  115.79    3.50
   0  -2  10  116.49    3.50
   0  -2  10  119.39    3.30
   0  -2  10  113.19    3.80
  -1   2 -10  125.59    3.70
   1  -2  10  119.79    3.80
  -2   2 -10    6.00    0.90
  -2   2 -10    4.80    0.90
   2  -2  10    4.40    0.90
  -3   2 -10   37.10    1.70
  -3   2 -10   36.10    1.80
   3  -2  10   38.90    1.70
  -4   2 -10    0.80    0.50
  -4   2 -10    1.40    0.70
   6   1 -10    0.90    0.70
  -6  -1  10    0.20    0.60
   5   1 -10    7.90    0.90
   5   1 -10    6.90    0.90
  -5  -1  10    6.50    0.90
  -5  -1  10    6.50    0.90
   4   1 -10   13.70    1.40
   4   1 -10   14.00    1.20
  -4  -1  10   14.00    1.30
  -4  -1  10   13.40    1.40
  -4  -1  10   12.70    1.20
   3   1 -10    5.40    1.10
  -3  -1  10    7.20    1.00
  -3  -1  10    6.40    1.20
  -3  -1  10    8.60    1.10
   2   1 -10    1.70    0.80
  -2  -1  10    1.40    0.70
  -2  -1  10    1.60    0.70
  -2  -1  10   -0.10    0.90
   1   1 -10  113.19    3.40
   1   1 -10   99.69    4.00
   1   1 -10  107.89    3.50
  -1  -1  10  107.59    3.10
  -1  -1  10  105.09    3.30
  -1  -1  10  110.19    3.90
   0   1 -10   86.39    3.00
   0   1 -10   87.49    3.00
   0  -1  10   89.79    3.40
  -1   1 -10   68.79    2.60
  -1   1 -10   66.49    2.50
   1  -1  10   71.69    2.90
  -2   1 -10   19.50    1.50
   2  -1  10   18.20    1.50
  -3   1 -10    3.80    0.80
  -3   1 -10    4.10    0.80
   3  -1  10    2.80    0.70
  -4   1 -10    1.30    0.60
  -4   1 -10    0.00    0.50
   6   0 -10   10.40    1.00
  -6   0  10    9.80    1.00
   5   0 -10   19.60    1.40
  -5   0  10   20.70    1.40
  -5   0  10   22.30    1.30
  -5   0  10   20.30    1.60
   4   0 -10    1.40    0.70
   4   0 -10    1.40    0.80
  -4   0  10    0.50    0.60
  -4   0  10    1.30    0.70
  -4   0  10   -0.10    0.80
   3   0 -10   78.99    2.90
   3   0 -10   81.59    2.80
  -3   0  10   75.29    3.10
  -3   0  10   79.49    2.60
  -3   0  10   79.09    2.80
   2   0 -10  168.78    4.70
  -2   0  10  170.08    5.00
  -2   0  10  165.78    4.50
  -2   0  10  169.68    4.30
   1   0 -10    7.10    1.20
   1   0 -10    7.10    1.30
   1   0 -10    8.60    1.10
  -1   0  10    8.10    1.40
   0   0 -10   30.60    1.80
   0   0 -10   32.30    1.90
   0   0 -10   28.50    2.20
   0   0  10   30.00    2.20
  -1   0 -10   50.99    2.10
  -1   0 -10   48.80    2.20
   1   0  10   48.80    2.40
  -2   0 -10    0.30    0.70
   2   0  10    0.30    0.70
  -3   0 -10    1.50    0.90
  -3   0 -10    0.80    0.60
  -4   0 -10    0.50    0.60
  -4   0 -10    0.50    0.60
   6  -1 -10   14.20    1.20
  -6   1  10   12.20    1.00
  -6   1  10   13.80    1.10
   5  -1 -10   29.90    1.60
  -5   1  10   26.60    1.40
  -5   1  10   29.70    1.80
  -5   1  10   28.20    1.60
   4  -1 -10    0.00    0.60
   4  -1 -10    0.60    0.60
  -4   1  10    0.30    0.80
  -4   1  10    1.60    0.70
  -4   1  10    1.10    0.60
   3  -1 -10   29.20    1.80
   3  -1 -10   29.20    1.80
  -3   1  10   27.00    2.30
  -3   1  10   28.70    1.50
  -3   1  10   27.90    2.00
   2  -1 -10    2.40    0.90
  -2   1  10    4.60    1.10
   1  -1 -10   38.60    2.80
  -1   1  10   37.80    2.30
   0  -1 -10   11.00    1.30
   0  -1 -10   12.20    1.20
   0   1  10   13.60    1.60
  -1  -1 -10   61.69    2.40
  -1  -1 -10   58.79    2.30
   1   1  10   62.69    2.70
  -2  -1 -10   27.90    1.70
  -2  -1 -10   30.80    1.50
  -3  -1 -10    0.60    0.60
   3   1  10    0.50    0.60
  -4  -1 -10   14.40    1.10
   4   1  10   15.90    0.90
   4   1  10   14.80    1.30
   6  -2 -10   54.79    2.00
  -6   2  10   55.59    1.80
  -6   2  10   50.29    2.00
   5  -2 -10    0.20    0.60
  -5   2  10    1.30    0.60
  -5   2  10   -0.50    0.50
  -5   2  10    0.70    0.70
   4  -2 -10    4.50    0.80
   4  -2 -10    5.60    0.90
  -4   2  10    6.80    1.10
   3  -2 -10   15.70    1.40
   3  -2 -10   14.40    1.30
  -3   2  10   12.60    1.40
   2  -2 -10   34.00    1.80
   2  -2 -10   36.30    1.90
  -2   2  10   31.80    2.10
   1  -2 -10  449.56    9.70
  -1   2  10  446.56   10.00
   0  -2 -10  109.59    3.40
   0  -2 -10  103.79    3.10
   0   2  10  103.99    3.60
  -1  -2 -10   28.60    1.70
  -1  -2 -10   28.70    1.70
   1   2  10   29.10    2.30
  -2  -2 -10   24.70    1.50
  -2  -2 -10   25.10    1.40
   2   2  10   23.60    1.40
   2   2  10   25.60    1.90
  -3  -2 -10   62.79    2.20
   3   2  10   55.99    2.40
   3   2  10   60.49    1.90
  -4  -2 -10   51.49    1.80
   4   2  10   51.09    2.00
   5  -3 -10   79.79    2.50
   5  -3 -10   80.39    2.20
  -5   3  10   80.99    2.70
   4  -3 -10    7.20    1.00
  -4   3  10    7.80    1.10
   3  -3 -10   39.20    2.00
   3  -3 -10   37.30    1.70
  -3   3  10   41.80    2.10
   2  -3 -10    2.20    0.80
   2  -3 -10    1.10    0.70
  -2   3  10    2.00    0.90
   1  -3 -10  135.69    3.70
   1  -3 -10  127.69    3.80
  -1   3  10  139.59    4.00
   0  -3 -10    0.80    0.70
   0   3  10    0.50    1.30
  -1  -3 -10    0.70    0.60
  -1  -3 -10    1.30    0.70
   1   3  10    0.70    1.10
   1   3  10    0.40    0.80
  -2  -3 -10   27.20    1.50
  -2  -3 -10   25.90    1.50
   2   3  10   23.00    1.40
   2   3  10   24.00    1.90
  -3  -3 -10    6.40    0.90
   3   3  10    6.70    0.70
   3   3  10    5.60    0.90
   5  -4 -10   17.30    1.00
   5  -4 -10   18.00    1.30
  -5   4  10   16.40    1.30
   4  -4 -10   20.10    1.40
   4  -4 -10   19.40    1.10
  -4   4  10   19.70    1.50
   3  -4 -10   48.30    2.00
   3  -4 -10   49.30    1.80
  -3   4  10   50.89    2.20
   2  -4 -10    9.20    1.00
   2  -4 -10    9.80    1.10
  -2   4  10    9.70    1.20
   1  -4 -10   68.89    2.50
   1  -4 -10   69.09    2.40
   1  -4 -10   75.39    2.40
   1  -4 -10   70.19    2.10
  -1   4  10   56.49    3.60
   0  -4 -10   30.00    1.70
   0  -4 -10   29.90    1.60
   0  -4 -10   28.90    1.30
   0   4  10   20.90    2.30
  -1  -4 -10    1.10    0.50
  -1  -4 -10    1.00    0.60
   1   4  10    0.80    1.10
   1   4  10    0.90    0.80
  -2  -4 -10    5.30    0.80
  -2  -4 -10    4.70    0.70
   2   4  10    4.20    0.70
   2   4  10    4.50    1.00
  -3  -4 -10    2.90    0.70
   3   4  10    2.80    0.70
   3   4  10    4.60    0.60
   3  -5 -10   22.70    1.40
   3  -5 -10   22.70    1.10
  -3   5  10   22.30    1.50
   2  -5 -10   24.10    1.20
   2  -5 -10   24.40    1.10
   2  -5 -10   24.50    1.40
   2  -5 -10   23.30    1.40
   1  -5 -10   -0.90    0.40
   1  -5 -10   -0.60    0.60
   1  -5 -10    0.00    0.50
   1  -5 -10   -0.20    0.50
  -1   5  10   -0.90    1.00
   0  -5 -10    2.30    0.60
   0  -5 -10    1.70    0.50
   0  -5 -10    1.90    0.70
   0   5  10    1.10    1.20
  -1  -5 -10    5.10    0.80
   1   5  10    2.50    0.80
   1   5  10    2.50    1.00
   2   4 -11    0.20    0.50
   2   4 -11   -0.30    0.60
  -2  -4  11    0.10    0.50
   1   4 -11   -0.20    0.50
   1   4 -11    0.20    0.60
  -1  -4  11    1.00    0.50
  -1  -4  11    0.70    0.50
   0   4 -11   64.59    2.10
   0  -4  11   63.39    2.10
   0  -4  11   64.29    1.80
  -1   4 -11   11.90    0.90
   1  -4  11   14.70    1.10
   4   3 -11    1.60    0.70
  -4  -3  11    1.20    0.60
   3   3 -11    9.00    1.00
  -3  -3  11    9.30    0.90
  -3  -3  11    8.50    1.10
   2   3 -11  103.19    3.00
   2   3 -11  102.39    2.80
  -2  -3  11  106.89    3.00
  -2  -3  11  107.59    2.80
  -2  -3  11  105.49    3.00
   1   3 -11   36.00    1.70
   1   3 -11   35.50    1.60
  -1  -3  11   37.20    1.80
  -1  -3  11   33.60    1.40
  -1  -3  11   35.40    1.60
   0   3 -11   27.20    1.50
   0   3 -11   31.10    1.40
   0  -3  11   31.30    1.60
   0  -3  11   29.10    1.20
  -1   3 -11   61.89    2.10
   1  -3  11   61.39    2.10
  -2   3 -11   13.50    1.30
  -2   3 -11   12.40    1.00
   2  -3  11    8.80    0.80
   4   2 -11    1.10    0.70
  -4  -2  11    2.30    0.70
   3   2 -11   36.80    1.70
  -3  -2  11   37.50    1.60
  -3  -2  11   37.20    1.70
  -3  -2  11   36.40    1.80
   2   2 -11    1.20    0.70
   2   2 -11    1.40    0.60
  -2  -2  11    2.30    0.60
  -2  -2  11    2.40    0.80
  -2  -2  11    2.40    0.70
   1   2 -11   13.30    1.30
   1   2 -11   13.40    1.10
  -1  -2  11   12.80    1.10
  -1  -2  11   12.80    1.30
  -1  -2  11   13.00    1.00
   0   2 -11    7.10    0.90
   0   2 -11    8.40    1.00
   0  -2  11    8.40    1.10
  -1   2 -11   61.09    2.20
   1  -2  11   65.99    2.30
  -2   2 -11    0.10    0.60
   2  -2  11   -0.20    0.50
  -5  -1  11    5.60    0.70
   4   1 -11   66.19    2.20
  -4  -1  11   72.19    2.10
  -4  -1  11   67.49    2.30
  -4  -1  11   66.59    2.40
   3   1 -11   42.90    1.90
  -3  -1  11   42.10    1.70
  -3  -1  11   44.00    2.20
  -3  -1  11   42.80    1.80
   2   1 -11   81.99    2.70
  -2  -1  11   78.39    2.30
  -2  -1  11   76.99    2.50
  -2  -1  11   77.39    3.00
   1   1 -11    5.80    1.00
   1   1 -11    6.10    0.80
  -1  -1  11    4.90    1.00
   0   1 -11   52.99    2.10
   0   1 -11   51.59    2.00
   0  -1  11   51.09    2.30
  -1   1 -11    4.70    0.80
  -1   1 -11    6.70    0.80
   1  -1  11    4.70    0.90
  -2   1 -11   31.60    1.60
   2  -1  11   33.90    1.50
  -3   1 -11   63.89    2.00
  -5   0  11    3.80    0.80
  -5   0  11    1.60    0.60
   4   0 -11    1.70    0.60
   4   0 -11    1.40    0.60
  -4   0  11    1.50    0.80
  -4   0  11    1.60    0.70
  -4   0  11    2.10    0.60
   3   0 -11   27.00    1.50
  -3   0  11   26.10    1.30
  -3   0  11   29.30    1.90
   2   0 -11  104.39    3.20
  -2   0  11  105.59    3.60
   1   0 -11   28.80    1.50
   1   0 -11   28.70    1.70
  -1   0  11   28.40    2.00
   0   0 -11    2.70    0.80
   0   0 -11    2.10    0.70
   0   0  11    1.00    0.80
  -1   0 -11   90.09    2.80
  -1   0 -11   89.49    2.70
   1   0  11   93.69    2.90
  -2   0 -11  145.39    3.70
   2   0  11  139.99    3.50
  -3   0 -11   51.99    1.80
  -5   1  11   27.70    1.60
  -5   1  11   27.40    1.20
   4  -1 -11    2.60    0.60
   4  -1 -11    2.10    0.70
  -4   1  11    2.40    0.80
  -4   1  11    2.70    0.60
   3  -1 -11  144.79    3.80
   3  -1 -11  142.29    3.70
  -3   1  11  149.88    4.20
   2  -1 -11   43.90    2.00
  -2   1  11   46.60    2.30
   1  -1 -11   10.90    1.20
  -1   1  11   12.80    1.40
   0  -1 -11    7.70    0.90
   0  -1 -11    6.40    0.90
   0   1  11    8.50    1.20
  -1  -1 -11    5.00    0.80
  -1  -1 -11    4.80    0.80
   1   1  11    4.30    0.80
  -2  -1 -11   13.80    1.10
  -3  -1 -11   17.00    1.20
   4  -2 -11   11.80    1.00
  -4   2  11   11.30    1.20
   3  -2 -11   -0.40    0.50
   3  -2 -11   -0.20    0.50
  -3   2  11   -0.40    0.70
   2  -2 -11    0.10    0.60
  -2   2  11   -0.80    0.70
   1  -2 -11   27.60    1.60
  -1   2  11   24.50    1.70
   0  -2 -11   23.40    1.50
   0  -2 -11   20.90    1.20
   0   2  11   22.40    1.60
  -1  -2 -11    3.20    0.70
  -1  -2 -11    3.00    0.70
  -2  -2 -11   45.90    1.70
  -2  -2 -11   45.70    1.60
   4  -3 -11   34.20    1.50
  -4   3  11   35.90    1.90
   3  -3 -11    8.00    0.80
   3  -3 -11    6.50    0.80
  -3   3  11    8.20    1.10
   2  -3 -11   73.49    2.20
   2  -3 -11   68.39    2.20
  -2   3  11   69.99    2.50
   1  -3 -11    2.20    0.70
  -1   3  11    2.80    0.80
   0  -3 -11   40.40    1.80
  -1  -3 -11   60.49    1.90
  -1  -3 -11   64.79    2.10
  -2  -3 -11   16.50    1.10
  -2  -3 -11   17.40    1.00
  -3   4  11   17.20    1.20
   2  -4 -11    4.80    0.70
   2  -4 -11    4.60    0.90
  -2   4  11    5.10    0.80
   1  -4 -11   21.00    1.30
   0  -4 -11    2.10    0.70
   1   2 -12   84.39    2.20
   1   2 -12   86.59    2.30
  -1  -2  12   88.79    2.60
   2   1 -12    0.10    0.60
  -2  -1  12   -0.40    0.70
   1   1 -12    0.80    0.50
   1   1 -12   -0.60    0.60
  -1  -1  12    0.20    0.70
   0   1 -12   65.99    1.90
   0   1 -12   63.79    1.90
   0  -1  12   64.89    2.20
  -3   0  12   12.40    1.20
   2   0 -12   59.59    2.00
  -2   0  12   62.99    2.40
   1   0 -12    7.60    0.90
  -1   0  12   10.10    1.10
   0   0 -12   38.90    1.60
   0   0 -12   38.70    1.40
   0   0  12   39.20    1.70
   2  -1 -12    8.00    0.90
  -2   1  12    6.40    1.00
   1  -1 -12    7.70    0.90
  -1   1  12    8.30    1.00
   0  -1 -12    1.30    0.60
   0   1  12    0.60    0.60
   1  -2 -12   21.00    1.40
  -1   2  12   22.80    1.30

_computing_structure_solution     'SHELXT 2014/4 (Sheldrick, 2014)'
;
_shelx_hkl_checksum              71787
loop_
_space_group_symop_operation_xyz
'x, y, z'
'-x, -y, -z'
loop_
_atom_site_label
_atom_site_type_symbol
_atom_site_fract_x
_atom_site_fract_y
_atom_site_fract_z
_atom_site_U_iso_or_equiv
_atom_site_adp_type
_atom_site_occupancy
_atom_site_site_symmetry_order
_atom_site_calc_flag
_atom_site_refinement_flags_posn
B1 B 0.85382(18) 0.59048(18) 0.31673(13) 0.0389(3) Uani 1 1 d .
C1 C 0.77678(14) 0.59533(13) 0.45620(11) 0.0310(3) Uani 1 1 d .
H1A H 0.960(2) 0.682(2) 0.3132(17) 0.053(4) Uiso 1 1 d .
N1 N 0.72786(12) 0.47214(12) 0.52679(10) 0.0358(3) Uani 1 1 d .
H1N H 0.900(2) 0.473(2) 0.2977(19) 0.057(5) Uiso 1 1 d .
O1 O 0.35714(11) 0.76517(10) -0.10899(8) 0.0365(3) Uani 1 1 d .
C2 C 0.68128(16) 0.52271(17) 0.64564(13) 0.0410(3) Uani 1 1 d .
H2 H 0.644(2) 0.446(2) 0.7069(19) 0.054(4) Uiso 1 1 d .
N2 N 0.75819(12) 0.72233(12) 0.53128(9) 0.0316(3) Uani 1 1 d .
O2 O 0.25622(11) 0.93969(10) 0.04274(9) 0.0380(3) Uani 1 1 d .
C3 C 0.69979(15) 0.67911(16) 0.64902(12) 0.0377(3) Uani 1 1 d .
H3 H 0.6804(19) 0.7571(19) 0.7131(16) 0.041(4) Uiso 1 1 d .
N3 N 0.71598(12) 0.63229(12) 0.20200(10) 0.0339(3) Uani 1 1 d .
H3N H 0.722(2) 0.6016(19) 0.1214(18) 0.045(4) Uiso 1 1 d .
O3 O 0.59765(11) 0.63992(11) -0.05860(8) 0.0410(3) Uani 1 1 d .
C4 C 0.72509(19) 0.30727(16) 0.48578(17) 0.0533(4) Uani 1 1 d .
H4A H 0.8411 0.2700 0.4923 0.070(6) Uiso 1 1 calc R
H4B H 0.6729 0.2977 0.3951 0.073(6) Uiso 1 1 calc R
H4C H 0.6595 0.2448 0.5427 0.089(7) Uiso 1 1 calc R
N4 N 0.59850(12) 0.72932(11) 0.21641(9) 0.0315(3) Uani 1 1 d .
O4 O 0.36988(14) 0.96052(12) 0.25068(10) 0.0523(3) Uani 1 1 d .
C5 C 0.78323(18) 0.88475(15) 0.49158(13) 0.0428(3) Uani 1 1 d .
H5A H 0.6805 0.9200 0.4395 0.065(5) Uiso 1 1 calc R
H5B H 0.8784 0.8921 0.4392 0.062(5) Uiso 1 1 calc R
H5C H 0.8074 0.9505 0.5696 0.078(6) Uiso 1 1 calc R
C6 C 0.48575(14) 0.77281(13) 0.11493(11) 0.0300(3) Uani 1 1 d .
C7 C 0.48769(14) 0.71946(13) -0.01949(11) 0.0309(3) Uani 1 1 d .
C8 C 0.20755(15) 0.82720(14) -0.06032(11) 0.0336(3) Uani 1 1 d .
C9 C 0.36987(15) 0.89342(14) 0.14620(12) 0.0345(3) Uani 1 1 d .
C10 C 0.09940(17) 0.69556(16) -0.01060(14) 0.0432(3) Uani 1 1 d .
H10A H 0.1667 0.6390 0.0588 0.058(5) Uiso 1 1 calc R
H10B H 0.0612 0.6241 -0.0827 0.048(4) Uiso 1 1 calc R
H10C H 0.0009 0.7392 0.0240 0.064(5) Uiso 1 1 calc R
C11 C 0.11694(19) 0.91716(17) -0.17383(14) 0.0474(4) Uani 1 1 d .
H11A H 0.1932 0.9986 -0.2017 0.074(6) Uiso 1 1 calc R
H11B H 0.0164 0.9649 -0.1459 0.073(6) Uiso 1 1 calc R
H11C H 0.0828 0.8459 -0.2469 0.054(4) Uiso 1 1 calc R
loop_
_atom_site_aniso_label
_atom_site_aniso_U_11
_atom_site_aniso_U_22
_atom_site_aniso_U_33
_atom_site_aniso_U_23
_atom_site_aniso_U_13
_atom_site_aniso_U_12
B1 0.0360(7) 0.0524(9) 0.0280(7) -0.0069(6) 0.0008(5) 0.0092(6)
C1 0.0301(5) 0.0349(6) 0.0268(6) -0.0014(4) -0.0025(4) 0.0041(4)
N1 0.0338(5) 0.0329(6) 0.0387(6) 0.0034(4) -0.0052(4) 0.0022(4)
O1 0.0402(5) 0.0472(5) 0.0226(4) 0.0005(3) 0.0043(3) 0.0064(4)
C2 0.0363(6) 0.0509(8) 0.0359(7) 0.0134(5) 0.0043(5) 0.0023(5)
N2 0.0365(5) 0.0343(5) 0.0240(5) -0.0003(3) 0.0030(4) 0.0022(4)
O2 0.0475(5) 0.0309(5) 0.0350(5) -0.0033(3) 0.0007(4) 0.0078(3)
C3 0.0395(6) 0.0486(8) 0.0259(6) 0.0023(5) 0.0065(5) 0.0062(5)
N3 0.0363(6) 0.0412(6) 0.0243(5) -0.0061(4) 0.0037(4) 0.0037(4)
O3 0.0440(5) 0.0546(6) 0.0261(5) -0.0039(4) 0.0081(4) 0.0117(4)
C4 0.0510(8) 0.0330(7) 0.0709(10) -0.0018(6) -0.0149(7) 0.0023(5)
N4 0.0345(5) 0.0341(5) 0.0259(5) -0.0031(4) 0.0039(4) -0.0012(4)
O4 0.0695(7) 0.0511(6) 0.0361(6) -0.0164(4) 0.0014(4) 0.0182(5)
C5 0.0578(8) 0.0320(7) 0.0385(7) -0.0012(5) 0.0063(6) -0.0023(5)
C6 0.0361(6) 0.0294(6) 0.0248(6) -0.0015(4) 0.0052(4) -0.0014(4)
C7 0.0346(6) 0.0349(6) 0.0236(6) 0.0011(4) 0.0055(4) 0.0003(4)
C8 0.0380(6) 0.0347(7) 0.0285(6) -0.0023(4) 0.0041(5) 0.0045(4)
C9 0.0421(7) 0.0313(6) 0.0299(6) -0.0034(4) 0.0040(5) 0.0008(5)
C10 0.0435(7) 0.0429(7) 0.0436(7) -0.0026(5) 0.0082(5) -0.0045(5)
C11 0.0528(8) 0.0508(9) 0.0373(7) 0.0035(6) -0.0030(6) 0.0117(6)
loop_
_atom_type_symbol
_atom_type_description
_atom_type_scat_dispersion_real
_atom_type_scat_dispersion_imag
_atom_type_scat_source
C C 0.0181 0.0091 'International Tables Vol C Tables 4.2.6.8 and 6.1.1.4'
H H 0.0000 0.0000 'International Tables Vol C Tables 4.2.6.8 and 6.1.1.4'
B B 0.0090 0.0039 'International Tables Vol C Tables 4.2.6.8 and 6.1.1.4'
N N 0.0311 0.0180 'International Tables Vol C Tables 4.2.6.8 and 6.1.1.4'
O O 0.0492 0.0322 'International Tables Vol C Tables 4.2.6.8 and 6.1.1.4'
loop_
_geom_angle_atom_site_label_1
_geom_angle_atom_site_label_2
_geom_angle_atom_site_label_3
_geom_angle
N3 B1 C1 110.82(10)
N3 B1 H1A 105.6(9)
C1 B1 H1A 111.2(9)
N3 B1 H1N 108.3(10)
C1 B1 H1N 110.8(10)
H1A B1 H1N 110.0(13)
N1 C1 N2 105.19(10)
N1 C1 B1 127.27(11)
N2 C1 B1 127.40(11)
C1 N1 C2 110.21(10)
C1 N1 C4 125.71(12)
C2 N1 C4 124.08(12)
C7 O1 C8 118.20(9)
C3 C2 N1 107.49(11)
C3 C2 H2 133.4(11)
N1 C2 H2 119.1(11)
C1 N2 C3 110.80(10)
C1 N2 C5 125.31(10)
C3 N2 C5 123.74(10)
C9 O2 C8 117.40(9)
C2 C3 N2 106.30(11)
C2 C3 H3 133.2(10)
N2 C3 H3 120.5(10)
N4 N3 B1 122.14(9)
N4 N3 H3N 115.4(11)
B1 N3 H3N 122.0(11)
N1 C4 H4B 109.5
N1 C4 H4B 109.5
H4B C4 H4B 109.5
N1 C4 H4C 109.5
H4B C4 H4C 109.5
H4B C4 H4C 109.5
N3 N4 C6 122.02(9)
N2 C5 H5A 109.5
N2 C5 H5B 109.5
H5A C5 H5B 109.5
N2 C5 H5C 109.5
H5A C5 H5C 109.5
H5B C5 H5C 109.5
N4 C6 C7 124.10(11)
N4 C6 C9 114.83(10)
C7 C6 C9 120.73(10)
O3 C7 O1 117.93(10)
O3 C7 C6 125.24(11)
O1 C7 C6 116.82(10)
O2 C8 O1 110.29(9)
O2 C8 C11 106.39(10)
O1 C8 C11 105.71(10)
O2 C8 C10 110.39(10)
O1 C8 C10 110.37(10)
C11 C8 C10 113.53(11)
O4 C9 O2 118.02(11)
O4 C9 C6 126.80(12)
O2 C9 C6 115.08(10)
C8 C10 H10A 109.5
C8 C10 H10B 109.5
H10A C10 H10B 109.5
C8 C10 H10C 109.5
H10A C10 H10C 109.5
H10B C10 H10C 109.5
C8 C11 H11A 109.5
C8 C11 H11B 109.5
H11A C11 H11B 109.5
C8 C11 H11C 109.5
H11A C11 H11C 109.5
H11B C11 H11C 109.5
loop_
_geom_bond_atom_site_label_1
_geom_bond_atom_site_label_2
_geom_bond_distance
B1 N3 1.5501(16)
B1 C1 1.6090(17)
B1 H1A 1.132(17)
B1 H1N 1.100(18)
C1 N1 1.3450(16)
C1 N2 1.3448(15)
N1 C2 1.3771(18)
N1 C4 1.4630(17)
O1 C7 1.3591(14)
O1 C8 1.4417(14)
C2 C3 1.336(2)
C2 H2 0.968(19)
N2 C3 1.3802(15)
N2 C5 1.4554(16)
O2 C9 1.3678(15)
O2 C8 1.4339(14)
C3 H3 0.958(16)
N3 N4 1.2765(15)
N3 H3N 0.869(18)
O3 C7 1.2149(15)
C4 H4B 0.9700
C4 H4B 0.9700
C4 H4C 0.9700
N4 C6 1.3426(15)
O4 C9 1.2083(16)
C5 H5A 0.9700
C5 H5B 0.9700
C5 H5C 0.9700
C6 C7 1.4451(16)
C6 C9 1.4498(17)
C8 C11 1.5077(17)
C8 C10 1.5132(17)
C10 H10A 0.9700
C10 H10B 0.9700
C10 H10C 0.9700
C11 H11A 0.9700
C11 H11B 0.9700
C11 H11C 0.9700
