#------------------------------------------------------------------------------
#$Date: 2019-11-24 12:26:56 +0200 (Sun, 24 Nov 2019) $
#$Revision: 237902 $
#$URL: file:///home/coder/svn-repositories/cod/cif/4/08/89/4088966.cif $
#------------------------------------------------------------------------------
#
# This file is available in the Crystallography Open Database (COD),
# http://www.crystallography.net/
#
# All data on this site have been placed in the public domain by the
# contributors.
#
data_4088966
loop_
_publ_author_name
'Brown, Loren C.'
'Ressegue, Emily'
'Merola, Joseph S.'
_publ_section_title
;
 Rapid Access to Derivatized, Dimeric, Ring-Substituted
 Dichloro(cyclopentadienyl)rhodium(III) and Iridium(III) Complexes
;
_journal_issue                   24
_journal_name_full               Organometallics
_journal_page_first              4014
_journal_paper_doi               10.1021/acs.organomet.6b00580
_journal_volume                  35
_journal_year                    2016
_chemical_formula_moiety         'C26 H42 Cl4 Rh2'
_chemical_formula_sum            'C26 H42 Cl4 Rh2'
_chemical_formula_weight         702.21
_space_group_crystal_system      triclinic
_space_group_IT_number           2
_space_group_name_Hall           '-P 1'
_space_group_name_H-M_alt        'P -1'
_atom_sites_solution_hydrogens   geom
_audit_creation_date             2015-11-12
_audit_creation_method
;
Olex2 1.2
(compiled 2015.09.30 svn.r3233 for OlexSys, GUI svn.r5103)
;
_cell_angle_alpha                74.904(4)
_cell_angle_beta                 76.432(5)
_cell_angle_gamma                82.203(4)
_cell_formula_units_Z            1
_cell_length_a                   8.5876(5)
_cell_length_b                   8.7956(4)
_cell_length_c                   9.9373(5)
_cell_measurement_reflns_used    10578
_cell_measurement_temperature    100.00(10)
_cell_measurement_theta_max      32.3480
_cell_measurement_theta_min      4.1690
_cell_volume                     702.24(7)
_computing_cell_refinement
;
CrysAlisPro, Agilent Technologies,
Version 1.171.37.35 (release 13-08-2014 CrysAlis171 .NET)
(compiled Aug 13 2014,18:06:01)
;
_computing_data_collection
;
CrysAlisPro, Agilent Technologies,
Version 1.171.37.35 (release 13-08-2014 CrysAlis171 .NET)
(compiled Aug 13 2014,18:06:01)
;
_computing_data_reduction
;
CrysAlisPro, Agilent Technologies,
Version 1.171.37.35 (release 13-08-2014 CrysAlis171 .NET)
(compiled Aug 13 2014,18:06:01)
;
_computing_molecular_graphics    'Olex2 (Dolomanov et al., 2009)'
_computing_publication_material  'Olex2 (Dolomanov et al., 2009)'
_computing_structure_refinement  'ShelXL (Sheldrick, 2015)'
_computing_structure_solution    'ShelXT (Sheldrick, 2015)'
_diffrn_ambient_environment      N~2~
_diffrn_ambient_temperature      100.00(10)
_diffrn_detector                 'CCD plate'
_diffrn_detector_area_resol_mean 8.0061
_diffrn_detector_type            Eos
_diffrn_measured_fraction_theta_full 0.997
_diffrn_measured_fraction_theta_max 0.998
_diffrn_measurement_details
;
#__ type_ start__ end____ width___ exp.time_
  1 omega -100.00   -6.00   1.0000    5.0000
omega____ theta____ kappa____ phi______ frames
    -      -29.5315  -57.0000   90.0000 94

#__ type_ start__ end____ width___ exp.time_
  2 omega -109.00  -35.00   1.0000    5.0000
omega____ theta____ kappa____ phi______ frames
    -      -29.5315 -178.0000  120.0000 74

#__ type_ start__ end____ width___ exp.time_
  3 omega -112.00  -32.00   1.0000    5.0000
omega____ theta____ kappa____ phi______ frames
    -      -29.5315  178.0000  -60.0000 80

#__ type_ start__ end____ width___ exp.time_
  4 omega -109.00  -35.00   1.0000    5.0000
omega____ theta____ kappa____ phi______ frames
    -      -29.5315 -178.0000 -180.0000 74

#__ type_ start__ end____ width___ exp.time_
  5 omega -112.00  -32.00   1.0000    5.0000
omega____ theta____ kappa____ phi______ frames
    -      -29.5315  178.0000   60.0000 80

#__ type_ start__ end____ width___ exp.time_
  6 omega  -90.00    2.00   1.0000    5.0000
omega____ theta____ kappa____ phi______ frames
    -      -29.5315  126.0000  -92.4384 92

#__ type_ start__ end____ width___ exp.time_
  7 omega -105.00   37.00   1.0000    5.0000
omega____ theta____ kappa____ phi______ frames
    -      -29.5315  -19.0000  120.0000 142

#__ type_ start__ end____ width___ exp.time_
  8 omega  -25.00    7.00   1.0000    5.0000
omega____ theta____ kappa____ phi______ frames
    -      -29.5315  -83.0000 -126.0037 32

#__ type_ start__ end____ width___ exp.time_
  9 omega  -26.00    6.00   1.0000    5.0000
omega____ theta____ kappa____ phi______ frames
    -      -29.5315  -81.0000    8.7638 32

#__ type_ start__ end____ width___ exp.time_
 10 omega -100.00   -6.00   1.0000    5.0000
omega____ theta____ kappa____ phi______ frames
    -      -29.5315  -57.0000   30.0000 94

#__ type_ start__ end____ width___ exp.time_
 11 omega  -53.00   40.00   1.0000    5.0000
omega____ theta____ kappa____ phi______ frames
    -      -29.5315   59.0000   97.0000 93

#__ type_ start__ end____ width___ exp.time_
 12 omega -100.00  -19.00   1.0000    5.0000
omega____ theta____ kappa____ phi______ frames
    -      -29.5315  -57.0000 -180.0000 81

#__ type_ start__ end____ width___ exp.time_
 13 omega -102.00    4.00   1.0000    5.0000
omega____ theta____ kappa____ phi______ frames
    -      -29.5315  -77.0000  -30.0000 106
;
_diffrn_measurement_device       'four-circle diffractometer'
_diffrn_measurement_device_type  'Xcalibur, Eos, Gemini ultra'
_diffrn_measurement_method       '\w scans'
_diffrn_orient_matrix_UB_11      0.0701355000
_diffrn_orient_matrix_UB_12      0.0314252000
_diffrn_orient_matrix_UB_13      -0.0469739000
_diffrn_orient_matrix_UB_21      -0.0458854000
_diffrn_orient_matrix_UB_22      0.0710302000
_diffrn_orient_matrix_UB_23      -0.0242831000
_diffrn_orient_matrix_UB_31      0.0155182000
_diffrn_orient_matrix_UB_32      0.0314317000
_diffrn_orient_matrix_UB_33      0.0540106000
_diffrn_radiation_monochromator  graphite
_diffrn_radiation_probe          x-ray
_diffrn_radiation_type           MoK\a
_diffrn_radiation_wavelength     0.71073
_diffrn_reflns_av_unetI/netI     0.0446
_diffrn_reflns_Laue_measured_fraction_full 0.997
_diffrn_reflns_Laue_measured_fraction_max 0.998
_diffrn_reflns_limit_h_max       11
_diffrn_reflns_limit_h_min       -11
_diffrn_reflns_limit_k_max       11
_diffrn_reflns_limit_k_min       -11
_diffrn_reflns_limit_l_max       13
_diffrn_reflns_limit_l_min       -13
_diffrn_reflns_number            6808
_diffrn_reflns_point_group_measured_fraction_full 0.997
_diffrn_reflns_point_group_measured_fraction_max 0.998
_diffrn_reflns_theta_full        27.500
_diffrn_reflns_theta_max         28.998
_diffrn_reflns_theta_min         3.567
_diffrn_source                   'Enhance (Mo) X-ray Source'
_exptl_absorpt_coefficient_mu    1.569
_exptl_absorpt_correction_T_max  1.00000
_exptl_absorpt_correction_T_min  0.93946
_exptl_absorpt_correction_type   multi-scan
_exptl_absorpt_process_details
;
CrysAlisPro, Agilent Technologies,
Version 1.171.37.35 (release 13-08-2014 CrysAlis171 .NET)
(compiled Aug 13 2014,18:06:01)
Empirical absorption correction using spherical harmonics,
 implemented in SCALE3 ABSPACK scaling algorithm.
Empirical absorption correction using spherical harmonics,
 implemented in SCALE3 ABSPACK scaling algorithm.
;
_exptl_crystal_colour            red
_exptl_crystal_colour_primary    red
_exptl_crystal_density_diffrn    1.660
_exptl_crystal_description
;
;
_exptl_crystal_F_000             356
_exptl_crystal_size_max          0.3028
_exptl_crystal_size_mid          0.2191
_exptl_crystal_size_min          0.1194
_refine_diff_density_max         0.964
_refine_diff_density_min         -0.650
_refine_diff_density_rms         0.113
_refine_ls_extinction_method     none
_refine_ls_goodness_of_fit_ref   1.075
_refine_ls_hydrogen_treatment    constr
_refine_ls_matrix_type           full
_refine_ls_number_parameters     151
_refine_ls_number_reflns         6808
_refine_ls_number_restraints     0
_refine_ls_restrained_S_all      1.075
_refine_ls_R_factor_all          0.0393
_refine_ls_R_factor_gt           0.0328
_refine_ls_shift/su_max          0.000
_refine_ls_shift/su_mean         0.000
_refine_ls_structure_factor_coef Fsqd
_refine_ls_weighting_details
'w=1/[\s^2^(Fo^2^)+(0.0324P)^2^+0.5587P] where P=(Fo^2^+2Fc^2^)/3'
_refine_ls_weighting_scheme      calc
_refine_ls_wR_factor_gt          0.0786
_refine_ls_wR_factor_ref         0.0798
_reflns_Friedel_coverage         0.000
_reflns_number_gt                5940
_reflns_number_total             6808
_reflns_threshold_expression     'I > 2\s(I)'
_cod_data_source_file            om6b00580_si_002.cif
_cod_data_source_block           3d_lbx-020abs1
_cod_database_code               4088966
_chemical_oxdiff_formula         'C26 H42 Cl4 Rh2'
_chemical_oxdiff_usercomment     LBI90
_shelx_space_group_comment
;
The symmetry employed for this shelxl refinement is uniquely defined
by the following loop, which should always be used as a source of
symmetry information in preference to the above space-group names.
They are only intended as comments.
;
_reflns_odcompleteness_completeness 99.76
_reflns_odcompleteness_iscentric 1
_reflns_odcompleteness_theta     26.32
_olex2_refinement_description
;
1. Others
 Fixed Uiso: H6A(0.031) H6B(0.031) H6C(0.031) H7A(0.031) H7B(0.031) H7C(0.031)
 H8A(0.03) H8B(0.03) H8C(0.03) H9A(0.031) H9B(0.031) H9C(0.031) H10A(0.021)
 H10B(0.021) H11A(0.018) H11B(0.018) H12A(0.021) H12B(0.021) H13A(0.028)
 H13B(0.028) H13C(0.028)
 Fixed X: H6A(0.5073) H6B(0.4588) H6C(0.3636) H7A(0.3202) H7B(0.4265)
 H7C(0.3773) H8A(0.624) H8B(0.738) H8C(0.8137) H9A(0.9838) H9B(1.0543)
 H9C(1.0288) H10A(0.7531) H10B(0.9141) H11A(0.8294) H11B(0.9926) H12A(1.0745)
 H12B(0.9134) H13A(1.1611) H13B(0.999) H13C(1.1272)
 Fixed Y: H6A(0.3359) H6B(0.1598) H6C(0.3052) H7A(0.1298) H7B(-0.0156)
 H7C(0.1385) H8A(0.1376) H8B(-0.0068) H8C(0.1511) H9A(0.3118) H9B(0.1798)
 H9C(0.3606) H10A(0.4261) H10B(0.4292) H11A(0.1546) H11B(0.1637) H12A(0.3557)
 H12B(0.3391) H13A(0.0905) H13B(0.0716) H13C(0.1868)
 Fixed Z: H6A(0.5148) H6B(0.5398) H6C(0.4501) H7A(0.31) H7B(0.2566)
 H7C(0.1431) H8A(-0.0431) H8B(0.0255) H8C(-0.0744) H9A(-0.0261) H9B(0.0937)
 H9C(0.1035) H10A(0.4352) H10B(0.314) H11A(0.5407) H11B(0.4229) H12A(0.5175)
 H12B(0.6384) H13A(0.6103) H13B(0.7298) H13C(0.7318)
;
_shelx_res_file
;
    lbx-020abs1.res created by SHELXL-2014/7

TITL lbx-020abs1_a.res in P-1
REM Old TITL LBX-020Abs1 in P-1 #2
REM SHELXT solution in P-1
REM R1 0.070, Rweak 0.028, Alpha 0.052, Orientation as input
REM Formula found by SHELXT: C13 Cl2 Rh
CELL 0.71073 8.587609 8.795573 9.937341 74.904 76.4317 82.2026
ZERR 1 0.000475 0.000408 0.000502 0.0042 0.0047 0.0043
LATT 1
SFAC C H Cl Rh
UNIT 26 42 4 2

L.S. 4 0 0
PLAN  10
TEMP -173
BOND $H
LIST 6
MORE -1
CONF
fmap 2 53
acta 55
OMIT -1 58
OMIT -2 -6 -1
OMIT -1 -3 0
OMIT 2 4 3
OMIT 0 0 -2
OMIT 3 -3 -1
REM <olex2.extras>
REM <HklSrc "%.\\LBX-020_twin1_hklf5.hkl">
REM </olex2.extras>

WGHT    0.032400    0.558700
BASF   0.21752
FVAR       6.48545
RH1   4    0.610934    0.412333    0.138933    11.00000    0.00923    0.00794 =
         0.00835   -0.00207   -0.00299   -0.00052
CL1   3    0.636928    0.669136    0.168276    11.00000    0.01934    0.01066 =
         0.01728   -0.00482   -0.00669   -0.00199
CL2   3    0.328001    0.491051    0.123226    11.00000    0.00987    0.01385 =
         0.01063   -0.00196   -0.00233    0.00017
C1    1    0.585246    0.245981    0.338867    11.00000    0.01501    0.01185 =
         0.00890   -0.00051   -0.00430    0.00080
C2    1    0.558248    0.171144    0.233522    11.00000    0.01630    0.00872 =
         0.01420    0.00114   -0.00688   -0.00026
C3    1    0.699764    0.175553    0.125250    11.00000    0.01733    0.00746 =
         0.01534   -0.00168   -0.00763    0.00103
C4    1    0.818648    0.252645    0.160509    11.00000    0.01314    0.00526 =
         0.01716   -0.00133   -0.00387    0.00051
C5    1    0.748484    0.292278    0.295052    11.00000    0.01481    0.00833 =
         0.01269   -0.00076   -0.00776    0.00121
C6    1    0.468732    0.263210    0.472350    11.00000    0.02421    0.02210 =
         0.01200   -0.00156   -0.00022    0.00116
AFIX 137
H6A   2    0.507256    0.335948    0.514815    11.00000   -1.50000
H6B   2    0.458754    0.159822    0.539818    11.00000   -1.50000
H6C   2    0.363627    0.305182    0.450125    11.00000   -1.50000
AFIX   0
C7    1    0.407397    0.099726    0.236019    11.00000    0.02039    0.01593 =
         0.02662    0.00018   -0.01066   -0.00607
AFIX 137
H7A   2    0.320243    0.129838    0.310012    11.00000   -1.50000
H7B   2    0.426549   -0.015609    0.256606    11.00000   -1.50000
H7C   2    0.377300    0.138505    0.143065    11.00000   -1.50000
AFIX   0
C8    1    0.720676    0.108558   -0.002793    11.00000    0.02983    0.01610 =
         0.01549   -0.00754   -0.00566    0.00275
AFIX 137
H8A   2    0.623991    0.137629   -0.043110    11.00000   -1.50000
H8B   2    0.737962   -0.006779    0.025524    11.00000   -1.50000
H8C   2    0.813729    0.151086   -0.074390    11.00000   -1.50000
AFIX   0
C9    1    0.985845    0.278445    0.075551    11.00000    0.01418    0.01559 =
         0.02850   -0.00067   -0.00074   -0.00044
AFIX 137
H9A   2    0.983757    0.311795   -0.026149    11.00000   -1.50000
H9B   2    1.054291    0.179826    0.093737    11.00000   -1.50000
H9C   2    1.028827    0.360586    0.103506    11.00000   -1.50000
AFIX   0
C10   1    0.831783    0.360739    0.379304    11.00000    0.02019    0.01206 =
         0.02613   -0.00529   -0.01584    0.00170
AFIX  23
H10A  2    0.753110    0.426073    0.435206    11.00000   -1.20000
H10B  2    0.914111    0.429215    0.314048    11.00000   -1.20000
AFIX   0
C11   1    0.912075    0.225808    0.480563    11.00000    0.01927    0.01174 =
         0.01817   -0.00226   -0.01127   -0.00179
AFIX  23
H11A  2    0.829352    0.154645    0.540685    11.00000   -1.20000
H11B  2    0.992596    0.163691    0.422858    11.00000   -1.20000
AFIX   0
C12   1    0.994355    0.281387    0.576977    11.00000    0.02122    0.01147 =
         0.02206   -0.00324   -0.01240   -0.00041
AFIX  23
H12A  2    1.074466    0.355739    0.517533    11.00000   -1.20000
H12B  2    0.913361    0.339124    0.638353    11.00000   -1.20000
AFIX   0
C13   1    1.077842    0.145524    0.670514    11.00000    0.02309    0.01902 =
         0.01665   -0.00350   -0.01050    0.00070
AFIX 137
H13A  2    1.161146    0.090496    0.610274    11.00000   -1.50000
H13B  2    0.999018    0.071648    0.729811    11.00000   -1.50000
H13C  2    1.127222    0.186779    0.731798    11.00000   -1.50000
AFIX   0
HKLF 5

REM  lbx-020abs1_a.res in P-1
REM R1 =  0.0328 for    5940 Fo > 4sig(Fo)  and  0.0393 for all    6808 data
REM    151 parameters refined using      0 restraints

END

WGHT      0.0324      0.5587

REM Highest difference peak  0.964,  deepest hole -0.650,  1-sigma level  0.113
Q1    1   0.9139  0.0623 -0.1389  11.00000  0.05    0.96
Q2    1   0.7010  0.4533  0.1153  11.00000  0.05    0.78
Q3    1   0.5207  0.3012  0.0390  11.00000  0.05    0.66
Q4    1   0.5756  0.5087  0.0865  11.00000  0.05    0.58
Q5    1   0.7006  0.5359  0.2384  11.00000  0.05    0.55
Q6    1   1.0390  0.2083  0.6039  11.00000  0.05    0.52
Q7    1   0.2597  0.4467  0.4238  11.00000  0.05    0.51
Q8    1   0.6618  0.3046  0.3087  11.00000  0.05    0.50
Q9    1   0.5168  0.3755  0.1756  11.00000  0.05    0.49
Q10   1   0.2162  0.1800  0.4438  11.00000  0.05    0.49
;
_shelx_res_checksum              12691
_shelx_hkl_file
;
   0   0   2 18676.8 331.077   1
   0   0  -3 367056. 1704.77   1
   0   0   4 267489. 1826.43   1
   0   0  -5 37708.4 736.342   1
   0   0  -6 79801.9 1164.32   1
   0   0  -7 133956. 1793.52   1
   0   0  -8 68029.2 1556.05   1
  -7   0  -1 94007.4 3613.67  -2
   0   0   8 94007.4 3613.67   1
  -8   0  -1 13659.4 794.339  -2
   0   0   9 13659.4 794.339   1
  -9   0  -1 35226.1 1554.20  -2
   0   0  10 35226.1 1554.20   1
  10   0   1 47486.2 1902.78  -2
   0   0 -11 47486.2 1902.78   1
   0   0  12 3011.42 1011.84   1
  11   0   1 7017.66 1293.26  -2
   0   0 -12 7017.66 1293.26   1
   0   0  13 3884.13 922.680   1
   0  -1  13 10717.7 2163.09   1
  12  -1   1 15713.2 2649.15  -2
   0   1 -13 15713.2 2649.15   1
  11  -1   1 10179.4 1536.22  -2
   0   1 -12 10179.4 1536.22   1
  10  -1   1 42507.3 2188.75  -2
   0   1 -11 42507.3 2188.75   1
   9  -1   1 40545.5 1643.74  -2
   0   1 -10 40545.5 1643.74   1
   0  -1   9 32872.5 1283.72   1
   0   1  -8 39453.0 1106.84   1
   0   1  -7 134580. 1834.14   1
   0  -1   6 106755. 1356.15   1
   0  -1   5 4372.41 277.148   1
   0  -1   4 284200. 1352.79   1
   0  -1   3 364716. 1429.10   1
   0   1  -2 69354.1 633.678   1
   0  -1  -2 27868.8 311.055   1
   0   1   3 137063. 829.705   1
   0   1   4 261050. 1252.67   1
   0  -1  -5 72477.1 923.792   1
   0   1   6 1524.62 245.324   1
   0   1   7 44479.5 949.580   1
  -7  -1  -1 45260.9 1314.18  -2
   0   1   8 45260.9 1314.18   1
  -8  -1  -1 29726.0 1346.34  -2
   0   1   9 29726.0 1346.34   1
   9   1   1 4059.82 698.181  -2
   0  -1 -10 4059.82 698.181   1
   0   1  11 11494.9 1059.76   1
 -10  -1  -1 12252.2 2047.58  -2
   0   1  11 12252.2 2047.58   1
   0   1  12 60768.2 2378.24   1
   0  -1 -13 7803.96 1079.06   1
   0   1  14 3227.91 1644.19   1
  12  -2   1 17693.9 3373.98  -2
   0   2 -13 17693.9 3373.98   1
  11  -2   1 8737.47 1448.01  -2
   0   2 -12 8737.47 1448.01   1
  10  -2   1 28225.9 1710.54  -2
   0   2 -11 28225.9 1710.54   1
   0  -2  10 20860.2 1370.07   1
  -9   2  -1 29097.4 2355.06  -2
   0  -2  10 29097.4 2355.06   1
   0   2  -9 6372.82 643.034   1
   0   2  -8 11838.7 661.521   1
   0  -2   7 52368.2 1199.93   1
   0   2  -6 43357.8 907.329   1
   0  -2   5 30487.5 586.743   1
   0  -2   4 74140.5 811.685   1
  -3   2   0 180731. 1258.46  -2
   0  -2   3 180731. 1258.46   1
   0  -2   2 40055.2 779.294   1
   2  -2   0 63739.7 802.075  -2
   0   2  -2 63739.7 802.075   1
   0   2  -1 16674.6 395.298   1
   0  -2   0 30298.4 580.417   1
   0   2   1 276503. 1367.97   1
   0  -2  -2 11870.6 252.045   1
   0   2   3 31588.2 437.557   1
   0  -2  -4 26752.9 483.851   1
   0  -2  -5 116369. 1076.44   1
   0   2   6 74753.2 1223.47   1
  -5  -2  -1 85143.2 1430.69  -2
   0   2   6 85143.2 1430.69   1
   6   2   1 25632.3 721.559  -2
   0  -2  -7 25632.3 721.559   1
  -7  -2  -1 99741.0 2456.08  -2
   0   2   8 99741.0 2456.08   1
   8   2   1 81788.5 1830.51  -2
   0  -2  -9 81788.5 1830.51   1
   0   2  10 9567.80 769.634   1
   0  -2 -11 10467.9 993.698   1
   0   2  12 65241.9 2432.81   1
   0   2  13 36345.0 1959.68   1
   0   2  14 1314.06 871.234   1
   0   3 -12 2377.81 1573.16   1
 -11   3  -1 3316.32 1374.32  -2
   0  -3  12 3316.32 1374.32   1
   0   3 -11 1943.98 813.718   1
   0  -3  10 16289.4 1287.80   1
   0   3  -9 347.950 609.067   1
   0  -3   8 2158.64 385.852   1
   0  -3   7 12489.6 583.460   1
   0  -3   6 13570.3 555.485   1
   0   3  -5 18386.2 640.582   1
  -5   3   0 37625.2 1237.12  -2
   0  -3   5 37625.2 1237.12   1
   4  -3   0 26648.4 872.081  -2
   0   3  -4 26648.4 872.081   1
  -3   3   0 32413.7 721.734  -2
   0  -3   3 32413.7 721.734   1
   0  -3   2 116179. 1214.84   1
   0   3  -1 28568.6 606.298   1
   0   3   0 496.725 127.812   1
   0  -3  -1 107266. 1037.73   1
   0   3   2 177889. 1245.87   1
   0   3   3 37720.1 544.691   1
   0   3   4 34620.6 531.682   1
   0  -3  -5 189339. 1828.05   1
  -4  -3  -1 206212. 2239.67  -2
   0   3   5 206212. 2239.67   1
   5   3   1 122604. 1593.97  -2
   0  -3  -6 122604. 1593.97   1
   6   3   1 42920.2 1060.15  -2
   0  -3  -7 42920.2 1060.15   1
   0  -3  -8 110439. 3955.79   1
  -7  -3  -1 123972. 2281.72  -2
   0   3   8 123972. 2281.72   1
   0   3   9 152180. 2435.28   1
   0   3  10 43410.5 1726.58   1
   0  -3 -11 11366.3 1037.42   1
   0   3  12 38209.9 1879.46   1
   0   3  13 51607.5 2302.35   1
   0   3  14 1986.27 1082.97   1
 -12  -3  -2 3627.97 1957.00  -2
   0   3  14 3627.97 1957.00   1
   0   4 -11 11217.9 1236.26   1
   0  -4  10 640.218 801.903   1
   0  -4   9 17786.5 1304.57   1
   0   4  -8 38570.9 1437.59   1
   0   4  -7 8336.65 615.738   1
  -6   4   0 40441.9 1150.56  -2
   0  -4   6 40441.9 1150.56   1
   5  -4   0 61618.1 1385.65  -2
   0   4  -5 61618.1 1385.65   1
  -4   4   0 83921.6 1925.64  -2
   0  -4   4 83921.6 1925.64   1
   0   4  -3 13502.9 732.575   1
   0  -4   2 82735.9 1179.19   1
   0  -4   1 204409. 1805.84   1
   0   4   0 14795.3 432.682   1
   0   4   1 42203.0 747.363   1
   0   4   2 300579. 2294.90   1
   0  -4  -3 70249.7 772.162   1
   0  -4  -4 26130.8 960.004   1
   3   4   1 33854.2 756.966  -2
   0  -4  -4 33854.2 756.966   1
   4   4   1 191976. 1818.51  -2
   0  -4  -5 191976. 1818.51   1
  -5  -4  -1 137525. 1664.64  -2
   0   4   6 137525. 1664.64   1
   0   4   7 18334.2 827.365   1
   6   4   1 22533.1 900.837  -2
   0  -4  -7 22533.1 900.837   1
   0   4   8 11880.6 597.677   1
   0  -4  -9 66635.7 1956.68   1
   0   4  10 43802.3 1731.75   1
   0   4  11 1368.47 613.141   1
   0   4  12 13459.3 1182.42   1
   0  -4 -13 30311.0 2133.46   1
 -11  -4  -2 36439.9 3592.37  -2
   0   4  13 36439.9 3592.37   1
 -12  -4  -2 16485.7 2873.76  -2
   0   4  14 16485.7 2873.76   1
   0   5 -11 27822.8 1879.42   1
   0  -5  10 15431.0 1398.02   1
   0   5  -9 3822.15 823.794   1
   0  -5   8 29531.5 1535.64   1
   8  -5   0 28214.6 2814.57  -2
   0   5  -8 28214.6 2814.57   1
  -7   5   0 42723.1 1717.98  -2
   0  -5   7 42723.1 1717.98   1
   6  -5   0 35618.3 1227.91  -2
   0   5  -6 35618.3 1227.91   1
   5  -5   0 71531.0 1623.06  -2
   0   5  -5 71531.0 1623.06   1
   0   5  -4 49111.5 1279.00   1
   0  -5   3 7404.41 485.564   1
   0   5  -2 22535.3 707.478   1
   0   5  -1 77122.0 1147.89   1
   0   5   0 5431.22 434.500   1
   0  -5  -1 20199.6 439.252   1
   0  -5  -2 57394.0 1010.61   1
  -2  -5  -1 99204.1 1493.18  -2
   0   5   3 99204.1 1493.18   1
  -3  -5  -1 24865.1 710.926  -2
   0   5   4 24865.1 710.926   1
  -4  -5  -1 16915.8 555.110  -2
   0   5   5 16915.8 555.110   1
   0  -5  -6 56854.3 885.110   1
   0   5   7 13.8441 216.277   1
   0   5   8 7742.59 463.296   1
   0  -5  -9 13988.8 802.169   1
   0   5  10 21591.6 1252.81   1
   0   5  11 13151.5 1414.40   1
 -10  -5  -2 368.316 1172.68  -2
   0   5  12 368.316 1172.68   1
 -11  -5  -2 4080.05 1372.46  -2
   0   5  13 4080.05 1372.46   1
 -12  -5  -2 20000.1 3737.31  -2
   0   5  14 20000.1 3737.31   1
   0   6 -10 16776.9 1488.40   1
   0  -6   9 755.906 1383.81   1
   9  -6   0 18885.3 1972.81  -2
   0   6  -9 18885.3 1972.81   1
   8  -6   0 11274.3 1358.74  -2
   0   6  -8 11274.3 1358.74   1
  -7   6   0 11040.3 1182.84  -2
   0  -6   7 11040.3 1182.84   1
  -6   6   0 12968.2 875.880  -2
   0  -6   6 12968.2 875.880   1
   0   6  -5 344.228 425.561   1
   0  -6   4 2546.41 445.159   1
   0  -6   3 20584.6 802.223   1
   0  -6   2 2299.86 300.648   1
   0   6  -1 2163.87 260.162   1
   0  -6   0 20633.6 654.622   1
   0   6   1 5088.74 261.854   1
  -1  -6  -1 1563.05 336.708  -2
   0   6   2 1563.05 336.708   1
  -2  -6  -1 4081.19 493.420  -2
   0   6   3 4081.19 493.420   1
  -3  -6  -1 29396.9 966.167  -2
   0   6   4 29396.9 966.167   1
   0   6   5 16521.3 776.731   1
   0  -6  -6 11297.3 498.732   1
   0   6   7 30172.7 1109.39   1
   0   6   8 22874.9 1154.58   1
   0   6   9 1356.53 714.667   1
   0   6  10 15407.1 1171.94   1
   0  -6 -11 33468.8 2928.59   1
  -9  -6  -2 31646.4 2081.50  -2
   0   6  11 31646.4 2081.50   1
 -10  -6  -2 5041.31 1143.55  -2
   0   6  12 5041.31 1143.55   1
 -11  -6  -2 15704.6 1865.94  -2
   0   6  13 15704.6 1865.94   1
   9  -7   0 13109.9 1774.38  -2
   0   7  -9 13109.9 1774.38   1
   8  -7   0 13597.8 1694.67  -2
   0   7  -8 13597.8 1694.67   1
  -7   7   0 3254.63 796.372  -2
   0  -7   7 3254.63 796.372   1
   0  -7   6 12884.3 956.974   1
   0   7  -5 13333.4 876.952   1
   0  -7   4 816.649 414.331   1
   0  -7   3 13918.9 733.250   1
   0   7  -2 36740.6 888.161   1
   0   7  -1 13431.1 530.427   1
   0  -7   0 20088.5 806.044   1
   1  -7  -1 32870.7 2131.50  -2
   0   7   0 32870.7 2131.50   1
   0   7   1 91850.1 2385.34  -2
   0  -7  -1 91850.1 2385.34   1
  -1  -7  -1 31672.4 1166.21  -2
   0   7   2 31672.4 1166.21   1
   0   7   3 349.862 493.719   1
   2   7   1 1337.66 519.204  -2
   0  -7  -3 1337.66 519.204   1
   0  -7  -4 50193.0 1199.53   1
   0   7   5 67021.6 1582.93   1
   0   7   6 2376.75 458.400   1
   0   7   7 59126.6 1612.96   1
   0   7   8 18351.3 999.463   1
   0   7   9 15303.5 1397.12   1
   0  -7 -10 18064.2 2180.13   1
  -8  -7  -2 35832.1 3215.39  -2
   0   7  10 35832.1 3215.39   1
   9   7   2 50639.3 3183.95  -2
   0  -7 -11 50639.3 3183.95   1
 -10  -7  -2 14944.9 2277.10  -2
   0   7  12 14944.9 2277.10   1
  11   7   2 7378.90 2300.64  -2
   0  -7 -13 7378.90 2300.64   1
   8  -8   0 28854.6 2419.36  -2
   0   8  -8 28854.6 2419.36   1
   0  -8   7 836.431 965.884   1
   0   8  -6 17370.2 1333.63   1
   0   8  -5 39597.3 2260.39   1
   0  -8   4 4656.45 639.232   1
   0  -8   3 18193.7 929.082   1
   0   8  -2 101691. 1747.35   1
   0  -8   1 22554.4 1171.14   1
   2  -8  -1 23999.9 1303.27  -2
   0   8  -1 23999.9 1303.27   1
   1  -8  -1 6001.48 660.939  -2
   0   8   0 6001.48 660.939   1
   0  -8  -1 77863.3 2116.90  -2
   0   8   1 77863.3 2116.90   1
  -1  -8  -1 71361.9 1759.89  -2
   0   8   2 71361.9 1759.89   1
   0   8   3 311.589 448.149   1
   0   8   4 13044.2 703.332   1
   0  -8  -5 36556.8 1145.02   1
   0   8   6 20043.4 997.314   1
   0   8   7 8374.92 737.583   1
   0   8   8 19274.4 1064.92   1
   7   8   2 11662.1 1408.86  -2
   0  -8  -9 11662.1 1408.86   1
  -8  -8  -2 7008.78 1492.01  -2
   0   8  10 7008.78 1492.01   1
  -9  -8  -2 15465.3 2159.81  -2
   0   8  11 15465.3 2159.81   1
 -10  -8  -2 18408.0 1964.08  -2
   0   8  12 18408.0 1964.08   1
   0  -8 -13 3919.02 1614.51   1
   0  -9   7 231.681 1633.42   1
   0  -9   6 32189.6 1576.79   1
   0  -9   5 38374.2 1912.13   1
   0   9  -4 12844.1 983.868   1
   0   9  -3 340.982 615.355   1
   4  -9  -1 8294.17 1846.87  -2
   0   9  -3 8294.17 1846.87   1
   3  -9  -1 34731.5 1449.38  -2
   0   9  -2 34731.5 1449.38   1
   2  -9  -1 25786.6 1320.87  -2
   0   9  -1 25786.6 1320.87   1
  -1   9   1 6068.97 674.411  -2
   0  -9   0 6068.97 674.411   1
   0   9   1 6428.26 596.871   1
   0   9   1 8505.86 1724.67  -2
   0  -9  -1 8505.86 1724.67   1
   0   9   2 27859.2 1075.95   1
   0  -9  -3 4615.30 617.750   1
   0  -9  -4 5321.09 652.286   1
   0  -9  -5 383.311 496.858   1
   0  -9  -6 4482.19 621.797   1
   0   9   7 6940.48 722.365   1
   5   9   2 11285.2 1967.90  -2
   0  -9  -7 11285.2 1967.90   1
  -6  -9  -2 6091.16 869.036  -2
   0   9   8 6091.16 869.036   1
  -7  -9  -2 2202.79 864.968  -2
   0   9   9 2202.79 864.968   1
   8   9   2 18201.4 2128.33  -2
   0  -9 -10 18201.4 2128.33   1
   9   9   2 10506.0 1567.90  -2
   0  -9 -11 10506.0 1567.90   1
   0   9  12 579.426 1076.20   1
   0  10  -6 3429.17 1110.14   1
   0 -10   5 13203.8 1112.53   1
   0  10  -4 19587.3 2375.78   1
   5 -10  -1 13882.9 1670.09  -2
   0  10  -4 13882.9 1670.09   1
   4 -10  -1 2981.27 860.130  -2
   0  10  -3 2981.27 860.130   1
   3 -10  -1 1543.56 583.308  -2
   0  10  -2 1543.56 583.308   1
  -2  10   1 17457.7 1170.87  -2
   0 -10   1 17457.7 1170.87   1
   0  10   0 21283.6 1386.39   1
  -1  10   1 22478.7 1382.88  -2
   0 -10   0 22478.7 1382.88   1
   0  10   1 19659.6 913.612   1
   0  10   2 601.738 485.070   1
   0  10   3 25217.4 1278.99   1
   0  10   4 9060.64 831.561   1
   0 -10  -5 905.682 559.539   1
   0  10   6 8992.35 962.820   1
   4  10   2 9526.94 1874.36  -2
   0 -10  -6 9526.94 1874.36   1
   5  10   2 42766.7 1972.05  -2
   0 -10  -7 42766.7 1972.05   1
  -6 -10  -2 26230.9 1659.25  -2
   0  10   8 26230.9 1659.25   1
  -7 -10  -2 9166.29 1062.76  -2
   0  10   9 9166.29 1062.76   1
   0 -10 -10 20836.4 2571.21   1
   8  10   2 17737.8 1948.69  -2
   0 -10 -10 17737.8 1948.69   1
   0 -10 -11 12918.8 1325.26   1
   5 -11  -1 37135.6 3346.82  -2
   0  11  -4 37135.6 3346.82   1
  -4  11   1 27516.2 1872.91  -2
   0 -11   3 27516.2 1872.91   1
  -3  11   1 2490.08 830.526  -2
   0 -11   2 2490.08 830.526   1
   0  11  -1 13785.0 1550.81   1
   2 -11  -1 19699.9 1550.68  -2
   0  11  -1 19699.9 1550.68   1
   0  11   0 32136.0 1387.75   1
   0 -11  -1 21327.0 1124.73   1
   0  11   2 438.531 561.783   1
   0 -11  -3 48844.1 1640.69   1
   0  11   4 36942.3 1860.29   1
   2  11   2 41690.6 3596.25  -2
   0 -11  -4 41690.6 3596.25   1
   3  11   2 13254.8 1152.91  -2
   0 -11  -5 13254.8 1152.91   1
   4  11   2 24213.9 1716.31  -2
   0 -11  -6 24213.9 1716.31   1
   5  11   2 47299.6 2525.58  -2
   0 -11  -7 47299.6 2525.58   1
   6  11   2 28989.9 1751.49  -2
   0 -11  -8 28989.9 1751.49   1
   0  11   9 3168.34 839.389   1
   7  11   2 11163.0 2433.10  -2
   0 -11  -9 11163.0 2433.10   1
   0 -11 -10 24332.2 3117.43   1
   3 -12  -1 11442.7 2657.86  -2
   0  12  -2 11442.7 2657.86   1
   0 -12   1 16433.3 1491.87   1
   0 -12   0 52779.9 2522.90   1
   0  12   1 28427.6 1591.34   1
   0 -12  -2 524.077 576.738   1
   0 -12  -3 32256.9 1617.27   1
   1  12   2 37555.9 3652.13  -2
   0 -12  -3 37555.9 3652.13   1
  -2 -12  -2 59396.5 2062.77  -2
   0  12   4 59396.5 2062.77   1
  -3 -12  -2 11147.4 1274.74  -2
   0  12   5 11147.4 1274.74   1
   4  12   2 5453.13 1102.99  -2
   0 -12  -6 5453.13 1102.99   1
  -5 -12  -2 27602.7 1808.92  -2
   0  12   7 27602.7 1808.92   1
   0  12   8 22595.2 1700.73   1
   5  12   1 16881.6 3754.47  -2
   1 -12  -7 16881.6 3754.47   1
  -4 -12  -1 6633.72 1795.17  -2
  -1  12   6 6633.72 1795.17   1
   3  12   1 63526.5 2864.44  -2
   1 -12  -5 63526.5 2864.44   1
   1 -12  -4 41348.3 2711.07   1
   2  12   1 44576.3 3836.74  -2
   1 -12  -4 44576.3 3836.74   1
  -1  12   3 1452.64 697.051   1
   1 -12  -2 18589.9 1542.89   1
   1 -12  -1 44832.4 2318.75   1
   1 -12   0 41358.7 2245.56   1
   1 -12   1 1767.43 1504.14   1
   2 -12   0 3546.29 2099.54  -2
  -1  12  -1 3546.29 2099.54   1
   3 -12   0 40586.9 4133.51  -2
  -1  12  -2 40586.9 4133.51   1
   7  11   1 11943.6 3094.68  -2
   1 -11  -9 11943.6 3094.68   1
   6  11   1 62419.5 2950.95  -2
   1 -11  -8 62419.5 2950.95   1
   5  11   1 44327.3 2356.37  -2
   1 -11  -7 44327.3 2356.37   1
  -4 -11  -1 8539.20 1121.17  -2
  -1  11   6 8539.20 1121.17   1
  -1  11   5 21942.0 1559.00   1
   3  11   1 38762.8 3497.98  -2
   1 -11  -5 38762.8 3497.98   1
   1 -11  -4 109044. 2739.55   1
  -1  11   3 23227.2 1333.66   1
   1 -11  -2 6416.63 792.403   1
   1 -11  -1 40646.2 1738.60   1
  -1  11   0 31594.9 3249.02   1
   1 -11   0 41333.1 2048.91  -2
  -1  11   0 41333.1 2048.91   1
  -2  11   0 4525.27 999.299  -2
   1 -11   1 4525.27 999.299   1
  -3  11   0 16106.9 1646.17  -2
   1 -11   2 16106.9 1646.17   1
  -4  11   0 36891.2 2284.38  -2
   1 -11   3 36891.2 2284.38   1
  -5  11   0 17859.5 3131.19  -2
   1 -11   4 17859.5 3131.19   1
  -1  10  11 24743.3 3065.27   1
  -8 -10  -1 15167.6 2138.49  -2
  -1  10  10 15167.6 2138.49   1
   7  10   1 9088.59 2608.53  -2
   1 -10  -9 9088.59 2608.53   1
   6  10   1 46547.7 2148.41  -2
   1 -10  -8 46547.7 2148.41   1
   1 -10  -7 40357.9 1900.42   1
   5  10   1 45494.5 4167.05  -2
   1 -10  -7 45494.5 4167.05   1
  -1  10   6 1829.86 689.135   1
   4  10   1 5009.25 1683.44  -2
   1 -10  -6 5009.25 1683.44   1
   1 -10  -5 2413.41 566.350   1
   1 -10  -4 41947.2 1621.53   1
  -1  10   3 28406.1 1353.65   1
  -1  10   2 1235.08 562.982   1
  -1  10   1 10748.7 783.975   1
   0  10   0 17016.8 2438.98  -2
   1 -10  -1 17016.8 2438.98   1
  -1  10   0 33843.1 1515.14  -2
   1 -10   0 33843.1 1515.14   1
   2 -10   0 23942.4 1359.95  -2
  -1  10  -1 23942.4 1359.95   1
   3 -10   0 2438.18 708.669  -2
  -1  10  -2 2438.18 708.669   1
  -1  10  -3 7491.96 1224.96   1
  -4  10   0 8987.97 1433.14  -2
   1 -10   3 8987.97 1433.14   1
  -1  10  -4 13036.8 1235.22   1
  -1  10  -5 18877.8 2676.94   1
   9   9   1 27588.2 2854.23  -2
   1  -9 -11 27588.2 2854.23   1
   8   9   1 7109.71 1670.47  -2
   1  -9 -10 7109.71 1670.47   1
   7   9   1 3132.13 1206.82  -2
   1  -9  -9 3132.13 1206.82   1
  -1   9   8 7678.49 813.126   1
   1  -9  -7 34076.2 1414.58   1
   1  -9  -6 21561.1 1162.81   1
   1  -9  -5 1068.36 494.171   1
  -1   9   4 823.216 503.795   1
  -1   9   3 55138.0 1720.51   1
  -1   9   2 35384.9 1907.46   1
   1   9   0 42645.4 2247.26  -2
   1  -9  -2 42645.4 2247.26   1
   0   9   0 2752.46 713.639  -2
   1  -9  -1 2752.46 713.639   1
  -1   9   0 28022.2 1347.05  -2
   1  -9   0 28022.2 1347.05   1
   2  -9   0 63404.7 1843.33  -2
  -1   9  -1 63404.7 1843.33   1
   1  -9   2 31873.9 1246.00   1
  -1   9  -3 3019.07 573.824   1
  -1   9  -4 49658.5 1769.86   1
   1  -9   5 64620.6 2068.58   1
  -1   9  -6 1969.70 786.064   1
   1  -9   7 11720.0 2125.49   1
  10   8   1 10864.6 2028.11  -2
   1  -8 -12 10864.6 2028.11   1
   9   8   1 13618.4 2156.83  -2
   1  -8 -11 13618.4 2156.83   1
  -8  -8  -1 40408.8 2467.84  -2
  -1   8  10 40408.8 2467.84   1
  -1   8   9 27152.5 1930.40   1
  -1   8   8 5795.09 825.922   1
  -1   8   7 16782.9 987.301   1
  -1   8   6 70589.3 1822.12   1
  -1   8   5 23358.9 1052.41   1
  -1   8   4 394.623 380.315   1
   2   8   0 104133. 2140.69  -2
   1  -8  -3 104133. 2140.69   1
   1   8   0 133283. 2995.72  -2
   1  -8  -2 133283. 2995.72   1
   0   8   0 24775.7 1465.08  -2
   1  -8  -1 24775.7 1465.08   1
  -1   8   0 22666.8 1952.04   1
   1  -8   0 27553.4 1418.47  -2
  -1   8   0 27553.4 1418.47   1
   1  -8   1 122774. 1885.87   1
  -1   8  -2 50120.2 1414.72   1
  -1   8  -3 8.21114 453.672   1
  -1   8  -4 58832.8 1632.80   1
  -1   8  -5 68661.5 2353.28   1
   1  -8   6 31231.8 2141.99   1
   7  -8   1 7637.75 1525.60  -2
  -1   8  -7 7637.75 1525.60   1
   8  -8   1 25728.5 2795.69  -2
  -1   8  -8 25728.5 2795.69   1
  10   7   1 48821.4 3441.93  -2
   1  -7 -12 48821.4 3441.93   1
   1  -7 -11 5997.16 1643.31   1
  -9  -7  -1 29857.5 3130.64  -2
  -1   7  11 29857.5 3130.64   1
   1  -7 -10 20922.8 1794.92   1
   1  -7  -9 37780.5 2175.11   1
   1  -7  -8 32417.9 1513.45   1
   1  -7  -7 5404.75 618.495   1
  -1   7   6 110001. 2148.51   1
  -1   7   5 96916.2 1940.93   1
  -3  -7   0 9237.26 705.635  -2
  -1   7   4 9237.26 705.635   1
  -2  -7   0 50968.5 1586.17  -2
  -1   7   3 50968.5 1586.17   1
  -1  -7   0 112781. 1990.98  -2
  -1   7   2 112781. 1990.98   1
  -1   7   1 33611.7 1573.34   1
   0  -7   0 41276.5 1833.21  -2
  -1   7   1 41276.5 1833.21   1
   1  -7   0 14489.4 805.904   1
  -1   7  -1 105715. 1754.17   1
   1  -7   2 67398.9 1315.15   1
  -1   7  -3 10046.1 670.341   1
  -1   7  -4 16318.0 838.831   1
   1  -7   5 37873.3 1247.91   1
   6  -7   1 32195.9 1442.78  -2
  -1   7  -6 32195.9 1442.78   1
   7  -7   1 1606.51 909.827  -2
  -1   7  -7 1606.51 909.827   1
   8  -7   1 4542.65 1187.02  -2
  -1   7  -8 4542.65 1187.02   1
   9  -7   1 21173.6 1762.17  -2
  -1   7  -9 21173.6 1762.17   1
  11   6   1 12306.9 2733.96  -2
   1  -6 -13 12306.9 2733.96   1
   1  -6 -12 16907.2 2403.31   1
 -10  -6  -1 19700.0 2829.39  -2
  -1   6  12 19700.0 2829.39   1
   1  -6 -11 6554.85 1113.18   1
  -1   6  10 3784.08 742.457   1
  -1   6   9 36047.6 2049.77   1
   1  -6  -8 20300.9 1141.51   1
   1  -6  -7 657.875 351.032   1
  -1   6   6 16770.3 723.165   1
  -4  -6   0 66052.5 1330.12  -2
  -1   6   5 66052.5 1330.12   1
  -3  -6   0 6779.16 724.183  -2
  -1   6   4 6779.16 724.183   1
   2   6   0 39571.6 1203.78  -2
   1  -6  -3 39571.6 1203.78   1
  -1   6   2 71254.3 1251.02   1
  -1   6   1 26131.3 732.786   1
  -1   6   0 2699.30 260.713   1
  -1   6  -1 4556.61 474.664   1
   1  -6   2 58785.2 1124.26   1
  -1   6  -3 11808.6 581.899   1
  -1   6  -4 3778.13 489.613   1
  -1   6  -5 16390.1 1632.43   1
   5  -6   1 15218.5 1126.13  -2
  -1   6  -5 15218.5 1126.13   1
  -6   6  -1 53987.4 1926.33  -2
   1  -6   6 53987.4 1926.33   1
   7  -6   1 29868.0 1441.79  -2
  -1   6  -7 29868.0 1441.79   1
   1  -6   8-373.676 803.287   1
   8  -6   1 10144.3 2068.57  -2
  -1   6  -8 10144.3 2068.57   1
   1  -6   9 10937.6 1197.42   1
   1  -6  10 24303.4 1750.75   1
 -11  -5  -1 5205.59 2076.38  -2
  -1   5  13 5205.59 2076.38   1
  -1   5  12 6476.28 1193.31   1
  -1   5  11 9905.08 1221.63   1
  -1   5  10 461.325 601.064   1
   1  -5  -9 8235.08 731.136   1
   1  -5  -8 1478.94 314.294   1
  -1   5   7 6474.26 502.001   1
  -6  -5   0 7400.06 914.530  -2
  -1   5   7 7400.06 914.530   1
  -5  -5   0 11639.2 646.303  -2
  -1   5   6 11639.2 646.303   1
   4   5   0 25589.9 764.795  -2
   1  -5  -5 25589.9 764.795   1
  -1   5   4 39586.4 987.279   1
  -3  -5   0 48186.4 910.831  -2
  -1   5   4 48186.4 910.831   1
   1  -5  -3 18312.2 615.615   1
   1  -5  -2 4442.65 383.638   1
   1  -5  -1 62173.4 1036.73   1
   1  -5   0 78469.1 1058.67   1
  -1   5  -1 7068.05 490.844   1
   1  -5   2 57931.0 887.912   1
   1  -5   3 77207.6 1260.54   1
   4  -5   1 70654.7 1609.16  -2
  -1   5  -4 70654.7 1609.16   1
  -5   5  -1 16727.5 927.607  -2
   1  -5   5 16727.5 927.607   1
   6  -5   1 59465.3 1708.37  -2
  -1   5  -6 59465.3 1708.37   1
   1  -5   7 93414.7 2079.34   1
   7  -5   1 86045.4 4165.24  -2
  -1   5  -7 86045.4 4165.24   1
  -1   5  -8 3060.68 699.714   1
   1  -5   9 22829.3 1531.23   1
   1  -5  10 73294.0 2747.56   1
  -1   5 -11 24630.0 1750.81   1
  -1   4  14 6794.63 1945.96   1
  -1   4  13 5264.20 963.045   1
   1  -4 -12 2726.45 777.374   1
   1  -4 -11 5190.82 808.187   1
  -1   4  10 25043.8 1381.43   1
  -1   4   9 11428.5 765.880   1
   7   4   0 17603.3 882.834  -2
   1  -4  -8 17603.3 882.834   1
  -6  -4   0 32005.4 1052.32  -2
  -1   4   7 32005.4 1052.32   1
  -5  -4   0 18404.2 777.375  -2
  -1   4   6 18404.2 777.375   1
   1  -4  -5 5830.73 639.669   1
  -4  -4   0 37273.2 758.358  -2
  -1   4   5 37273.2 758.358   1
   1  -4  -4 59074.9 764.237   1
  -1   4   3 174274. 1143.47   1
  -1   4   2 39426.7 781.683   1
  -1   4   1 44556.8 875.464   1
   1  -4   0 168457. 1428.28   1
   1  -4   1 133965. 1150.93   1
   1  -4   2 216.523 153.568   1
   1  -4   3 248863. 2234.33   1
  -3   4  -1 262230. 2288.46  -2
   1  -4   3 262230. 2288.46   1
  -4   4  -1 59517.7 1246.17  -2
   1  -4   4 59517.7 1246.17   1
  -1   4  -5 2002.87 613.666   1
  -5   4  -1 13444.7 860.988  -2
   1  -4   5 13444.7 860.988   1
   1  -4   6 18043.3 721.852   1
   1  -4   7 71089.2 1698.92   1
  -1   4  -8 22998.4 1127.60   1
  -1   4  -9 4308.15 797.503   1
  -1   4 -10 32285.1 1802.59   1
   1  -4  11 40086.7 2097.90   1
  11  -4   2 2907.73 2087.24  -2
  -1   4 -12 2907.73 2087.24   1
   1  -3 -14 10280.8 1560.08   1
  -1   3  13 26919.8 1752.50   1
  -1   3  12 16277.1 1315.69   1
  -1   3  11 616.462 615.957   1
  -1   3  10 39801.7 1413.56   1
  -8  -3   0 66751.9 1685.44  -2
  -1   3   9 66751.9 1685.44   1
  -7  -3   0 21889.0 1224.19  -2
  -1   3   8 21889.0 1224.19   1
  -6  -3   0 64404.6 1510.92  -2
  -1   3   7 64404.6 1510.92   1
  -5  -3   0 111261. 1397.01  -2
  -1   3   6 111261. 1397.01   1
   1  -3  -5 13857.0 502.739   1
   1  -3  -4 21274.3 465.407   1
   1  -3  -3 51967.7 587.229   1
   1  -3  -2 45028.4 647.248   1
   1  -3  -1 5133.10 292.292   1
  -1   3   0 17916.3 487.363   1
  -1   3  -1 43345.2 1015.96   1
   1  -3   2 56307.1 1917.92   1
   2  -3   1 71837.1 1084.33  -2
  -1   3  -2 71837.1 1084.33   1
   3  -3   1 29335.1 717.163  -2
  -1   3  -3 29335.1 717.163   1
   1  -3   4 28936.3 711.890   1
  -4   3  -1 36966.3 1978.37  -2
   1  -3   4 36966.3 1978.37   1
  -1   3  -5 8672.66 369.400   1
  -1   3  -6 7657.79 367.794   1
   1  -3   7 12876.8 625.694   1
  -1   3  -8 10605.0 578.028   1
  -1   3  -9 5707.93 779.518   1
   1  -3  10 274.862 663.989   1
 -10   3  -2 13674.2 1343.59  -2
   1  -3  11 13674.2 1343.59   1
  11  -3   2 17229.9 1901.76  -2
  -1   3 -12 17229.9 1901.76   1
   1  -2 -13 34637.8 1917.24   1
  -1   2  12 10394.2 1122.39   1
   1  -2 -11 516.893 560.553   1
   9   2   0 21668.7 1130.74  -2
   1  -2 -10 21668.7 1130.74   1
  -8  -2   0 39082.5 1752.13  -2
  -1   2   9 39082.5 1752.13   1
   7   2   0 24632.7 1241.78  -2
   1  -2  -8 24632.7 1241.78   1
   1  -2  -7 747.205 457.546   1
  -6  -2   0 13364.2 1024.82  -2
  -1   2   7 13364.2 1024.82   1
  -1   2   6 38714.7 809.389   1
   1  -2  -5 7576.13 375.215   1
  -1   2   4 4997.05 303.029   1
   1  -2  -3 12503.0 392.217   1
   1  -2  -2 88818.3 743.768   1
   1  -2  -1 350.682 141.298   1
  -1   2   0 8054.78 326.209   1
  -1   2  -1 190516. 1558.64  -2
   1  -2   1 190516. 1558.64   1
   1  -2   2 1700.38 196.022   1
  -2   2  -1 4161.41 282.900  -2
   1  -2   2 4161.41 282.900   1
   1  -2   3 79705.6 813.101   1
   1  -2   4 9756.18 321.575   1
  -1   2  -5 15103.3 416.859   1
   1  -2   6 18753.6 485.269   1
   1  -2   7 3866.35 343.075   1
   1  -2   8 14077.8 681.789   1
   1  -2   9 19711.9 883.184   1
  -1   2 -10 2441.63 1144.27   1
  -9   2  -2 8500.77 989.785  -2
   1  -2  10 8500.77 989.785   1
  10  -2   2 17273.9 1771.12  -2
  -1   2 -11 17273.9 1771.12   1
  11  -2   2 22105.1 2062.05  -2
  -1   2 -12 22105.1 2062.05   1
  12  -2   2 18250.9 2814.75  -2
  -1   2 -13 18250.9 2814.75   1
  -1   1  13 12402.6 1322.37   1
   1  -1 -12 24054.2 1354.79   1
 -10  -1   0 16874.9 1218.27  -2
  -1   1  11 16874.9 1218.27   1
   9   1   0 4505.16 838.097  -2
   1  -1 -10 4505.16 838.097   1
   8   1   0 25256.1 1327.65  -2
   1  -1  -9 25256.1 1327.65   1
   1  -1  -8 17774.9 1238.15   1
  -7  -1   0 20340.5 1356.19  -2
  -1   1   8 20340.5 1356.19   1
  -1   1   7 14707.0 745.745   1
  -1   1   6 3887.99 223.448   1
  -1   1   5 53953.2 809.354   1
  -1   1   4 115217. 1141.40   1
  -1   1   3 77976.8 1056.46   1
  -1   1   2 1129.54 175.610   1
  -1   1   1 287831. 1167.44   1
   0   1  -1 2881.04 505.936  -2
   1  -1   0 2881.04 505.936   1
  -1   1  -1 55448.3 707.260   1
   1  -1   1 80707.2 990.922  -2
  -1   1  -1 80707.2 990.922   1
  -1   1  -2 18494.9 339.144   1
  -1   1  -3 108938. 771.895   1
   1  -1   4 13560.2 286.904   1
  -1   1  -5 22872.0 375.233   1
   1  -1   6 79996.1 858.561   1
   1  -1   7 15986.1 660.040   1
   1  -1   8 12365.4 640.905   1
  -8   1  -2 47838.8 1233.53  -2
   1  -1   9 47838.8 1233.53   1
  -9   1  -2 47650.6 2140.29  -2
   1  -1  10 47650.6 2140.29   1
 -10   1  -2 28611.6 1780.31  -2
   1  -1  11 28611.6 1780.31   1
  -1   1 -12 18150.0 1784.12   1
  11  -1   2 31960.2 2996.38  -2
  -1   1 -12 31960.2 2996.38   1
  -1   1 -13 8580.92 1465.16   1
   1   0 -13-314.986 864.796   1
 -12   0   0 113.070 1950.34  -2
  -1   0  13 113.070 1950.34   1
  11   0   0 33477.7 1811.09  -2
   1   0 -12 33477.7 1811.09   1
  10   0   0 51968.8 2203.02  -2
   1   0 -11 51968.8 2203.02   1
  -9   0   0 32227.1 1525.65  -2
  -1   0  10 32227.1 1525.65   1
   1   0  -9 15338.1 1064.92   1
  -8   0   0 25920.0 2227.81  -2
  -1   0   9 25920.0 2227.81   1
  -1   0   8 122364. 1848.22   1
   1   0  -7 105054. 1587.20   1
   1   0  -6 4704.70 366.844   1
   1   0  -5 119211. 1402.87   1
  -1   0   4 149294. 1392.35   1
  -1   0   3 143776. 982.962   1
   2   0  -1 5139.78 271.944  -2
   1   0  -2 5139.78 271.944   1
  -1   0   1 776324. 20824.9  -2
  -1   0   1 776324. 20824.9   1
   1   0   2 204680. 1038.51   1
   1   0   3 298093. 1340.76   1
   1   0   4 12147.8 396.232   1
  -1   0  -5 51106.8 680.295   1
  -1   0  -6 92373.0 956.894   1
   1   0   7 19755.1 718.502   1
   7   0   2 17705.1 799.913  -2
  -1   0  -8 17705.1 799.913   1
   8   0   2 11279.1 772.936  -2
  -1   0  -9 11279.1 772.936   1
  -9   0  -2 23439.0 1109.87  -2
   1   0  10 23439.0 1109.87   1
  -1   0 -11 3054.62 680.650   1
 -10   0  -2 11462.7 1988.23  -2
   1   0  11 11462.7 1988.23   1
  -1   0 -12 1268.82 623.587   1
   1   0  13 8665.76 1093.27   1
  12  -1   0 2419.84 2032.13  -2
   1   1 -13 2419.84 2032.13   1
  11  -1   0 18254.6 1928.39  -2
   1   1 -12 18254.6 1928.39   1
  10  -1   0 62566.5 2143.34  -2
   1   1 -11 62566.5 2143.34   1
  -1  -1  10 70343.2 2353.83   1
  -9   1   0 75285.3 3793.73  -2
  -1  -1  10 75285.3 3793.73   1
  -1  -1   9 153.692 475.065   1
  -1  -1   8 106994. 2148.64   1
  -1  -1   7 155406. 1952.83   1
  -1  -1   6 66263.8 1180.07   1
  -1  -1   5 63512.2 1047.17   1
   1   1  -4 245796. 1677.05   1
  -3   1   1 114523. 862.166  -2
  -1  -1   3 114523. 862.166   1
   2  -1  -1 32770.2 491.595  -2
   1   1  -2 32770.2 491.595   1
  -1  -1   1 82643.6 708.442   1
   1   1   2 34198.5 462.419   1
   1   1   3 100236. 763.800   1
   1   1   4 128874. 1150.15   1
  -1  -1  -5 40679.2 745.837   1
   1   1   6 18980.8 493.851   1
  -6  -1  -2 64462.5 1078.10  -2
   1   1   7 64462.5 1078.10   1
  -7  -1  -2 37274.7 1182.61  -2
   1   1   8 37274.7 1182.61   1
   8   1   2 17450.3 789.904  -2
  -1  -1  -9 17450.3 789.904   1
  -1  -1 -10 1640.90 405.200   1
  -9  -1  -2 1306.58 1138.30  -2
   1   1  10 1306.58 1138.30   1
   1   1  11 21597.2 1141.64   1
   1   1  12 13689.7 1219.48   1
  -1  -1 -13 1549.01 789.992   1
   1   1  14 3296.87 1106.34   1
   1   2 -12 4378.39 1705.65   1
  11  -2   0 6374.56 1465.14  -2
   1   2 -12 6374.56 1465.14   1
   1   2 -11 52834.0 2272.31   1
   1   2 -10 35274.0 1485.02   1
   1   2  -9 7035.75 698.406   1
   1   2  -8 9747.09 744.216   1
  -1  -2   7 58192.4 1518.18   1
  -1  -2   6 47845.1 954.440   1
   1   2  -5 637.170 183.314   1
  -5   2   1 4003.29 553.783  -2
  -1  -2   5 4003.29 553.783   1
   4  -2  -1 98137.3 1182.34  -2
   1   2  -4 98137.3 1182.34   1
  -3   2   1 154894. 1266.09  -2
  -1  -2   3 154894. 1266.09   1
  -1  -2   2 94284.8 992.542   1
  -1  -2   1 3765.22 281.642   1
  -1  -2   0 161173. 856.510   1
  -1  -2  -1 123495. 762.833   1
   1   2   2 70798.5 772.679   1
  -1  -2  -3 2274.87 145.899   1
   1   2   4 198693. 1246.48   1
   1   2   5 162406. 1422.55   1
  -4  -2  -2 201833. 2760.06  -2
   1   2   5 201833. 2760.06   1
  -5  -2  -2 124233. 1433.52  -2
   1   2   6 124233. 1433.52   1
   6   2   2 32611.0 1055.25  -2
  -1  -2  -7 32611.0 1055.25   1
   7   2   2 112287. 1448.38  -2
  -1  -2  -8 112287. 1448.38   1
  -1  -2  -9 27075.7 811.046   1
   1   2  10 266.658 354.459   1
  -1  -2 -11 30125.4 1318.94   1
   1   2  12 33548.1 1761.56   1
   1   2  13 3841.70 875.989   1
  -1  -2 -14 6807.57 1416.21   1
 -12  -2  -3 12115.9 2331.67  -2
   1   2  14 12115.9 2331.67   1
  -1  -3  12 211.870 1025.00   1
  -1  -3  11 8518.73 1147.11   1
   1   3 -10 16883.5 1371.69   1
  -1  -3   9 11933.3 1075.93   1
  -1  -3   8 54.0987 450.265   1
  -1  -3   7 33615.3 1062.77   1
  -1  -3   6 41385.6 1529.83   1
  -6   3   1 55492.5 1354.08  -2
  -1  -3   6 55492.5 1354.08   1
  -5   3   1 78601.6 1400.32  -2
  -1  -3   5 78601.6 1400.32   1
  -4   3   1 16708.3 474.419  -2
  -1  -3   4 16708.3 474.419   1
  -1  -3   3 76481.7 1050.01   1
  -1  -3   2 220194. 1565.84   1
  -1  -3   1 51771.2 743.390   1
  -1  -3   0 58600.4 598.545   1
   1   3   1 500162. 1987.60   1
   1   3   2 497179. 2124.60   1
   1   3   3 12988.5 440.571   1
   1   3   4 112299. 1015.71   1
  -4  -3  -2 221302. 2055.90  -2
   1   3   5 221302. 2055.90   1
  -5  -3  -2 132783. 1708.30  -2
   1   3   6 132783. 1708.30   1
   1   3   7 15268.8 827.229   1
  -6  -3  -2 30534.8 806.750  -2
   1   3   7 30534.8 806.750   1
   1   3   8 168988. 1907.47   1
  -1  -3  -9 86404.4 1493.41   1
   1   3  10 815.530 470.392   1
   1   3  11 18372.5 1239.45   1
  -1  -3 -12 53262.6 2170.52   1
  -1  -3 -13 11983.9 1276.47   1
 -12  -3  -3 17686.1 1676.03  -2
   1   3  14 17686.1 1676.03   1
   1   4 -11-956.041 881.375   1
   1   4 -10 25995.3 1697.74   1
   1   4  -9 33975.4 1795.26   1
  -1  -4   8 11284.4 878.976   1
  -7   4   1 18777.0 1074.40  -2
  -1  -4   7 18777.0 1074.40   1
   6  -4  -1 116885. 2996.14  -2
   1   4  -6 116885. 2996.14   1
   5  -4  -1 128687. 1629.00  -2
   1   4  -5 128687. 1629.00   1
  -1  -4   4 905.615 218.149   1
   1   4  -3 85932.5 1114.68   1
  -1  -4   2 273068. 1649.98   1
   1   4  -1 169965. 1485.66   1
   1   4   0 8654.33 275.806   1
  -1  -4  -1 191749. 1148.72   1
   1   4   2 294526. 1847.03   1
   1   4   3 24861.9 711.002   1
  -2  -4  -2 58537.1 2197.41  -2
   1   4   3 58537.1 2197.41   1
  -3  -4  -2 94958.2 1388.23  -2
   1   4   4 94958.2 1388.23   1
   4   4   2 340712. 1982.83  -2
  -1  -4  -5 340712. 1982.83   1
   1   4   6 45878.1 713.089   1
  -1  -4  -7 7614.38 357.287   1
  -1  -4  -8 47060.7 1009.23   1
  -1  -4  -9 81203.8 1664.75   1
  -1  -4 -10 11397.9 810.502   1
  -1  -4 -11 1839.29 645.987   1
   1   4  12 25529.0 1860.07   1
 -10  -4  -3 21655.5 2702.11  -2
   1   4  12 21655.5 2702.11   1
 -11  -4  -3 29872.8 1982.47  -2
   1   4  13 29872.8 1982.47   1
 -12  -4  -3 8627.73 1947.04  -2
   1   4  14 8627.73 1947.04   1
  -1  -5  10 10559.2 1259.61   1
  -1  -5   9 66672.5 3130.05   1
  -9   5   1 67042.2 2854.01  -2
  -1  -5   9 67042.2 2854.01   1
  -8   5   1 32487.9 1637.29  -2
  -1  -5   8 32487.9 1637.29   1
  -7   5   1 13273.3 1136.26  -2
  -1  -5   7 13273.3 1136.26   1
   6  -5  -1 101465. 2299.34  -2
   1   5  -6 101465. 2299.34   1
  -1  -5   5 83030.2 1745.50   1
   1   5  -4 47457.8 1281.65   1
   1   5  -3 58660.6 1352.65   1
  -1  -5   2 132234. 1525.61   1
  -1  -5   1 115969. 1356.98   1
  -1  -5   0 2562.91 254.657   1
   1   5   1 47238.0 622.764   1
   1   5   2 93051.9 2315.73   1
  -1  -5  -2 111847. 1414.05  -2
   1   5   2 111847. 1414.05   1
   2   5   2 89891.2 1349.06  -2
  -1  -5  -3 89891.2 1349.06   1
   1   5   4 6308.80 903.134   1
   3   5   2 2944.85 226.007  -2
  -1  -5  -4 2944.85 226.007   1
  -1  -5  -5 73878.8 1048.98   1
  -1  -5  -6 35445.2 681.871   1
  -1  -5  -7 36501.8 910.895   1
  -1  -5  -8 3743.30 354.009   1
   1   5   9 49554.7 1311.12   1
   1   5  10 46016.0 1477.34   1
  -9  -5  -3 22160.2 1771.04  -2
   1   5  11 22160.2 1771.04   1
 -10  -5  -3 5171.50 1320.56  -2
   1   5  12 5171.50 1320.56   1
 -11  -5  -3 23535.6 2219.10  -2
   1   5  13 23535.6 2219.10   1
 -12  -5  -3 44651.0 4658.72  -2
   1   5  14 44651.0 4658.72   1
   1   6 -10-152.130 1560.57   1
  10  -6  -1 1505.06 2120.71  -2
   1   6 -10 1505.06 2120.71   1
   9  -6  -1 26292.1 2084.88  -2
   1   6  -9 26292.1 2084.88   1
  -8   6   1 21562.8 1551.76  -2
  -1  -6   8 21562.8 1551.76   1
   7  -6  -1 3766.42 794.742  -2
   1   6  -7 3766.42 794.742   1
   1   6  -6 7148.74 811.480   1
   1   6  -5 36351.8 1262.85   1
  -1  -6   4 44167.3 1332.39   1
   1   6  -3 102.802 355.077   1
  -1  -6   2 6952.79 421.539   1
  -1  -6   1 28239.0 701.560   1
   1   6   0 34126.3 717.684   1
   0   6   2 4838.65 286.656  -2
  -1  -6  -1 4838.65 286.656   1
   1   6   2 22631.9 795.207  -2
  -1  -6  -2 22631.9 795.207   1
   1   6   3 82650.2 1719.47   1
   2   6   2 100536. 2413.65  -2
  -1  -6  -3 100536. 2413.65   1
   1   6   4 45642.5 967.971   1
   1   6   5 896.938 299.827   1
   1   6   6 87130.6 1570.32   1
   1   6   7 41045.3 1002.62   1
  -1  -6  -8 24456.9 895.892   1
  -1  -6  -9 9146.79 1053.61   1
  -1  -6 -10 88742.4 4229.95   1
  -8  -6  -3 81234.7 4371.56  -2
   1   6  10 81234.7 4371.56   1
  -9  -6  -3 53962.5 2430.61  -2
   1   6  11 53962.5 2430.61   1
 -10  -6  -3 4404.63 1018.18  -2
   1   6  12 4404.63 1018.18   1
 -11  -6  -3 18465.7 1674.33  -2
   1   6  13 18465.7 1674.33   1
   1   6  14 38462.9 2523.93   1
   9  -7  -1 10196.8 1624.69  -2
   1   7  -9 10196.8 1624.69   1
   8  -7  -1 15453.6 1258.43  -2
   1   7  -8 15453.6 1258.43   1
   1   7  -7 8953.60 879.416   1
  -1  -7   6 10621.9 1027.10   1
  -1  -7   5 391.855 579.365   1
  -1  -7   4 11480.1 792.952   1
  -1  -7   3 42543.7 1357.20   1
  -1  -7   2 2784.44 354.311   1
   1   7  -1 26198.5 914.606   1
   2  -7  -2 55024.5 1698.56  -2
   1   7  -1 55024.5 1698.56   1
  -1   7   2 108787. 2021.18  -2
  -1  -7   0 108787. 2021.18   1
   0  -7  -2 35893.3 1233.55  -2
   1   7   1 35893.3 1233.55   1
   1   7   2 7209.03 1243.51   1
  -1  -7  -2 8469.61 626.019  -2
   1   7   2 8469.61 626.019   1
   1   7   3 82223.4 1284.77   1
   1   7   4 95636.3 1627.29   1
   1   7   5 2765.92 414.346   1
   1   7   6 96722.1 1935.97   1
   1   7   7 116769. 2216.11   1
   1   7   8 43261.0 1424.34   1
  -1  -7  -9 4981.24 1233.53   1
  -7  -7  -3 15581.4 1339.62  -2
   1   7   9 15581.4 1339.62   1
   8   7   3 80198.2 3633.22  -2
  -1  -7 -10 80198.2 3633.22   1
  -9  -7  -3 47423.1 3310.87  -2
   1   7  11 47423.1 3310.87   1
 -10  -7  -3 8201.63 1533.87  -2
   1   7  12 8201.63 1533.87   1
  -1  -7 -13 21086.7 1988.60   1
  -1  -7 -14 24222.7 3115.16   1
  -1  -8   8-380.264 1024.43   1
  -1  -8   7 11070.3 1173.43   1
   1   8  -6 12741.1 1185.84   1
   1   8  -5 1972.62 752.934   1
   1   8  -4 11604.6 1010.55   1
   1   8  -3 70172.8 1921.40   1
   3  -8  -2 12011.7 831.564  -2
   1   8  -2 12011.7 831.564   1
  -2   8   2 42091.0 1510.92  -2
  -1  -8   1 42091.0 1510.92   1
  -1   8   2 108866. 2244.90  -2
  -1  -8   0 108866. 2244.90   1
   1   8   1 62262.5 1601.63   1
   0   8   2 75390.6 2534.44  -2
  -1  -8  -1 75390.6 2534.44   1
   1   8   2 13969.4 669.365   1
   1   8   3 56598.0 1346.24   1
   1   8   4 99355.0 1754.59   1
  -1  -8  -5 17452.9 818.343   1
   1   8   6 8630.94 632.735   1
   1   8   7 77603.0 1723.02   1
  -1  -8  -8 25052.3 2334.40   1
  -6  -8  -3 33209.5 1564.23  -2
   1   8   8 33209.5 1564.23   1
  -7  -8  -3 4000.45 797.847  -2
   1   8   9 4000.45 797.847   1
  -8  -8  -3 22196.5 2298.81  -2
   1   8  10 22196.5 2298.81   1
  -9  -8  -3 43881.8 2508.57  -2
   1   8  11 43881.8 2508.57   1
  -1  -8 -12 17893.5 1806.21   1
  -1  -8 -13 4037.80 1650.32   1
  -1  -9   7 19007.1 2730.90   1
  -1  -9   6 9686.14 1118.56   1
   1   9  -5 1488.09 757.722   1
   1   9  -4 4152.53 759.380   1
   5  -9  -2 19508.9 2568.53  -2
   1   9  -4 19508.9 2568.53   1
   4  -9  -2 21329.2 1318.29  -2
   1   9  -3 21329.2 1318.29   1
   3  -9  -2 19558.3 1357.94  -2
   1   9  -2 19558.3 1357.94   1
   2  -9  -2 2301.77 565.927  -2
   1   9  -1 2301.77 565.927   1
   1   9   0 16491.8 1147.87   1
  -1   9   2 27148.1 1366.77  -2
  -1  -9   0 27148.1 1366.77   1
   1   9   1 32240.5 1049.58   1
   1   9   2 5657.99 506.898   1
  -1  -9  -3 1750.41 438.978   1
   1   9   4 19168.1 1055.37   1
  -1  -9  -5 10115.8 819.218   1
   1   9   6 2644.73 500.648   1
   4   9   3 6905.20 1554.41  -2
  -1  -9  -6 6905.20 1554.41   1
  -5  -9  -3 2806.48 619.454  -2
   1   9   7 2806.48 619.454   1
   6   9   3 12502.5 1034.77  -2
  -1  -9  -8 12502.5 1034.77   1
  -7  -9  -3 17294.5 1244.58  -2
   1   9   9 17294.5 1244.58   1
  -8  -9  -3 4506.02 1212.40  -2
   1   9  10 4506.02 1212.40   1
   1   9  11 5192.26 1113.63   1
   1   9  12 16169.1 2493.01   1
  -1 -10   6 5910.71 1206.47   1
   1  10  -5 3572.87 1411.51   1
  -6  10   2 4829.83 1442.14  -2
  -1 -10   5 4829.83 1442.14   1
  -5  10   2 6199.26 1146.47  -2
  -1 -10   4 6199.26 1146.47   1
   4 -10  -2 6277.93 986.244  -2
   1  10  -3 6277.93 986.244   1
   3 -10  -2 2793.10 714.289  -2
   1  10  -2 2793.10 714.289   1
   1  10  -1 4100.66 669.779   1
   2 -10  -2 3829.69 1623.29  -2
   1  10  -1 3829.69 1623.29   1
   1  10   0 4774.78 538.401   1
  -1 -10  -1 744.281 426.092   1
   1  10   2 22543.5 1075.69   1
  -1 -10  -3 8766.43 726.201   1
  -1 -10  -4 7890.60 719.099   1
   1  10   5 10879.0 1051.99   1
   3  10   3 15260.5 2220.27  -2
  -1 -10  -5 15260.5 2220.27   1
   4  10   3 28608.2 1607.94  -2
  -1 -10  -6 28608.2 1607.94   1
   5  10   3 12744.2 1179.73  -2
  -1 -10  -7 12744.2 1179.73   1
   6  10   3 11604.6 1201.18  -2
  -1 -10  -8 11604.6 1201.18   1
  -1 -10  -9 20262.8 1789.89   1
  -7 -10  -3 19774.4 1545.62  -2
   1  10   9 19774.4 1545.62   1
  -1 -10 -10 10281.9 1141.52   1
   1  10  11 1318.44 1038.40   1
  -1 -10 -12 14929.4 2576.06   1
   5 -11  -2 15918.5 1739.34  -2
   1  11  -4 15918.5 1739.34   1
  -4  11   2 6671.35 1082.58  -2
  -1 -11   3 6671.35 1082.58   1
  -1 -11   2 1471.82 781.955   1
   3 -11  -2 8211.98 1784.90  -2
   1  11  -2 8211.98 1784.90   1
   1  11  -1 23123.8 1228.43   1
   1  11   0 15507.8 1171.74   1
   1  11   1 606.472 533.719   1
   1  11   2 7857.49 781.404   1
   1  11   3 12727.8 906.342   1
   2  11   3 9784.26 946.986  -2
  -1 -11  -4 9784.26 946.986   1
   3  11   3 10279.0 1098.47  -2
  -1 -11  -5 10279.0 1098.47   1
   4  11   3 30922.8 2028.90  -2
  -1 -11  -6 30922.8 2028.90   1
  -5 -11  -3 16816.2 1361.53  -2
   1  11   7 16816.2 1361.53   1
  -1 -11  -8 609.801 772.033   1
   6  11   3 5651.36 2074.44  -2
  -1 -11  -8 5651.36 2074.44   1
   1  11   9 28812.3 1812.60   1
  -1 -11 -10 7356.31 1853.45   1
   1  12  -2 2393.21 1110.94   1
  -1 -12   1 14933.1 1239.69   1
  -1 -12   0 29953.8 1619.72   1
   1  12   1 712.525 707.768   1
   1  12   2 12894.6 989.908   1
   1  12   3 35426.8 1571.20  -2
  -1 -12  -3 35426.8 1571.20   1
  -2 -12  -3 44.4192 797.201  -2
   1  12   4 44.4192 797.201   1
  -3 -12  -3 537.613 826.420  -2
   1  12   5 537.613 826.420   1
  -4 -12  -3 9710.60 1029.85  -2
   1  12   6 9710.60 1029.85   1
   1  12   7 3105.77 846.536   1
   5  12   3 5648.63 2200.11  -2
  -1 -12  -7 5648.63 2200.11   1
   1  12   8 1330.30 1042.46   1
   1  12   9 3453.18 1642.19   1
   0  13   3 1371.99 1588.90  -2
  -1 -13  -2 1371.99 1588.90   1
  -1 -13  -3 10869.7 1635.56  -2
   1  13   3 10869.7 1635.56   1
  -2 -13  -3 6127.70 1696.73  -2
   1  13   4 6127.70 1696.73   1
  -3 -13  -3 3235.10 2104.72  -2
   1  13   5 3235.10 2104.72   1
   2 -12  -5 22643.4 2999.45   1
   2 -12  -4 1559.19 1104.73   1
   2 -12  -3 5160.00 1027.60   1
   2 -12  -2 17219.3 1825.96   1
   2 -12  -1 17025.2 1816.66   1
  -1  12  -1 1684.03 1981.19  -2
   2 -12   0 1684.03 1981.19   1
  -2  12  -1 29165.2 2737.65  -2
   2 -12   1 29165.2 2737.65   1
  -6 -11   0 43385.4 3276.23  -2
  -2  11   8 43385.4 3276.23   1
  -5 -11   0 4040.69 1273.24  -2
  -2  11   7 4040.69 1273.24   1
   2 -11  -6 1766.68 801.279   1
   2 -11  -5 44726.7 2206.28   1
   2 -11  -4 18539.4 1490.87   1
   2 -11  -3 4362.11 889.831   1
  -2  11   2 19252.3 1506.38   1
  -2  11   1 13551.1 2312.64   1
   0  11  -1 16438.9 1772.77  -2
   2 -11  -1 16438.9 1772.77   1
  -1  11  -1 3916.15 913.679  -2
   2 -11   0 3916.15 913.679   1
   2 -11   1 8261.14 1298.03  -2
  -2  11  -1 8261.14 1298.03   1
   3 -11   1 28679.4 2021.79  -2
  -2  11  -2 28679.4 2021.79   1
  -2  11  -3 2860.30 1455.62   1
  -4  11  -1 8174.52 1687.69  -2
   2 -11   3 8174.52 1687.69   1
  -8 -10   0 13987.3 3053.14  -2
  -2  10  10 13987.3 3053.14   1
   7  10   0 9643.32 2532.38  -2
   2 -10  -9 9643.32 2532.38   1
   2 -10  -8 21773.3 2724.81   1
  -6 -10   0 23162.6 2643.93  -2
  -2  10   8 23162.6 2643.93   1
  -2  10   7 10943.1 1466.84   1
  -2  10   6 637.532 739.054   1
   2 -10  -5 6737.23 969.008   1
  -2  10   4 28335.3 1649.75   1
   2 -10  -3 3687.30 798.842   1
  -2  10   2 1416.79 1360.78   1
   1  10  -1 3152.43 1166.65  -2
   2 -10  -2 3152.43 1166.65   1
   0 -10   1 13333.8 1409.24  -2
  -2  10   1 13333.8 1409.24   1
  -1  10  -1 12358.1 1242.75  -2
   2 -10   0 12358.1 1242.75   1
  -2  10  -1 4151.18 874.944  -2
   2 -10   1 4151.18 874.944   1
  -2  10  -2 1668.04 1151.13   1
   3 -10   1 2161.24 980.325  -2
  -2  10  -2 2161.24 980.325   1
  -2  10  -3 9426.07 921.355   1
  -2  10  -4 16351.2 1397.46   1
  -2  10  -5 685.835 1375.56   1
  -9  -9   0 8804.55 2712.76  -2
  -2   9  11 8804.55 2712.76   1
   8   9   0 13519.6 1809.93  -2
   2  -9 -10 13519.6 1809.93   1
   2  -9  -9-0.30037 969.382   1
   2  -9  -8 9406.59 1014.10   1
   2  -9  -7 27503.2 1554.06   1
  -2   9   6 7209.78 863.883   1
   2  -9  -5 9481.96 950.642   1
  -2   9   4 16645.1 1010.27   1
  -2   9   3 46153.7 2782.90   1
   2   9  -1 54066.2 2061.35  -2
   2  -9  -3 54066.2 2061.35   1
   1   9  -1 7374.32 937.046  -2
   2  -9  -2 7374.32 937.046   1
   0   9  -1 12093.4 1200.70  -2
   2  -9  -1 12093.4 1200.70   1
   1  -9   1 64725.1 2001.07  -2
  -2   9   0 64725.1 2001.07   1
  -2   9  -1 41634.9 3245.23   1
  -2   9  -1 47682.6 2401.34  -2
   2  -9   1 47682.6 2401.34   1
  -2   9  -2 10415.0 894.618   1
  -2   9  -3 20735.9 1229.53   1
  -2   9  -4 35555.0 1577.60   1
  -2   9  -5 11471.0 2230.71   1
  -2   9  -6 2964.25 1496.26   1
   9   8   0 20620.1 2085.29  -2
   2  -8 -11 20620.1 2085.29   1
   2  -8 -10 33432.5 2344.48   1
  -2   8   9 30804.7 2110.68   1
   2  -8  -8 2011.95 676.596   1
  -2   8   7 41861.5 1782.66   1
  -2   8   6 63749.4 1778.53   1
   2  -8  -5 5285.34 612.619   1
  -2   8   4 12760.0 1062.76   1
   3   8  -1 40564.0 2146.08  -2
   2  -8  -4 40564.0 2146.08   1
  -2  -8   1 148835. 3342.50  -2
  -2   8   3 148835. 3342.50   1
  -1  -8   1 108927. 2943.78  -2
  -2   8   2 108927. 2943.78   1
   0   8  -1 9150.00 798.988  -2
   2  -8  -1 9150.00 798.988   1
   2  -8   0 83470.2 1947.46   1
  -2   8  -1 69301.7 1804.35   1
   2  -8   2 19495.1 918.650   1
  -2   8  -3 13778.2 824.661   1
   2  -8   4 58286.3 1463.46   1
  -2   8  -5 38145.2 1500.35   1
   2  -8   6-651.305 1217.88   1
   6  -8   2 3924.17 1737.65  -2
  -2   8  -6 3924.17 1737.65   1
   7  -8   2 10266.4 1530.18  -2
  -2   8  -7 10266.4 1530.18   1
  -8   8  -2 23065.1 2673.51  -2
   2  -8   8 23065.1 2673.51   1
   2  -7 -12 12829.2 2400.81   1
 -10  -7   0 25205.1 3128.01  -2
  -2   7  12 25205.1 3128.01   1
   2  -7 -11 8926.12 1455.08   1
  -2   7  10 50867.1 2675.07   1
  -2   7   9 74715.3 3084.48   1
  -2   7   8 886.706 581.448   1
  -2   7   7 62161.8 2050.38   1
   2  -7  -6 153933. 2262.51   1
  -2   7   5 26456.9 2034.75   1
  -4  -7   1 30224.3 1214.71  -2
  -2   7   5 30224.3 1214.71   1
  -3  -7   1 26558.9 1388.59  -2
  -2   7   4 26558.9 1388.59   1
   2   7  -1 114234. 2413.03  -2
   2  -7  -3 114234. 2413.03   1
   2  -7  -2 86678.6 1674.56   1
  -1  -7   1 90485.0 3890.02  -2
  -2   7   2 90485.0 3890.02   1
  -2   7   1 6849.65 590.740   1
  -2   7   0 11146.7 718.124   1
   2  -7   1 81091.4 1780.66   1
  -2   7  -2 29434.4 943.907   1
  -2   7  -3 5392.33 533.152   1
   2  -7   4 18990.1 912.126   1
  -2   7  -5 35268.6 2611.45   1
   5  -7   2 42324.4 1732.84  -2
  -2   7  -5 42324.4 1732.84   1
   6  -7   2 13902.1 1877.55  -2
  -2   7  -6 13902.1 1877.55   1
  -7   7  -2 687.515 789.661  -2
   2  -7   7 687.515 789.661   1
   2  -7   8 3844.61 1414.81   1
   8  -7   2 6521.24 1406.59  -2
  -2   7  -8 6521.24 1406.59   1
   2  -7   9 19946.9 1588.43   1
   2  -6 -12 20513.6 2025.73   1
  -2   6  11 897.307 877.170   1
   2  -6 -10 60593.3 2872.82   1
  -2   6   9 36885.9 2141.53   1
  -2   6   8 13769.2 1019.57   1
  -2   6   7 15267.7 871.983   1
  -5  -6   1 90385.0 1973.53  -2
  -2   6   6 90385.0 1973.53   1
  -4  -6   1 86055.5 2090.66  -2
  -2   6   5 86055.5 2090.66   1
   3   6  -1 5501.45 556.343  -2
   2  -6  -4 5501.45 556.343   1
  -2   6   3 27827.0 950.647   1
  -2   6   2 48793.6 1188.41   1
  -2   6   1 24788.8 756.014   1
   2  -6   0 3915.25 351.538   1
   2  -6   1 43421.4 1200.07   1
  -2   6  -2 15334.4 759.964   1
   2  -6   3 31337.4 1295.71   1
  -2   6  -4 6501.14 1285.98   1
  -4   6  -2 7297.55 685.528  -2
   2  -6   4 7297.55 685.528   1
   5  -6   2 41554.8 1671.68  -2
  -2   6  -5 41554.8 1671.68   1
  -6   6  -2 84079.3 2468.80  -2
   2  -6   6 84079.3 2468.80   1
   2  -6   7 7882.89 1100.27   1
   7  -6   2 10889.6 1956.23  -2
  -2   6  -7 10889.6 1956.23   1
   2  -6   8 3220.22 656.814   1
  -2   6  -9 23364.2 1608.89   1
  -2   6 -10 37274.3 2112.71   1
  -2   5  12 17019.9 1778.98   1
  -2   5  11 1764.73 992.249   1
   2  -5 -10 18075.1 1583.34   1
   2  -5  -9 25247.2 1149.03   1
   2  -5  -8 42251.4 1345.08   1
   7   5  -1 41889.2 2489.30  -2
   2  -5  -8 41889.2 2489.30   1
   6   5  -1 6102.24 534.714  -2
   2  -5  -7 6102.24 534.714   1
   5   5  -1 27636.1 1075.47  -2
   2  -5  -6 27636.1 1075.47   1
   4   5  -1 64499.1 1291.77  -2
   2  -5  -5 64499.1 1291.77   1
   2  -5  -4 69814.5 1104.26   1
   2  -5  -3 45.6566 255.482   1
   2  -5  -2 58997.3 1089.51   1
   2  -5  -1 160612. 1890.83   1
  -2   5   0 47192.0 916.803   1
   2  -5   1 10580.5 445.866   1
   2  -5   2 175492. 2227.24   1
   2  -5   3 62130.5 1470.39   1
   3  -5   2 80931.0 1577.18  -2
  -2   5  -3 80931.0 1577.18   1
   4  -5   2 17878.9 801.153  -2
  -2   5  -4 17878.9 801.153   1
  -5   5  -2 33754.9 1269.41  -2
   2  -5   5 33754.9 1269.41   1
   2  -5   6 128424. 1994.78   1
  -2   5  -7 79359.2 2344.61   1
   2  -5   8 791.034 642.437   1
  -2   5  -9 43193.1 2038.78   1
  -2   5 -10 53539.8 2368.84   1
  -2   5 -11 1032.67 852.630   1
  -2   4  13 44.3207 1412.32   1
  -2   4  12 11990.4 1509.28   1
   2  -4 -11 24568.7 1492.11   1
  -2   4  10 14578.2 1118.91   1
   8   4  -1 37590.7 1357.99  -2
   2  -4  -9 37590.7 1357.99   1
   7   4  -1 60386.5 1902.48  -2
   2  -4  -8 60386.5 1902.48   1
   6   4  -1 60963.6 1639.44  -2
   2  -4  -7 60963.6 1639.44   1
  -5  -4   1 27763.1 771.583  -2
  -2   4   6 27763.1 771.583   1
  -2   4   5 77354.0 1157.54   1
   2  -4  -4 221009. 2077.57   1
   2  -4  -3 33351.4 716.076   1
  -2   4   2 31954.4 753.809   1
  -2   4   1 216636. 1838.63   1
  -2   4   0 176543. 2149.34   1
  -2   4  -1 18320.8 650.006   1
   2  -4   2 426193. 5972.59   1
  -2   4  -2 531215. 5698.05  -2
   2  -4   2 531215. 5698.05   1
  -3   4  -2 311860. 2537.46  -2
   2  -4   3 311860. 2537.46   1
  -2   4  -4 39209.0 1259.29   1
  -4   4  -2 50719.0 1166.80  -2
   2  -4   4 50719.0 1166.80   1
  -2   4  -5 15300.6 715.826   1
  -2   4  -6 121842. 1796.52   1
   2  -4   7 69233.0 2062.76   1
  -2   4  -8 3260.86 695.500   1
  -2   4  -9 24571.9 1417.69   1
  -2   4 -10 38323.9 1936.90   1
  -2   4 -11 32667.9 1901.21   1
  11  -4   3 2039.60 2285.96  -2
  -2   4 -12 2039.60 2285.96   1
  -2   3  13 7313.59 1119.73   1
  -2   3  12 6681.83 995.310   1
  -2   3  11 26678.1 1555.03   1
   9   3  -1 42018.8 1523.27  -2
   2  -3 -10 42018.8 1523.27   1
  -8  -3   1 30324.3 1589.82  -2
  -2   3   9 30324.3 1589.82   1
  -7  -3   1 56463.2 1956.13  -2
  -2   3   8 56463.2 1956.13   1
   2  -3  -7 135420. 4356.27   1
  -6  -3   1 138321. 1934.45  -2
  -2   3   7 138321. 1934.45   1
  -2   3   6 9471.81 490.200   1
  -2   3   5 60769.5 1067.55   1
  -2   3   4 124487. 1304.43   1
   2  -3  -3 124904. 1203.99   1
  -2   3   2 70475.7 843.938   1
  -2   3   1 191863. 1737.49   1
  -2   3   0 179373. 1826.25   1
   1  -3   2 56716.7 1148.49  -2
  -2   3  -1 56716.7 1148.49   1
   2  -3   2 654.096 257.488  -2
  -2   3  -2 654.096 257.488   1
  -2   3  -3 221993. 1615.02   1
  -2   3  -4 99176.4 1129.12   1
   2  -3   5 2318.41 248.956   1
   2  -3   6 38943.4 828.199   1
  -2   3  -7 53858.5 1730.84   1
  -2   3  -8 49378.6 1741.22   1
   2  -3   9 535.857 581.185   1
  -2   3 -10 8753.93 1761.87   1
   9  -3   3 8787.24 1395.27  -2
  -2   3 -10 8787.24 1395.27   1
 -10   3  -3 27331.2 2119.43  -2
   2  -3  11 27331.2 2119.43   1
  11  -3   3 10064.2 1655.45  -2
  -2   3 -12 10064.2 1655.45   1
   2  -2 -13 4343.25 943.453   1
  -2   2  12 1240.05 839.572   1
  10   2  -1 25261.1 1367.86  -2
   2  -2 -11 25261.1 1367.86   1
   9   2  -1 15848.2 1297.71  -2
   2  -2 -10 15848.2 1297.71   1
   8   2  -1 15869.4 1124.59  -2
   2  -2  -9 15869.4 1124.59   1
   2  -2  -8 16585.1 1817.17   1
   7   2  -1 34057.4 1370.68  -2
   2  -2  -8 34057.4 1370.68   1
   2  -2  -7 12216.0 704.250   1
  -2   2   6 13230.2 537.432   1
   2  -2  -5 5171.83 378.350   1
  -2   2   4 17134.2 621.357   1
  -2   2   3 118821. 1235.10   1
   2  -2  -2 633.646 177.598   1
  -2   2   1 18946.9 501.766   1
  -1  -2   2 49011.1 1777.16  -2
  -2   2   1 49011.1 1777.16   1
   0  -2   2 93978.8 897.676  -2
  -2   2   0 93978.8 897.676   1
  -1   2  -2 11388.4 429.101  -2
   2  -2   1 11388.4 429.101   1
   2  -2   2 96870.1 928.823   1
  -2   2  -3 32043.2 581.664   1
  -2   2  -4 43808.2 709.466   1
  -2   2  -5 82655.4 927.641   1
   2  -2   6 17941.0 466.089   1
   2  -2   7 39505.1 1165.29   1
   2  -2   8 73291.5 1474.29   1
   2  -2   9 35937.7 2471.37   1
  -8   2  -3 44855.7 2128.45  -2
   2  -2   9 44855.7 2128.45   1
  -9   2  -3 19639.0 1609.83  -2
   2  -2  10 19639.0 1609.83   1
 -10   2  -3 47374.0 2670.10  -2
   2  -2  11 47374.0 2670.10   1
 -11   2  -3 36824.9 2077.62  -2
   2  -2  12 36824.9 2077.62   1
  -2   2 -13 1746.01 1622.54   1
   2  -1 -13 1106.57 872.321   1
 -11  -1   1 15673.1 1334.78  -2
  -2   1  12 15673.1 1334.78   1
  10   1  -1 5830.45 1049.23  -2
   2  -1 -11 5830.45 1049.23   1
  -9  -1   1 3624.21 749.239  -2
  -2   1  10 3624.21 749.239   1
   2  -1  -9 4436.18 831.853   1
  -8  -1   1 8007.81 1065.12  -2
  -2   1   9 8007.81 1065.12   1
   2  -1  -8 258.538 428.535   1
   2  -1  -7 102.186 351.394   1
   2  -1  -6 6360.26 369.761   1
  -2   1   5 2903.06 360.382   1
  -2   1   4 273.168 208.019   1
  -2   1   3 125.235 197.042   1
   2   1  -2 275381. 1790.96  -2
   2  -1  -2 275381. 1790.96   1
  -1  -1   2 38933.3 705.198  -2
  -2   1   1 38933.3 705.198   1
   2  -1   0 5912.43 438.891   1
   0  -1   2 28110.2 1407.45  -2
  -2   1   0 28110.2 1407.45   1
   2  -1   1 128800. 1078.94   1
   2  -1   2 50323.7 572.363   1
   2  -1   3 7516.61 247.105   1
   2  -1   4 103282. 967.161   1
   2  -1   5 112381. 989.478   1
  -2   1  -6 23128.9 550.565   1
  -2   1  -7 21283.5 701.650   1
   2  -1   8 50889.9 2625.99   1
  -7   1  -3 50224.5 1407.44  -2
   2  -1   8 50224.5 1407.44   1
   8  -1   3 108798. 2522.12  -2
  -2   1  -9 108798. 2522.12   1
  -9   1  -3 25636.3 1294.10  -2
   2  -1  10 25636.3 1294.10   1
   2  -1  11 63003.7 2903.89   1
  10  -1   3 73939.8 2829.20  -2
  -2   1 -11 73939.8 2829.20   1
   2  -1  12 57673.6 1993.59   1
  -2   1 -13 4916.37 1159.37   1
  12   0  -1 6140.71 1465.83  -2
   2   0 -13 6140.71 1465.83   1
  11   0  -1 12325.3 1426.48  -2
   2   0 -12 12325.3 1426.48   1
  10   0  -1 36687.1 1761.26  -2
   2   0 -11 36687.1 1761.26   1
   2   0 -10 388.776 683.361   1
  -9   0   1 6274.05 1463.87  -2
  -2   0  10 6274.05 1463.87   1
   2   0  -9 21701.4 1099.82   1
  -2   0   8 26697.7 1126.46   1
   2   0  -7 3365.15 484.448   1
  -2   0   6 35175.1 1088.16   1
   2   0  -5 108496. 1719.16   1
   2   0  -4 18230.7 549.678   1
   3   0  -2 40624.0 788.279  -2
   2   0  -3 40624.0 788.279   1
   2   0  -2 288877. 3021.53  -2
   2   0  -2 288877. 3021.53   1
   1   0  -2 15603.0 547.814  -2
   2   0  -1 15603.0 547.814   1
   2   0   0 10481.9 301.854   1
  -2   0  -1 243208. 1113.50   1
  -2   0  -2 181165. 1212.56   1
   2   0   3 32662.4 550.483   1
   2   0   4 79456.7 738.022   1
   2   0   5 119065. 1134.68   1
   2   0   6 21870.0 541.279   1
   2   0   7 22870.4 1737.06   1
  -6   0  -3 25808.7 680.539  -2
   2   0   7 25808.7 680.539   1
  -7   0  -3 67305.6 1607.83  -2
   2   0   8 67305.6 1607.83   1
   8   0   3 26082.2 1020.04  -2
  -2   0  -9 26082.2 1020.04   1
   2   0  10 15940.9 930.738   1
  -9   0  -3 19705.5 2104.04  -2
   2   0  10 19705.5 2104.04   1
   2   0  11 6865.76 610.487   1
   2   0  12 26282.6 1600.65   1
  -2   0 -13 14274.4 1339.83   1
  12  -1  -1 5088.79 2196.10  -2
   2   1 -13 5088.79 2196.10   1
  11  -1  -1 18664.1 1604.61  -2
   2   1 -12 18664.1 1604.61   1
   2   1 -11 32259.5 1800.25   1
 -10   1   1 48919.6 3438.92  -2
  -2  -1  11 48919.6 3438.92   1
  -2  -1  10 538.317 591.381   1
  -2  -1   9 22439.1 1153.77   1
  -2  -1   8 79632.1 1920.66   1
  -2  -1   7 27328.8 1082.58   1
  -2  -1   6 8360.04 443.248   1
  -2  -1   5 94261.0 943.913   1
  -2  -1   4 50931.1 1029.87   1
  -4   1   2 82262.2 1212.11  -2
  -2  -1   4 82262.2 1212.11   1
   3  -1  -2 31423.0 796.894  -2
   2   1  -3 31423.0 796.894   1
  -2  -1   2 41923.2 1226.62   1
   2  -1  -2 117431. 1570.45  -2
   2   1  -2 117431. 1570.45   1
   2   1  -1 213667. 1597.74   1
   2   1   0 247.112 143.257   1
   2   1   1 11365.0 277.158   1
   2   1   2 14658.8 264.366   1
   2   1   3 6500.59 223.340   1
   2   1   4 310.741 161.571   1
   2   1   5 37766.5 649.547   1
   5   1   3 50670.0 870.817  -2
  -2  -1  -6 50670.0 870.817   1
   6   1   3 22466.5 789.657  -2
  -2  -1  -7 22466.5 789.657   1
   7   1   3 17740.9 711.444  -2
  -2  -1  -8 17740.9 711.444   1
   2   1   9 236.001 329.121   1
   2   1  10 21035.2 913.525   1
   2   1  11 2525.73 499.221   1
  -2  -1 -12 2511.18 661.577   1
   2   1  13 10726.5 1164.35   1
  -2  -1 -14 11709.2 2339.02   1
 -12  -1  -4 11407.1 2366.60  -2
   2   1  14 11407.1 2366.60   1
   2   2 -12 23521.4 1720.96   1
  -2  -2  11 24637.2 1652.29   1
  -2  -2  10 18799.5 1157.71   1
  -2  -2   9 2041.06 494.946   1
  -2  -2   8 27455.0 1188.09   1
  -2  -2   7 41308.0 1343.16   1
  -2  -2   6 6708.59 1193.94   1
   6  -2  -2 18880.3 871.796  -2
   2   2  -6 18880.3 871.796   1
  -5   2   2 8852.24 349.010  -2
  -2  -2   5 8852.24 349.010   1
  -4   2   2 45535.7 800.892  -2
  -2  -2   4 45535.7 800.892   1
   2   2  -3 43053.0 625.770   1
  -3   2   2 45902.8 1744.15  -2
  -2  -2   3 45902.8 1744.15   1
   2   2  -2 53069.9 812.616   1
   2   2  -1 25374.2 555.792   1
   2   2   0 1433.17 174.800   1
  -2  -2  -1 89035.9 612.307   1
   2   2   2 3320.63 142.141   1
   2   2   3 65888.6 692.692   1
   2   2   4 13043.7 334.817   1
  -4  -2  -3 106356. 1154.02  -2
   2   2   5 106356. 1154.02   1
  -5  -2  -3 15994.9 616.038  -2
   2   2   6 15994.9 616.038   1
   2   2   7 60231.6 1589.43   1
   6   2   3 73289.9 1277.92  -2
  -2  -2  -7 73289.9 1277.92   1
   2   2   8 17384.2 575.706   1
   2   2   9 7479.46 512.444   1
  -2  -2 -10 15454.5 768.660   1
   2   2  11 36545.7 1298.91   1
   2   2  12 1748.89 551.075   1
   2   2  13 12592.8 1535.72   1
 -11  -2  -4 22678.9 2838.94  -2
   2   2  13 22678.9 2838.94   1
  12   2   4 17438.4 1679.93  -2
  -2  -2 -14 17438.4 1679.93   1
  -2  -3  11 10809.7 1213.98   1
  -2  -3  10 30708.8 1761.15   1
  -2  -3   9 12780.6 1139.08   1
   2   3  -8 1605.63 453.060   1
   2   3  -7 22011.5 2173.61   1
  -7   3   2 26947.6 1125.19  -2
  -2  -3   7 26947.6 1125.19   1
   6  -3  -2 85008.9 2098.19  -2
   2   3  -6 85008.9 2098.19   1
   5  -3  -2 25092.4 836.390  -2
   2   3  -5 25092.4 836.390   1
  -2  -3   4 3692.74 255.394   1
  -4   3   2 27384.6 1382.01  -2
  -2  -3   4 27384.6 1382.01   1
  -2  -3   3 85860.5 1034.34   1
   2   3  -2 106294. 1259.65   1
  -2  -3   1 14312.6 427.387   1
   2   3   0 98346.6 878.075   1
   2   3   1 152680. 982.644   1
  -2  -3  -2 47219.0 566.873   1
   2   3   3 76904.2 891.373   1
  -3  -3  -3 146507. 1674.40  -2
   2   3   4 146507. 1674.40   1
  -4  -3  -3 125060. 1192.84  -2
   2   3   5 125060. 1192.84   1
   2   3   6 5340.44 416.120   1
   5   3   3 23000.9 735.708  -2
  -2  -3  -6 23000.9 735.708   1
   2   3   7 74062.6 1005.65   1
   2   3   8 75974.6 1262.08   1
  -2  -3  -9 1991.28 338.456   1
  -2  -3 -10 9262.65 612.115   1
  -2  -3 -11 37133.1 1202.71   1
   2   3  12 2650.23 778.783   1
 -10  -3  -4 12307.8 2246.98  -2
   2   3  12 12307.8 2246.98   1
 -11  -3  -4 26382.4 1824.20  -2
   2   3  13 26382.4 1824.20   1
 -12  -3  -4 24203.9 2300.90  -2
   2   3  14 24203.9 2300.90   1
   2   4 -11 4206.76 999.839   1
  -2  -4  10 29237.6 1832.95   1
   2   4  -9 34899.3 1857.65   1
  -8   4   2 10725.5 997.320  -2
  -2  -4   8 10725.5 997.320   1
  -7   4   2 30499.4 1748.58  -2
  -2  -4   7 30499.4 1748.58   1
   6  -4  -2 116124. 2997.20  -2
   2   4  -6 116124. 2997.20   1
  -2  -4   5 43885.1 1028.42   1
  -2  -4   4 977.280 204.940   1
   2   4  -3 105002. 946.754   1
   2   4  -2 133168. 1068.52   1
   2   4  -1 24030.7 543.134   1
   2   4   0 157229. 1150.01   1
  -2  -4  -1 177036. 1182.37   1
   2   4   2 128273. 1101.65   1
  -2  -4  -3 19985.0 527.205  -2
   2   4   3 19985.0 527.205   1
  -3  -4  -3 208936. 1814.75  -2
   2   4   4 208936. 1814.75   1
   2   4   5 31671.9 796.133   1
   2   4   6 21277.4 732.823   1
   2   4   7 15120.8 590.248   1
   2   4   8 55581.7 1231.99   1
   2   4   9 18639.5 854.924   1
   2   4  10 3503.06 501.451   1
  -2  -4 -11 3004.42 565.985   1
  -9  -4  -4 4887.37 1788.78  -2
   2   4  11 4887.37 1788.78   1
 -10  -4  -4 11426.3 976.270  -2
   2   4  12 11426.3 976.270   1
  11   4   4 11934.1 1676.17  -2
  -2  -4 -13 11934.1 1676.17   1
 -12  -4  -4 11932.4 2044.78  -2
   2   4  14 11932.4 2044.78   1
  -2  -5  10 43677.3 2718.57   1
  10  -5  -2 43190.4 4001.50  -2
   2   5 -10 43190.4 4001.50   1
   9  -5  -2 77433.6 3199.86  -2
   2   5  -9 77433.6 3199.86   1
   8  -5  -2 13397.3 1272.25  -2
   2   5  -8 13397.3 1272.25   1
   7  -5  -2 12931.6 1079.30  -2
   2   5  -7 12931.6 1079.30   1
   2   5  -6 59335.0 2002.97   1
  -2  -5   5 73123.0 1686.59   1
   2   5  -4 6073.33 431.592   1
   2   5  -3 54564.2 1342.88   1
   2   5  -2 91106.5 1190.71   1
  -2  -5   1 55266.4 721.173   1
   2   5   0 711.438 160.065   1
  -2  -5  -1 75382.2 2520.06   1
   0  -5  -3 91459.9 969.079  -2
   2   5   1 91459.9 969.079   1
   1   5   3 103780. 1514.73  -2
  -2  -5  -2 103780. 1514.73   1
  -2  -5  -3 28737.0 1789.05   1
  -2  -5  -3 36790.5 738.261  -2
   2   5   3 36790.5 738.261   1
  -2  -5  -4 14205.0 376.840   1
  -2  -5  -5 26504.8 715.288   1
   2   5   6 67516.3 1291.98   1
   2   5   7 15546.6 593.030   1
  -2  -5  -8 139.294 247.028   1
  -2  -5  -9 38420.1 1168.19   1
  -2  -5 -10 20109.0 1190.45   1
  -8  -5  -4 32498.2 1949.53  -2
   2   5  10 32498.2 1949.53   1
  -9  -5  -4 13196.2 1115.20  -2
   2   5  11 13196.2 1115.20   1
 -10  -5  -4 15428.4 1472.58  -2
   2   5  12 15428.4 1472.58   1
 -11  -5  -4 26841.5 2496.82  -2
   2   5  13 26841.5 2496.82   1
   2   5  14 10036.3 1509.59   1
  -9   6   2 37361.0 2289.03  -2
  -2  -6   9 37361.0 2289.03   1
   8  -6  -2 15925.9 1250.86  -2
   2   6  -8 15925.9 1250.86   1
  -2  -6   7 917.860 577.579   1
  -2  -6   6 23764.4 1380.58   1
   2   6  -5 72112.3 2174.66   1
  -2  -6   4 13698.5 807.902   1
   2   6  -3 3436.12 464.830   1
   2   6  -2 34837.1 1109.32   1
   2   6  -1 53097.0 973.842   1
   1  -6  -3 51887.5 882.943  -2
   2   6   0 51887.5 882.943   1
   0   6   3 9789.55 445.402  -2
  -2  -6  -1 9789.55 445.402   1
  -2  -6  -2 59818.0 1541.84   1
  -1  -6  -3 86586.4 1413.81  -2
   2   6   2 86586.4 1413.81   1
   2   6   3 155711. 1513.56   1
  -2  -6  -4 54994.0 863.058   1
   2   6   5 19701.6 673.473   1
   2   6   6 50077.5 1083.23   1
   2   6   7 70206.0 1461.22   1
  -2  -6  -8 2537.15 361.115   1
  -2  -6  -9 47309.5 1956.94   1
  -7  -6  -4 44248.1 1638.98  -2
   2   6   9 44248.1 1638.98   1
  -8  -6  -4 87808.0 2408.60  -2
   2   6  10 87808.0 2408.60   1
  -9  -6  -4 31158.6 2192.37  -2
   2   6  11 31158.6 2192.37   1
 -10  -6  -4 8100.89 1461.17  -2
   2   6  12 8100.89 1461.17   1
   2   6  13 30129.4 2106.57   1
 -11  -6  -4 20709.1 2913.11  -2
   2   6  13 20709.1 2913.11   1
   2   6  14 22729.4 2823.99   1
   9  -7  -2 14092.3 2515.04  -2
   2   7  -9 14092.3 2515.04   1
   2   7  -8 22681.3 1388.05   1
  -2  -7   7 6216.57 790.446   1
   2   7  -6-63.7970 660.226   1
   2   7  -5 23383.8 1367.17   1
   2   7  -4 110512. 2274.14   1
   2   7  -3 12585.7 802.121   1
   2   7  -2 18323.2 1871.10   1
   3  -7  -3 30809.1 1138.55  -2
   2   7  -2 30809.1 1138.55   1
   2  -7  -3 112491. 1885.77  -2
   2   7  -1 112491. 1885.77   1
  -1   7   3 99620.6 2061.71  -2
  -2  -7   0 99620.6 2061.71   1
  -2  -7  -1 4573.16 428.654   1
   0  -7  -3 3143.50 1201.05  -2
   2   7   1 3143.50 1201.05   1
  -2  -7  -2 41872.7 882.818   1
  -2  -7  -3 113576. 1417.85   1
  -2  -7  -4 59841.3 1314.06   1
   2   7   5 9894.55 539.984   1
   2   7   6 81752.2 1464.43   1
   2   7   7 106771. 1729.94   1
  -2  -7  -8 394.436 765.568   1
  -6  -7  -4 23186.1 1009.84  -2
   2   7   8 23186.1 1009.84   1
  -7  -7  -4 23347.1 1262.11  -2
   2   7   9 23347.1 1262.11   1
   8   7   4 65705.5 3625.05  -2
  -2  -7 -10 65705.5 3625.05   1
   9   7   4 34395.1 2221.79  -2
  -2  -7 -11 34395.1 2221.79   1
  -2  -7 -12 5574.89 1093.50   1
   2   7  13 19405.6 2759.59   1
  -2  -8   8 45709.7 3783.45   1
   2   8  -7 30131.3 1841.02   1
   2   8  -6 2467.54 926.780   1
   2   8  -5 14735.4 1489.79   1
   2   8  -4 81870.4 2468.22   1
   4  -8  -3 48457.0 1650.12  -2
   2   8  -3 48457.0 1650.12   1
   3  -8  -3 12510.0 1148.73  -2
   2   8  -2 12510.0 1148.73   1
   2  -8  -3 154218. 2784.64  -2
   2   8  -1 154218. 2784.64   1
   2   8   0 131545. 2738.79   1
   1  -8  -3 143778. 2824.15  -2
   2   8   0 143778. 2824.15   1
   2   8   1 5924.32 487.632   1
  -2  -8  -2 39590.8 1059.76   1
   2   8   3 110765. 1955.24   1
  -2  -8  -4 34496.4 1127.65   1
   2   8   5 8764.65 663.071   1
   2   8   6 60553.0 1350.58   1
  -5  -8  -4 58976.7 1417.27  -2
   2   8   7 58976.7 1417.27   1
  -6  -8  -4 33382.0 1551.09  -2
   2   8   8 33382.0 1551.09   1
   7   8   4 7199.90 847.974  -2
  -2  -8  -9 7199.90 847.974   1
  -8  -8  -4 33633.3 1723.31  -2
   2   8  10 33633.3 1723.31   1
  -2  -8 -11 32785.9 2131.21   1
   2   8  12 2301.18 1661.15   1
   2   8  13 4297.33 2051.10   1
  -2  -9   7 47419.1 4003.09   1
  -2  -9   6 7105.04 1277.18   1
   2   9  -5 9934.95 1124.48   1
   5  -9  -3 41331.5 2102.16  -2
   2   9  -4 41331.5 2102.16   1
   4  -9  -3 40407.8 2154.29  -2
   2   9  -3 40407.8 2154.29   1
   3  -9  -3 5007.54 860.727  -2
   2   9  -2 5007.54 860.727   1
   2   9  -1 17145.7 1168.41   1
  -2   9   3 28710.2 1464.28  -2
  -2  -9   1 28710.2 1464.28   1
  -2  -9   0 40503.6 1192.80   1
   2   9   1 26022.2 960.051   1
  -2  -9  -2 215.349 424.342   1
  -2  -9  -3 45111.3 1367.91   1
  -2  -9  -4 61879.1 1598.81   1
   2   9   5 17532.0 1154.59   1
   3   9   4 28328.6 1812.48  -2
  -2  -9  -5 28328.6 1812.48   1
   4   9   4 3375.29 724.089  -2
  -2  -9  -6 3375.29 724.089   1
   5   9   4 22966.8 1381.83  -2
  -2  -9  -7 22966.8 1381.83   1
  -6  -9  -4 51076.2 1912.66  -2
   2   9   8 51076.2 1912.66   1
  -7  -9  -4 14216.3 948.672  -2
   2   9   9 14216.3 948.672   1
   2   9  10 1446.11 679.885   1
  -2  -9 -11 28297.0 2052.83   1
   2   9  12 74685.9 4908.39   1
  -6  10   3 6553.45 1215.80  -2
  -2 -10   5 6553.45 1215.80   1
   5 -10  -3 11266.5 1428.01  -2
   2  10  -4 11266.5 1428.01   1
   4 -10  -3 21415.8 1507.80  -2
   2  10  -3 21415.8 1507.80   1
   2  10  -2 9572.11 1293.10   1
   3 -10  -3 9706.84 1358.65  -2
   2  10  -2 9706.84 1358.65   1
  -2 -10   1 989.868 513.139   1
   2  10   0 9172.08 684.112   1
   2  10   1 29589.8 1227.82   1
   2  10   2 15960.1 934.014   1
  -2 -10  -3 8412.97 734.791   1
  -2 -10  -4 29680.9 1214.76   1
   3  10   4 86872.0 2460.16  -2
  -2 -10  -5 86872.0 2460.16   1
   4  10   4 24573.8 1330.82  -2
  -2 -10  -6 24573.8 1330.82   1
   5  10   4 10488.3 1079.72  -2
  -2 -10  -7 10488.3 1079.72   1
   2  10   8 65322.6 4183.02   1
   6  10   4 76529.9 3139.11  -2
  -2 -10  -8 76529.9 3139.11   1
   2  10   9 47018.3 1806.23   1
   2  10  10 1846.98 769.761   1
  -2 -10 -11 14284.9 1666.64   1
   2  10  12 40990.7 3876.51   1
   5 -11  -3 10704.7 2675.25  -2
   2  11  -4 10704.7 2675.25   1
   2  11  -3 2310.13 1097.29   1
   4 -11  -3 21322.7 2045.61  -2
   2  11  -3 21322.7 2045.61   1
   2  11  -2 16805.1 1215.97   1
   2  11  -1 20567.2 1517.19   1
  -2 -11   0 1407.37 650.382   1
  -2 -11  -1 26183.2 1233.59   1
   2  11   2 22992.3 1176.55   1
  -1 -11  -4 7332.08 847.062  -2
   2  11   3 7332.08 847.062   1
   2  11   4 13850.3 1236.83  -2
  -2 -11  -4 13850.3 1236.83   1
   3  11   4 66171.5 2611.47  -2
  -2 -11  -5 66171.5 2611.47   1
   4  11   4 46763.7 2103.55  -2
  -2 -11  -6 46763.7 2103.55   1
   2  11   7-285.361 857.693   1
   5  11   4 2874.24 1274.90  -2
  -2 -11  -7 2874.24 1274.90   1
  -2 -11  -8 34198.3 1661.31   1
   2  11   9 46754.0 1929.21   1
   2  11  10 2281.35 1054.07   1
   2  12  -2 12285.3 2558.30   1
   2  12  -1 16145.4 1814.05   1
   2  12   0 1582.18 795.571   1
  -2 -12  -1 23741.6 1472.77   1
   0 -12  -4 54220.2 2184.05  -2
   2  12   2 54220.2 2184.05   1
  -1 -12  -4 608.447 925.182  -2
   2  12   3 608.447 925.182   1
  -2 -12  -4 3306.29 967.091  -2
   2  12   4 3306.29 967.091   1
   3  12   4 35725.9 1802.50  -2
  -2 -12  -5 35725.9 1802.50   1
   2  12   6 11396.9 1510.65   1
   4  12   4 17697.3 1904.47  -2
  -2 -12  -6 17697.3 1904.47   1
   2  12   7 449.930 731.627   1
   2  12   8 5323.38 973.148   1
   2  12   9 13509.0 2253.35   1
   1  13   4 9432.78 2590.43  -2
  -2 -13  -3 9432.78 2590.43   1
   1 -12   2 33945.6 4543.91  -2
  -3  12   0 33945.6 4543.91   1
  -6 -11   1 8205.74 2351.34  -2
  -3  11   8 8205.74 2351.34   1
  -3  11   7 6125.27 1699.86   1
   3 -11  -6 38564.6 2141.11   1
   3 -11  -5 9401.03 1167.57   1
   3 -11  -4 7375.96 1019.89   1
   3 -11  -3 41706.8 2172.09   1
  -3  11   2 11222.8 1536.19   1
   1  11  -2 14366.3 2551.94  -2
   3 -11  -2 14366.3 2551.94   1
   0  11  -2 2298.15 1131.48  -2
   3 -11  -1 2298.15 1131.48   1
  -1  11  -2 12661.1 1753.10  -2
   3 -11   0 12661.1 1753.10   1
  -2  11  -2 28575.2 2062.93  -2
   3 -11   1 28575.2 2062.93   1
   3 -11   2 5635.13 1127.46  -2
  -3  11  -2 5635.13 1127.46   1
  -3  11  -3 3826.65 1794.59   1
   3 -10  -8 3387.91 1128.49   1
   3 -10  -7 2062.16 1006.78   1
  -3  10   6 7076.01 1307.38   1
   3 -10  -5 11329.8 1199.16   1
   3 -10  -4 2740.45 742.193   1
  -3  10   3 6825.45 1665.35   1
   2  10  -2 9575.16 1456.31  -2
   3 -10  -3 9575.16 1456.31   1
   1  10  -2 7752.11 1269.44  -2
   3 -10  -2 7752.11 1269.44   1
   0 -10   2 533.740 800.797  -2
  -3  10   1 533.740 800.797   1
   1 -10   2 2704.03 1024.88  -2
  -3  10   0 2704.03 1024.88   1
  -3  10  -1 3115.24 1248.18   1
  -2  10  -2 4678.17 1320.70  -2
   3 -10   1 4678.17 1320.70   1
  -3  10  -2 6835.52 1018.83   1
  -3  10  -2 8211.98 2003.68  -2
   3 -10   2 8211.98 2003.68   1
  -3  10  -3 7315.17 1019.11   1
   3 -10   4 5263.91 997.184   1
  -3   9  10 71.8608 1717.58   1
  -3   9   9 1853.95 982.623   1
  -3   9   8 8409.25 1059.93   1
  -3   9   7 1832.01 703.208   1
   3  -9  -6 4212.67 970.403   1
   3  -9  -5 1744.22 837.532   1
  -3  -9   2 9920.09 1432.57  -2
  -3   9   4 9920.09 1432.57   1
  -2  -9   2 9056.25 1258.71  -2
  -3   9   3 9056.25 1258.71   1
   1   9  -2 6035.71 1145.79  -2
   3  -9  -2 6035.71 1145.79   1
   0   9  -2 32249.3 1882.78  -2
   3  -9  -1 32249.3 1882.78   1
   3  -9   0 7376.35 1070.63   1
  -1   9  -2 18035.4 2466.11  -2
   3  -9   0 18035.4 2466.11   1
   3  -9   1-109.084 638.697   1
  -3   9  -2 17346.2 1304.69   1
  -3   9  -3 26496.9 1394.96   1
  -3   9  -4 1107.31 767.608   1
  -3   9  -5 8546.63 2008.79   1
   6  -9   3 30446.6 3400.39  -2
  -3   9  -6 30446.6 3400.39   1
  -7   9  -3 24260.6 3788.71  -2
   3  -9   7 24260.6 3788.71   1
  -3   8  11 13389.9 2352.40   1
   3  -8 -10 26054.4 2130.98   1
   3  -8  -9 3966.63 1167.31   1
  -3   8   8 11561.7 1127.87   1
  -3   8   7 39062.5 1788.57   1
  -3   8   6 12438.7 916.717   1
  -3   8   5 1807.76 1088.63   1
  -4  -8   2 4951.80 1121.24  -2
  -3   8   5 4951.80 1121.24   1
   3   8  -2 31867.8 1876.26  -2
   3  -8  -4 31867.8 1876.26   1
  -2  -8   2 33139.9 2611.63  -2
  -3   8   3 33139.9 2611.63   1
  -1  -8   2 5291.09 872.735  -2
  -3   8   2 5291.09 872.735   1
   3  -8  -1 38450.7 1679.99   1
  -3   8   0 46506.5 1851.91   1
  -3   8  -1 7663.68 856.622   1
   3  -8   2 11441.0 1010.36   1
   3  -8   3 57346.2 2081.91   1
   3  -8   4 33540.8 1459.88   1
  -3   8  -5 18679.2 1658.15   1
  -5   8  -3 18626.9 2562.61  -2
   3  -8   5 18626.9 2562.61   1
   6  -8   3 17209.4 3339.20  -2
  -3   8  -6 17209.4 3339.20   1
  -7   8  -3 18899.1 2410.79  -2
   3  -8   7 18899.1 2410.79   1
   3  -7 -11 16198.9 1817.03   1
  -3   7  10 45017.0 2672.99   1
  -3   7   9 22849.6 1882.82   1
  -3   7   8 2928.89 703.528   1
   3  -7  -7 47016.1 1564.16   1
   5   7  -2 41188.1 1488.95  -2
   3  -7  -6 41188.1 1488.95   1
  -4  -7   2 11646.0 1065.29  -2
  -3   7   5 11646.0 1065.29   1
  -3  -7   2 63570.3 2065.51  -2
  -3   7   4 63570.3 2065.51   1
  -3   7   3 40258.8 1591.75   1
  -2  -7   2 44644.2 2081.47  -2
  -3   7   3 44644.2 2081.47   1
  -3   7   2 6779.18 557.085   1
   3  -7  -1 1460.35 368.878   1
   3  -7   0 37241.7 1205.37   1
  -3   7  -1 9190.66 652.989   1
   3  -7   2 968.608 513.924   1
   3  -7   3 1556.23 446.254   1
  -3   7  -4 32920.0 2584.66   1
  -4   7  -3 44456.7 1698.84  -2
   3  -7   4 44456.7 1698.84   1
  -5   7  -3 20007.2 1465.88  -2
   3  -7   5 20007.2 1465.88   1
  -6   7  -3 524.500 910.214  -2
   3  -7   6 524.500 910.214   1
   3  -7   7 3702.03 964.552   1
   7  -7   3 3282.79 1944.02  -2
  -3   7  -7 3282.79 1944.02   1
  -3   7  -8 1584.38 746.156   1
  -3   7  -9 798.275 847.547   1
  -3   6  11 6951.75 1290.05   1
  -3   6  10 20155.8 1798.52   1
   3  -6  -9 15765.9 1558.21   1
   3  -6  -8 209.049 612.166   1
   6   6  -2 17814.2 1044.71  -2
   3  -6  -7 17814.2 1044.71   1
   5   6  -2 31120.0 1466.69  -2
   3  -6  -6 31120.0 1466.69   1
  -4  -6   2 29675.1 1362.56  -2
  -3   6   5 29675.1 1362.56   1
   3  -6  -4-43.0038 391.758   1
   3   6  -2 3154.41 885.766  -2
   3  -6  -4 3154.41 885.766   1
  -3   6   3 10441.0 573.450   1
   3  -6  -2 33482.8 1031.08   1
  -3   6   1 15689.4 704.568   1
  -3   6   0 6579.87 444.481   1
  -3   6  -1 10327.9 631.569   1
  -3   6  -2 23692.3 805.392   1
  -3   6  -3 43251.9 1087.68  -2
   3  -6   3 43251.9 1087.68   1
   4  -6   3 3986.33 631.529  -2
  -3   6  -4 3986.33 631.529   1
   5  -6   3 58279.4 1719.53  -2
  -3   6  -5 58279.4 1719.53   1
  -3   6  -6 14304.2 933.004   1
  -3   6  -7 967.758 645.878   1
  -3   6  -8 12948.4 1183.69   1
   3  -6   9 20714.8 1507.81   1
  -3   6 -10 287.821 898.404   1
  -3   5  12 11627.7 1574.84   1
  -3   5  11-477.200 1054.43   1
   3  -5 -10 9051.53 1317.56   1
   3  -5  -9 43024.4 1554.72   1
   7   5  -2 15634.8 1125.33  -2
   3  -5  -8 15634.8 1125.33   1
  -6  -5   2 3441.79 596.407  -2
  -3   5   7 3441.79 596.407   1
  -5  -5   2 28308.3 1037.57  -2
  -3   5   6 28308.3 1037.57   1
   3  -5  -5 57672.3 1272.06   1
  -3   5   4 30479.8 906.912   1
   3  -5  -3 2312.10 336.211   1
   3  -5  -2 66275.4 1203.42   1
   3  -5  -1 123892. 1725.94   1
  -3   5   0 48614.2 1267.80   1
   3  -5   1 52058.1 1170.33   1
   2  -5   3 83722.7 1302.16  -2
  -3   5  -2 83722.7 1302.16   1
  -3   5  -3 20067.3 821.632  -2
   3  -5   3 20067.3 821.632   1
  -4   5  -3 2011.74 472.395  -2
   3  -5   4 2011.74 472.395   1
  -3   5  -5 37654.0 1084.06   1
   3  -5   6 43360.0 1417.24   1
  -3   5  -7 3718.71 740.820   1
   3  -5   8 14845.4 1191.56   1
   3  -5   9 23035.5 1488.08   1
   3  -5  10 4990.55 1132.51   1
  -3   5 -11 2599.54 899.784   1
   3  -4 -12 34737.0 2366.26   1
   3  -4 -11 15569.9 1614.21   1
   9   4  -2 8043.22 1062.22  -2
   3  -4 -10 8043.22 1062.22   1
   8   4  -2 46955.2 2280.81  -2
   3  -4  -9 46955.2 2280.81   1
  -7  -4   2 115402. 2896.95  -2
  -3   4   8 115402. 2896.95   1
   6   4  -2 31867.4 942.811  -2
   3  -4  -7 31867.4 942.811   1
  -3   4   6 56280.4 1110.76   1
   3  -4  -5 146829. 1649.19   1
  -3   4   4 112117. 1631.30   1
   3  -4  -3 882.329 256.800   1
   3  -4  -2 86794.4 1185.62   1
   3  -4  -1 177006. 1770.09   1
  -3   4   0 75013.0 966.318   1
   1  -4   3 124300. 1394.91  -2
  -3   4  -1 124300. 1394.91   1
   2  -4   3 224237. 2373.40  -2
  -3   4  -2 224237. 2373.40   1
   3  -4   3 84447.4 2578.63   1
  -3   4  -3 103939. 1409.70  -2
   3  -4   3 103939. 1409.70   1
   3  -4   4 894.912 226.915   1
   3  -4   5 52380.7 1013.04   1
  -3   4  -6 47522.9 1373.55   1
  -3   4  -7 4922.94 717.305   1
   3  -4   8 7051.93 838.990   1
   3  -4   9 16091.8 1205.19   1
   3  -4  10 10601.3 1306.60   1
   9  -4   4 20001.8 2626.51  -2
  -3   4 -10 20001.8 2626.51   1
  10  -4   4 9667.85 1436.01  -2
  -3   4 -11 9667.85 1436.01   1
  11  -4   4 945.370 1825.61  -2
  -3   4 -12 945.370 1825.61   1
   3  -3 -13 4479.75 1679.23   1
   3  -3 -12 65915.8 3254.31   1
  10   3  -2 51420.0 2167.91  -2
   3  -3 -11 51420.0 2167.91   1
   9   3  -2 13038.3 1226.52  -2
   3  -3 -10 13038.3 1226.52   1
   8   3  -2 43883.7 1950.02  -2
   3  -3  -9 43883.7 1950.02   1
   7   3  -2 139001. 2438.51  -2
   3  -3  -8 139001. 2438.51   1
  -3   3   7 67657.7 1353.60   1
   3  -3  -6 9680.19 547.693   1
  -3   3   5 157609. 1688.97   1
  -3   3   4 281624. 2087.25   1
   3  -3  -3 11152.9 404.805   1
   3  -3  -2 75423.8 1324.52   1
   3  -3  -1 94010.3 948.194   1
   3  -3   0 56901.3 872.230   1
   0  -3   3 63315.8 891.190  -2
  -3   3   0 63315.8 891.190   1
  -1   3  -3 13130.2 429.582  -2
   3  -3   1 13130.2 429.582   1
  -3   3  -2 104293. 1222.33   1
   3  -3   3 135516. 1341.79   1
   3  -3   4 26770.2 652.444   1
   3  -3   5 721.464 220.843   1
  -3   3  -6 40922.0 783.095   1
   3  -3   7 64703.7 1556.30   1
   3  -3   8 12662.2 983.335   1
  -8   3  -4 4568.33 893.090  -2
   3  -3   9 4568.33 893.090   1
  -9   3  -4 15213.4 1527.68  -2
   3  -3  10 15213.4 1527.68   1
 -10   3  -4 20117.2 2370.81  -2
   3  -3  11 20117.2 2370.81   1
  11  -3   4 21572.7 1713.76  -2
  -3   3 -12 21572.7 1713.76   1
  -3   3 -13 3588.06 1782.96   1
  11   2  -2 24460.7 1481.21  -2
   3  -2 -12 24460.7 1481.21   1
 -10  -2   2 58436.6 2581.15  -2
  -3   2  11 58436.6 2581.15   1
   9   2  -2 11450.2 1146.35  -2
   3  -2 -10 11450.2 1146.35   1
   3  -2  -9 17632.5 2133.80   1
  -8  -2   2 27581.1 1408.79  -2
  -3   2   9 27581.1 1408.79   1
   3  -2  -8 52588.0 1545.38   1
   3  -2  -7 63387.4 1565.25   1
  -3   2   6 22052.7 743.632   1
  -3   2   5 19439.8 764.047   1
   3  -2  -4 64744.7 1093.37   1
   3  -2  -3 95734.9 1113.74   1
  -3   2   2 2487.95 282.914   1
   2   2  -3 16588.9 639.457  -2
   3  -2  -2 16588.9 639.457   1
   1   2  -3 100415. 1825.43  -2
   3  -2  -1 100415. 1825.43   1
   0   2  -3 224611. 2630.78  -2
   3  -2   0 224611. 2630.78   1
   3  -2   1 121131. 1095.36   1
  -3   2  -2 527.502 202.497   1
  -3   2  -3 45920.7 715.483   1
  -3   2  -4 161373. 1308.83   1
   3  -2   5 62253.2 907.435   1
   3  -2   6 11758.7 422.227   1
   3  -2   7 80985.4 1536.05   1
  -3   2  -8 166132. 3498.89   1
  -7   2  -4 175213. 3753.68  -2
   3  -2   8 175213. 3753.68   1
   8  -2   4 18329.0 1521.62  -2
  -3   2  -9 18329.0 1521.62   1
   9  -2   4 35080.2 2008.28  -2
  -3   2 -10 35080.2 2008.28   1
   3  -2  11 39779.2 3019.75   1
  10  -2   4 39902.8 2346.95  -2
  -3   2 -11 39902.8 2346.95   1
   3  -2  12 17291.1 1400.74   1
  11   1  -2 6770.88 1030.76  -2
   3  -1 -12 6770.88 1030.76   1
  10   1  -2 18821.9 1438.12  -2
   3  -1 -11 18821.9 1438.12   1
   3  -1 -10 20760.9 1716.95   1
  -9  -1   2 23805.4 1726.62  -2
  -3   1  10 23805.4 1726.62   1
   3  -1  -9 4647.51 626.041   1
  -3   1   8 5075.63 619.595   1
   3  -1  -7 28018.0 1096.14   1
  -3   1   6 30405.2 1052.77   1
  -3   1   5 1918.39 282.897   1
   3  -1  -4 19056.3 624.989   1
   3   1  -3 232491. 1919.52  -2
   3  -1  -3 232491. 1919.52   1
  -2  -1   3 89957.7 1566.04  -2
  -3   1   2 89957.7 1566.04   1
   1   1  -3 30233.6 856.765  -2
   3  -1  -1 30233.6 856.765   1
   3  -1   0 141756. 1709.28   1
   3  -1   1 304986. 1863.72   1
   3  -1   2 55090.8 811.106   1
  -3   1  -3 101837. 846.606   1
   3  -1   4 385291. 1679.21   1
   3  -1   5 143386. 1602.41   1
  -3   1  -6 271.942 213.741   1
  -3   1  -7 67755.4 1661.25   1
   6  -1   4 73644.0 1616.16  -2
  -3   1  -7 73644.0 1616.16   1
   7  -1   4 146871. 2851.22  -2
  -3   1  -8 146871. 2851.22   1
  -8   1  -4 58142.9 1915.51  -2
   3  -1   9 58142.9 1915.51   1
   3  -1  10 23609.7 1306.72   1
  -9   1  -4 27647.4 2421.51  -2
   3  -1  10 27647.4 2421.51   1
   3  -1  11 70747.7 2320.18   1
   3  -1  12 30509.8 2249.25   1
  -3   1 -13 1538.96 1042.57   1
 -12   0   2 6108.07 1733.39  -2
  -3   0  13 6108.07 1733.39   1
 -11   0   2 16559.2 1418.08  -2
  -3   0  12 16559.2 1418.08   1
   3   0 -11 860.732 775.349   1
 -10   0   2 16544.9 2334.14  -2
  -3   0  11 16544.9 2334.14   1
  -3   0  10 24687.8 1307.93   1
   3   0  -9 18680.9 1067.96   1
  -3   0   8 65.8280 488.183   1
   3   0  -7 39347.5 1310.76   1
   3   0  -6 61372.4 1492.07   1
  -3   0   5 37994.4 896.824   1
  -4   0   3 102850. 1470.91  -2
  -3   0   4 102850. 1470.91   1
   3   0  -3 219776. 2940.15  -2
   3   0  -3 219776. 2940.15   1
  -2   0   3 114774. 1714.55  -2
  -3   0   2 114774. 1714.55   1
   3   0  -1 3675.15 365.396   1
  -3   0   0 232134. 1528.76   1
   3   0   1 542844. 2454.02   1
   3   0   2 83934.3 744.102   1
   3   0   3 16080.4 542.821   1
   3   0   4 216377. 2004.84   1
   3   0   5 203845. 1886.81   1
  -3   0  -6 8565.34 1032.54   1
   5   0   4 12757.1 432.051  -2
  -3   0  -6 12757.1 432.051   1
  -6   0  -4 99168.7 1554.69  -2
   3   0   7 99168.7 1554.69   1
   7   0   4 55255.6 1405.13  -2
  -3   0  -8 55255.6 1405.13   1
   3   0   9 61415.6 1458.50   1
  -8   0  -4 60374.6 3192.97  -2
   3   0   9 60374.6 3192.97   1
   3   0  10 1403.65 432.107   1
   3   0  11 34669.8 1394.09   1
   3   0  12 27003.3 1402.14   1
   3   0  13 9930.42 1448.33   1
   3   1 -12 8421.30 1192.90   1
   3   1 -11 2572.06 724.762   1
  -3  -1  10 20966.8 1228.22   1
  -3  -1   9 33440.5 1413.77   1
  -3  -1   8 7211.68 718.286   1
  -3  -1   7 47658.4 1475.15   1
  -3  -1   6 78229.4 1962.65   1
   6  -1  -3 85033.6 3763.02  -2
   3   1  -6 85033.6 3763.02   1
  -5   1   3 36481.8 1002.98  -2
  -3  -1   5 36481.8 1002.98   1
   4  -1  -3 48706.6 1273.13  -2
   3   1  -4 48706.6 1273.13   1
  -3   1   3 174492. 1831.85  -2
  -3  -1   3 174492. 1831.85   1
  -3  -1   2 247337. 2143.57   1
   3   1  -1 1877.75 178.962   1
   3   1   0 77213.7 897.247   1
  -3  -1  -1 179319. 978.746   1
  -3  -1  -2 181442. 1181.04   1
   3   1   3 216.470 103.142   1
   3   1   4 24746.1 417.060   1
  -3  -1  -5 112950. 1268.33   1
  -4  -1  -4 127756. 1483.12  -2
   3   1   5 127756. 1483.12   1
   5   1   4 63577.7 1190.97  -2
  -3  -1  -6 63577.7 1190.97   1
  -3  -1  -7 1805.16 417.580   1
  -6  -1  -4 3537.43 363.275  -2
   3   1   7 3537.43 363.275   1
   3   1   8 17922.9 532.857   1
   3   1   9 54701.6 1234.87   1
   3   1  10 35188.4 1070.04   1
   3   1  11 1211.47 473.337   1
   3   1  12 26411.5 1225.11   1
  -3  -1 -13 47854.6 2235.43   1
  12   1   5 13361.6 2802.74  -2
  -3  -1 -14 13361.6 2802.74   1
   3   2 -11 1974.92 787.819   1
  -3  -2  10 3942.49 721.718   1
  -3  -2   9 17152.7 1084.33   1
  -3  -2   8 9501.35 786.566   1
  -3  -2   7 21.6240 882.737   1
   7  -2  -3 16781.2 1133.72  -2
   3   2  -7 16781.2 1133.72   1
   6  -2  -3 36602.6 1558.79  -2
   3   2  -6 36602.6 1558.79   1
  -5   2   3 14858.6 718.127  -2
  -3  -2   5 14858.6 718.127   1
   3   2  -4 10049.5 1228.40   1
  -4   2   3 20034.0 673.224  -2
  -3  -2   4 20034.0 673.224   1
  -3  -2   3 11384.6 528.000   1
  -3  -2   2 68354.7 1172.73   1
   3   2  -1 37470.5 841.595   1
   3   2   0 21695.7 515.654   1
   3   2   1 3380.38 212.573   1
   3   2   2 99676.3 886.391   1
   3   2   3 10449.0 300.837   1
   3   2   4 41374.2 686.652  -2
  -3  -2  -4 41374.2 686.652   1
   4   2   4 42117.1 765.092  -2
  -3  -2  -5 42117.1 765.092   1
   3   2   6 119309. 1549.32   1
  -5  -2  -4 122989. 1971.32  -2
   3   2   6 122989. 1971.32   1
   3   2   7 52596.1 837.472   1
   3   2   8 7628.53 409.644   1
   3   2   9 30155.7 1057.02   1
   3   2  10 67553.1 1644.14   1
   3   2  11 14644.7 876.208   1
   3   2  12 25457.1 1204.63   1
   3   2  13 52597.5 3830.76   1
 -11  -2  -5 56967.0 2134.90  -2
   3   2  13 56967.0 2134.90   1
 -12  -2  -5 29838.9 3025.89  -2
   3   2  14 29838.9 3025.89   1
  -3  -3  11 7414.07 1088.78   1
   3   3 -10 3255.60 903.961   1
   3   3  -9 1207.59 743.024   1
   8  -3  -3 1589.86 925.534  -2
   3   3  -8 1589.86 925.534   1
   7  -3  -3 43186.0 1914.75  -2
   3   3  -7 43186.0 1914.75   1
   6  -3  -3 23142.3 1273.37  -2
   3   3  -6 23142.3 1273.37   1
   3   3  -5 4663.59 1060.34   1
  -5   3   3 12514.7 827.132  -2
  -3  -3   5 12514.7 827.132   1
   3   3  -4 46299.0 968.990   1
   3   3  -3 55643.0 926.712   1
   3   3  -2 4685.31 338.907   1
  -3  -3   1 118634. 1394.88   1
   3   3   0 48908.8 769.564   1
   3   3   1 1679.64 186.618   1
   3   3   2 32325.7 520.471   1
  -1  -3  -4 62096.0 1210.09  -2
   3   3   2 62096.0 1210.09   1
  -2  -3  -4 199110. 1135.09  -2
   3   3   3 199110. 1135.09   1
   3   3   4 35155.4 638.159  -2
  -3  -3  -4 35155.4 638.159   1
   3   3   5 6346.77 298.226   1
   3   3   6 117917. 994.797   1
   3   3   7 75276.2 1093.80   1
   3   3   8 1705.54 307.601   1
   3   3   9 76810.7 1445.56   1
   3   3  10 84790.1 1850.47   1
  -3  -3 -11 13041.2 934.396   1
  -9  -3  -5 21840.1 2481.94  -2
   3   3  11 21840.1 2481.94   1
   3   3  12 10367.6 1709.80   1
 -10  -3  -5 13022.2 983.927  -2
   3   3  12 13022.2 983.927   1
 -11  -3  -5 30048.3 1802.25  -2
   3   3  13 30048.3 1802.25   1
 -12  -3  -5 22482.8 2217.74  -2
   3   3  14 22482.8 2217.74   1
   3   4 -10 18104.3 1527.12   1
  -9   4   3 16987.7 1594.21  -2
  -3  -4   9 16987.7 1594.21   1
   8  -4  -3 8428.10 1323.36  -2
   3   4  -8 8428.10 1323.36   1
   7  -4  -3 40805.3 1840.97  -2
   3   4  -7 40805.3 1840.97   1
   3   4  -6 39141.6 1640.47   1
  -3  -4   5 1716.43 366.146   1
  -3  -4   4 21855.9 637.708   1
  -3  -4   3 58388.0 998.259   1
   3   4  -2 9019.28 390.119   1
   3   4  -1 54659.1 866.124   1
   3   4   0 136621. 1352.70   1
  -3  -4  -1 18152.9 631.906   1
   0  -4  -4 24002.0 655.685  -2
   3   4   1 24002.0 655.685   1
  -1  -4  -4 60522.4 1034.53  -2
   3   4   2 60522.4 1034.53   1
   2   4   4 229808. 1357.74  -2
  -3  -4  -3 229808. 1357.74   1
  -3  -4  -4 1702.92 204.148   1
   3   4   5 2024.41 222.024   1
   3   4   6 90803.2 1172.64   1
   3   4   7 69334.4 1252.17   1
   3   4   8 8982.57 541.114   1
   3   4   9 13236.4 668.348   1
   3   4  10 29069.2 1257.03   1
  -8  -4  -5 30192.9 2754.75  -2
   3   4  10 30192.9 2754.75   1
  -9  -4  -5 16109.8 1002.68  -2
   3   4  11 16109.8 1002.68   1
 -10  -4  -5 4592.12 842.817  -2
   3   4  12 4592.12 842.817   1
 -11  -4  -5 22334.0 1546.86  -2
   3   4  13 22334.0 1546.86   1
 -12  -4  -5 24518.1 2309.93  -2
   3   4  14 24518.1 2309.93   1
  10  -5  -3 35289.8 4153.83  -2
   3   5 -10 35289.8 4153.83   1
   9  -5  -3 24380.2 2265.21  -2
   3   5  -9 24380.2 2265.21   1
  -8   5   3 5367.62 935.189  -2
  -3  -5   8 5367.62 935.189   1
   3   5  -7 14358.5 1028.91   1
   3   5  -6 70522.5 2262.20   1
   3   5  -5 1186.73 511.616   1
   3   5  -4 13450.1 776.212   1
  -3  -5   3 18923.6 610.036   1
  -3  -5   2 8183.44 490.794   1
   3   5  -1 2137.38 249.522   1
  -3  -5   0 25539.6 1709.24   1
   1  -5  -4 37540.0 787.942  -2
   3   5   0 37540.0 787.942   1
   0   5   4 36192.9 756.311  -2
  -3  -5  -1 36192.9 756.311   1
  -3  -5  -2 850.348 396.978   1
  -1  -5  -4 1578.93 268.639  -2
   3   5   2 1578.93 268.639   1
   3   5   3 12582.4 398.456   1
  -3  -5  -4 53674.8 960.446   1
  -3  -5  -5 14525.6 536.515   1
   3   5   6 580.559 234.400   1
  -3  -5  -7 9818.02 496.139   1
   3   5   8 14728.2 628.057   1
   3   5   9 14117.2 902.238   1
  -7  -5  -5 16338.4 1980.56  -2
   3   5   9 16338.4 1980.56   1
  -8  -5  -5 14092.4 906.863  -2
   3   5  10 14092.4 906.863   1
  -9  -5  -5 18016.0 1287.75  -2
   3   5  11 18016.0 1287.75   1
 -10  -5  -5 23033.7 1562.91  -2
   3   5  12 23033.7 1562.91   1
  -3  -5 -13 5900.63 1530.94   1
 -11  -5  -5 12718.3 1414.71  -2
   3   5  13 12718.3 1414.71   1
   3   5  14 3503.65 1163.55   1
  -9   6   3 20858.7 1515.75  -2
  -3  -6   9 20858.7 1515.75   1
  -3  -6   8 5644.22 828.610   1
  -3  -6   7 575.212 604.978   1
   3   6  -6 7870.83 930.967   1
   3   6  -5 32832.3 1572.44   1
   3   6  -4 1983.64 485.726   1
   3   6  -3 3488.91 402.517   1
   3   6  -2 14155.5 764.497   1
   2  -6  -4 14704.2 773.444  -2
   3   6  -1 14704.2 773.444   1
   1  -6  -4 19822.7 630.789  -2
   3   6   0 19822.7 630.789   1
   3   6   1 8606.88 765.849   1
   0  -6  -4 14518.4 510.666  -2
   3   6   1 14518.4 510.666   1
   3   6   2 44348.5 831.549   1
   3   6   3 50873.9 862.485   1
  -3  -6  -4 3005.00 321.939   1
  -3  -6  -5 33589.9 863.881   1
   3   6   6 103043. 1420.38   1
   3   6   7 1556.78 325.998   1
   3   6   8 26009.3 919.177   1
  -6  -6  -5 18644.7 2166.08  -2
   3   6   8 18644.7 2166.08   1
   7   6   5 49709.7 1296.18  -2
  -3  -6  -9 49709.7 1296.18   1
  -8  -6  -5 37801.4 1469.61  -2
   3   6  10 37801.4 1469.61   1
  -9  -6  -5 15731.8 1430.31  -2
   3   6  11 15731.8 1430.31   1
  -3  -6 -12 20662.1 1754.01   1
 -10  -6  -5 22092.1 2853.72  -2
   3   6  12 22092.1 2853.72   1
   3   6  13 17525.9 2687.24   1
   3   7  -9 13464.0 1579.97   1
  -3  -7   8 14975.3 1223.14   1
   3   7  -7 4191.45 704.986   1
   3   7  -6 1046.18 637.562   1
  -3  -7   5 54564.3 2089.12   1
   3   7  -4 42421.3 1486.63   1
   3   7  -3 6300.50 900.128   1
  -4   7   4 19575.7 1418.27  -2
  -3  -7   3 19575.7 1418.27   1
   3  -7  -4 41330.8 1568.03  -2
   3   7  -2 41330.8 1568.03   1
   2  -7  -4 71682.2 1932.28  -2
   3   7  -1 71682.2 1932.28   1
   3   7   0 16379.8 844.039   1
   1  -7  -4 16277.4 865.956  -2
   3   7   0 16277.4 865.956   1
  -3  -7  -1 8518.67 506.198   1
  -3  -7  -2 84146.3 1234.63   1
   3   7   3 55097.7 994.976   1
  -3  -7  -4 5655.27 436.059   1
  -3  -7  -5 19467.0 723.693   1
   3   7   6 55826.2 1221.73   1
  -3  -7  -7 15256.7 1481.90   1
  -5  -7  -5 27997.5 1163.20  -2
   3   7   7 27997.5 1163.20   1
   6   7   5 12447.2 822.977  -2
  -3  -7  -8 12447.2 822.977   1
  -7  -7  -5 36623.3 1650.88  -2
   3   7   9 36623.3 1650.88   1
  -8  -7  -5 39018.3 1557.82  -2
   3   7  10 39018.3 1557.82   1
   3   7  11 4938.90 1077.86   1
   3   7  12 8990.29 1416.04   1
   3   7  13 3149.04 1461.89   1
  -3  -8   8 48011.9 4026.75   1
   3   8  -7 15576.3 1410.23   1
   3   8  -6 2330.08 957.460   1
   3   8  -5 21255.8 1821.88   1
   3   8  -4 46414.3 3113.31   1
   5  -8  -4 45534.5 2718.67  -2
   3   8  -4 45534.5 2718.67   1
   4  -8  -4 11141.4 1173.40  -2
   3   8  -3 11141.4 1173.40   1
   3  -8  -4 34948.9 1755.63  -2
   3   8  -2 34948.9 1755.63   1
   3   8  -1 93905.3 3095.05   1
   2  -8  -4 96733.8 2966.29  -2
   3   8  -1 96733.8 2966.29   1
  -3  -8   0 22912.4 866.123   1
   3   8   1 909.064 331.523   1
   3   8   2 70239.6 1377.72   1
  -3  -8  -3 37808.0 1021.40   1
   3   8   4 91.9992 340.406   1
  -3  -8  -5 20848.4 810.339   1
  -3  -8  -6 8130.90 1223.64   1
  -4  -8  -5 9008.79 709.639  -2
   3   8   6 9008.79 709.639   1
  -5  -8  -5 24467.8 1369.76  -2
   3   8   7 24467.8 1369.76   1
  -6  -8  -5 2509.67 625.963  -2
   3   8   8 2509.67 625.963   1
  -7  -8  -5 2519.05 619.923  -2
   3   8   9 2519.05 619.923   1
   3   8  10 3427.91 603.739   1
   3   8  11 3956.49 1038.98   1
   3   8  12 2342.36 1702.30   1
   3   8  13 4917.30 1955.48   1
   3   9  -6 532.616 1539.77   1
  -7   9   4 6268.70 2023.24  -2
  -3  -9   6 6268.70 2023.24   1
  -6   9   4 30322.1 2102.32  -2
  -3  -9   5 30322.1 2102.32   1
   5  -9  -4 52954.2 3025.76  -2
   3   9  -4 52954.2 3025.76   1
   4  -9  -4 11558.9 1190.10  -2
   3   9  -3 11558.9 1190.10   1
   3   9  -2 3703.83 781.450   1
   3  -9  -4 7138.08 1634.00  -2
   3   9  -2 7138.08 1634.00   1
   3   9  -1 36333.0 1469.75   1
   3   9   0 30211.1 1051.30   1
  -3  -9  -1 5019.36 493.714   1
   3   9   2 1647.53 450.473   1
  -3  -9  -3 43011.7 1343.25   1
  -3  -9  -4 36433.6 1241.19   1
  -3  -9  -5 3845.21 641.875  -2
   3   9   5 3845.21 641.875   1
  -4  -9  -5 6645.32 791.300  -2
   3   9   6 6645.32 791.300   1
  -5  -9  -5 22484.6 1326.26  -2
   3   9   7 22484.6 1326.26   1
   6   9   5 22101.2 1124.94  -2
  -3  -9  -8 22101.2 1124.94   1
   3   9   9 977.193 533.385   1
   3   9  10 3972.37 727.128   1
   3   9  11 50176.8 3944.29   1
   3   9  12 10626.4 1474.85   1
   6 -10  -4 1167.15 1094.28  -2
   3  10  -5 1167.15 1094.28   1
   5 -10  -4 17606.9 1750.56  -2
   3  10  -4 17606.9 1750.56   1
   3  10  -3 40762.9 2457.96   1
   4 -10  -4 44054.0 2551.55  -2
   3  10  -3 44054.0 2551.55   1
   3  10  -2 17381.7 1166.24   1
   3  10  -1 1808.50 577.410   1
   3  10   0 45673.0 1716.57   1
   3  10   1 19667.5 1027.02   1
   3  10   2 38310.5 1372.93   1
   3  10   3 7531.04 1148.98   1
  -1 -10  -5 11385.2 1369.80  -2
   3  10   3 11385.2 1369.80   1
  -2 -10  -5 79046.5 2728.52  -2
   3  10   4 79046.5 2728.52   1
  -3 -10  -5 75616.3 2699.80  -2
   3  10   5 75616.3 2699.80   1
   4  10   5 2525.06 835.270  -2
  -3 -10  -6 2525.06 835.270   1
   3  10   7 31494.3 2079.80   1
   5  10   5 35722.2 2268.81  -2
  -3 -10  -7 35722.2 2268.81   1
   3  10   8 70364.5 2198.51   1
   3  10   9 11904.7 1015.10   1
   3  10  10 7947.78 1026.51   1
   3  10  11 27572.1 2205.45   1
  -3 -11   3 25453.2 1761.10   1
   3  11  -2 53396.3 2401.57   1
   3  11  -1 11616.2 1261.55   1
   3  11   0 28111.9 1769.43   1
   3  11   1 74355.1 2302.49   1
   0 -11  -5 22406.6 1425.48  -2
   3  11   2 22406.6 1425.48   1
  -1 -11  -5 4047.63 961.639  -2
   3  11   3 4047.63 961.639   1
  -2 -11  -5 60619.0 2519.00  -2
   3  11   4 60619.0 2519.00   1
  -3 -11  -5 70601.5 2568.58  -2
   3  11   5 70601.5 2568.58   1
   3  11   6 7880.48 1043.93   1
   4  11   5 7346.57 2070.10  -2
  -3 -11  -6 7346.57 2070.10   1
   3  11   7 20333.7 1324.65   1
  -3 -11  -8 53482.7 2039.69   1
   3  11   9 27267.1 1527.67   1
   3  11  10 4798.69 1105.92   1
   3  12  -1 10679.7 2296.55   1
   3  12   0 3819.29 1057.57   1
   1 -12  -5 69694.0 2946.84  -2
   3  12   1 69694.0 2946.84   1
   0 -12  -5 12432.6 1474.38  -2
   3  12   2 12432.6 1474.38   1
   1  12   5 169.875 900.998  -2
  -3 -12  -3 169.875 900.998   1
   2  12   5 37960.3 1923.49  -2
  -3 -12  -4 37960.3 1923.49   1
   3  12   5 37142.0 2501.82   1
   3  12   5 44338.3 2700.81  -2
  -3 -12  -5 44338.3 2700.81   1
  -3 -12  -6 8097.53 959.683   1
   3  12   7 1627.89 708.708   1
   3  12   8 14871.5 1422.59   1
   3  12   9 12814.9 2259.27   1
   0  13   5 24323.2 2904.07  -2
  -3 -13  -2 24323.2 2904.07   1
  -4  11   5 403.382 1578.21   1
  -4  11   4 38675.2 2165.16   1
   4 -11  -3 47542.4 2906.46   1
   2  11  -3 47984.4 4131.80  -2
   4 -11  -3 47984.4 4131.80   1
   1  11  -3 7636.45 1365.95  -2
   4 -11  -2 7636.45 1365.95   1
   0  11  -3 11658.9 1537.65  -2
   4 -11  -1 11658.9 1537.65   1
  -1  11  -3 37889.2 2725.09  -2
   4 -11   0 37889.2 2725.09   1
   2 -11   3 23818.5 2252.45  -2
  -4  11  -1 23818.5 2252.45   1
   4 -10  -7 10714.5 1470.66   1
   4 -10  -6 20440.9 1933.93   1
   4 -10  -5 2113.55 913.186   1
  -4  10   4 3569.23 1388.95   1
   3  10  -3 14353.6 1887.47  -2
   4 -10  -4 14353.6 1887.47   1
   2  10  -3 36093.7 2335.61  -2
   4 -10  -3 36093.7 2335.61   1
   1  10  -3 23078.6 1698.20  -2
   4 -10  -2 23078.6 1698.20   1
   0 -10   3 2477.30 1026.40  -2
  -4  10   1 2477.30 1026.40   1
  -4  10   0 3633.88 1511.51   1
  -1  10  -3 4705.48 1346.15  -2
   4 -10   0 4705.48 1346.15   1
   4 -10   1 18613.5 1460.29   1
   4 -10   2 24668.5 2055.76   1
   4 -10   3 182.131 828.263   1
  -4  10  -4 590.516 1061.52   1
  -4   9   9 6808.99 1897.26   1
   4  -9  -8 898.128 1002.78   1
  -4   9   7 2495.47 801.798   1
   4  -9  -6 19330.2 1807.20   1
   4   9  -3 20441.3 1921.63  -2
   4  -9  -5 20441.3 1921.63   1
   3   9  -3 5742.83 1391.04  -2
   4  -9  -4 5742.83 1391.04   1
   2   9  -3 10359.4 1452.15  -2
   4  -9  -3 10359.4 1452.15   1
   1   9  -3 51558.8 2523.12  -2
   4  -9  -2 51558.8 2523.12   1
   4  -9  -1 20409.6 1748.24   1
   0   9  -3 24218.0 2673.48  -2
   4  -9  -1 24218.0 2673.48   1
   4  -9   0 1109.68 697.071   1
  -4   9  -1 32981.4 1739.58   1
  -4   9  -2 49772.8 2111.91   1
   4  -9   3 22549.0 1945.41   1
  -4   9  -4 16113.8 1390.17   1
  -4   9  -5 26417.4 2837.59   1
   5  -9   4 28072.5 2417.32  -2
  -4   9  -5 28072.5 2417.32   1
   6  -9   4 32136.5 3011.06  -2
  -4   9  -6 32136.5 3011.06   1
  -4   8  10 419.124 1640.74   1
   4  -8  -9 12032.8 1588.89   1
   4  -8  -8 36442.5 2367.92   1
  -4   8   7 3730.73 809.982   1
  -5  -8   3 18598.2 1222.82  -2
  -4   8   6 18598.2 1222.82   1
   4   8  -3 58970.4 2707.87  -2
   4  -8  -5 58970.4 2707.87   1
   3   8  -3 21451.7 1723.09  -2
   4  -8  -4 21451.7 1723.09   1
   2   8  -3 15089.7 1557.47  -2
   4  -8  -3 15089.7 1557.47   1
  -4   8   2 50180.6 2470.01   1
   4  -8  -1 64266.9 2209.26   1
   4  -8   0 8962.93 966.240   1
  -4   8  -1 12253.8 1066.13   1
   4  -8   2 70706.9 2320.68   1
  -4   8  -3 53877.1 2062.95   1
  -4   8  -4 12630.3 1523.47  -2
   4  -8   4 12630.3 1523.47   1
   5  -8   4 67510.7 3208.79  -2
  -4   8  -5 67510.7 3208.79   1
  -6   8  -4 43228.2 3532.37  -2
   4  -8   6 43228.2 3532.37   1
   4  -8   7 9384.99 2006.65   1
   7  -8   4 9666.55 2834.68  -2
  -4   8  -7 9666.55 2834.68   1
   4  -8   8 11928.6 2416.36   1
   4  -7 -10 6162.75 1374.54   1
  -4   7   9 4917.99 1136.97   1
   4  -7  -8 24228.8 1899.31   1
  -6  -7   3 31935.0 1467.93  -2
  -4   7   7 31935.0 1467.93   1
   5   7  -3 21998.2 1527.78  -2
   4  -7  -6 21998.2 1527.78   1
   4   7  -3 52590.6 2088.21  -2
   4  -7  -5 52590.6 2088.21   1
  -4   7   4 52835.1 3049.24   1
   3   7  -3 54158.2 1922.81  -2
   4  -7  -4 54158.2 1922.81   1
  -4   7   3 431.275 533.403   1
   4  -7  -2 8609.59 810.949   1
  -4   7   1 82014.2 2884.09   1
   4  -7   0 2888.41 642.266   1
   4  -7   1 5583.50 729.914   1
   4  -7   2 31550.8 1486.51   1
   3  -7   4 41991.5 1724.77  -2
  -4   7  -3 41991.5 1724.77   1
   4  -7   4 30340.7 2491.27  -2
  -4   7  -4 30340.7 2491.27   1
   5  -7   4 10163.5 1367.96  -2
  -4   7  -5 10163.5 1367.96   1
   4  -7   6 28909.5 2975.81   1
   6  -7   4 28424.4 3236.23  -2
  -4   7  -6 28424.4 3236.23   1
   4  -7   7 20873.5 1934.50   1
  -4   7  -8 1770.57 1017.11   1
   4  -7   9 6252.42 1903.20   1
  -4   6  11 6564.76 1261.89   1
   4  -6 -10 19301.9 1843.02   1
  -4   6   9 751.684 972.419   1
  -7  -6   3 5831.28 1023.29  -2
  -4   6   8 5831.28 1023.29   1
   6   6  -3 7943.13 1008.30  -2
   4  -6  -7 7943.13 1008.30   1
   5   6  -3 7530.23 885.847  -2
   4  -6  -6 7530.23 885.847   1
  -4   6   5 1386.86 900.627   1
   4   6  -3 8216.03 894.680  -2
   4  -6  -5 8216.03 894.680   1
  -4   6   4 5450.09 587.637   1
   4  -6  -3 7624.27 654.436   1
   4  -6  -2 2819.29 451.722   1
   4  -6  -1 7486.89 702.945   1
  -4   6   0 15781.6 936.479   1
   4  -6   1 9042.91 801.233   1
  -2   6  -4 2027.93 655.153  -2
   4  -6   2 2027.93 655.153   1
  -3   6  -4 7448.10 958.098  -2
   4  -6   3 7448.10 958.098   1
   4  -6   4 38300.8 1477.27  -2
  -4   6  -4 38300.8 1477.27   1
  -4   6  -5 18249.4 1307.91   1
  -5   6  -4 25252.8 2548.76  -2
   4  -6   5 25252.8 2548.76   1
   4  -6   6 2038.68 534.415   1
   4  -6   7 27461.9 1562.55   1
  -4   6  -8 42400.0 1997.18   1
   4  -6   9 87.2686 804.643   1
  -4   6 -10 9374.72 1169.55   1
  -4   5  11-52.7260 1021.30   1
   4  -5 -10 4044.38 1036.95   1
   8   5  -3 16869.6 1542.57  -2
   4  -5  -9 16869.6 1542.57   1
   7   5  -3 3741.79 708.370  -2
   4  -5  -8 3741.79 708.370   1
  -6  -5   3 1340.90 565.900  -2
  -4   5   7 1340.90 565.900   1
   4  -5  -6 9605.04 652.727   1
  -4   5   5 10649.5 651.375   1
   4  -5  -4 4035.26 515.721   1
   4  -5  -3 6867.18 581.650   1
   4  -5  -2 16017.9 801.404   1
   4  -5  -1 29802.9 836.165   1
   4  -5   0 39325.4 1001.61   1
  -1   5  -4 58347.4 1773.27  -2
   4  -5   1 58347.4 1773.27   1
   2  -5   4 33874.2 1219.47  -2
  -4   5  -2 33874.2 1219.47   1
  -3   5  -4 4126.19 417.365  -2
   4  -5   3 4126.19 417.365   1
   4  -5   4 32334.6 850.014   1
  -4   5  -5 41048.2 1505.16   1
  -4   5  -6-19.6366 459.590   1
   4  -5   7 22765.6 1369.75   1
   4  -5   8 31345.9 1634.92   1
  -4   5  -9 4352.72 813.473   1
   4  -5  10 236.366 903.330   1
   9  -5   5 5546.37 1907.98  -2
  -4   5 -10 5546.37 1907.98   1
  10  -5   5 38479.6 2974.78  -2
  -4   5 -11 38479.6 2974.78   1
   4  -4 -12 20636.7 2816.14   1
  10   4  -3 4528.98 1053.39  -2
   4  -4 -11 4528.98 1053.39   1
   9   4  -3 419.319 814.030  -2
   4  -4 -10 419.319 814.030   1
  -8  -4   3 58628.9 2492.96  -2
  -4   4   9 58628.9 2492.96   1
   7   4  -3 35956.8 1476.93  -2
   4  -4  -8 35956.8 1476.93   1
   4  -4  -7 126.532 382.209   1
   4  -4  -6 32372.3 1064.36   1
   4  -4  -5 30685.6 993.921   1
   4  -4  -4 1110.08 333.369   1
   4  -4  -3 37846.7 1019.41   1
   4  -4  -2 63109.6 1672.96   1
   4  -4  -1 22739.5 1253.25   1
   1   4  -4 23394.2 1841.59  -2
   4  -4  -1 23394.2 1841.59   1
   0   4  -4 34970.7 829.177  -2
   4  -4   0 34970.7 829.177   1
   1  -4   4 52655.4 1084.14  -2
  -4   4  -1 52655.4 1084.14   1
   4  -4   2 44609.2 947.054   1
  -2   4  -4 56727.3 1711.52  -2
   4  -4   2 56727.3 1711.52   1
   4  -4   3 917.723 234.637   1
  -4   4  -4 42121.0 895.859   1
  -4   4  -5 26556.2 797.819   1
   4  -4   6 6294.35 571.439   1
  -4   4  -7 12286.7 1014.37   1
   4  -4   8 16494.3 1181.46   1
  -4   4  -9 3107.70 735.517   1
   9  -4   5 12468.5 1433.28  -2
  -4   4 -10 12468.5 1433.28   1
  10  -4   5 4072.36 1082.35  -2
  -4   4 -11 4072.36 1082.35   1
  11  -4   5 17758.1 3530.73  -2
  -4   4 -12 17758.1 3530.73   1
  -4   3  12 48927.3 4235.75   1
  11   3  -3 57808.9 4418.07  -2
   4  -3 -12 57808.9 4418.07   1
  10   3  -3 12365.8 1571.77  -2
   4  -3 -11 12365.8 1571.77   1
   9   3  -3 3881.79 1047.06  -2
   4  -3 -10 3881.79 1047.06   1
   8   3  -3 46523.7 1933.24  -2
   4  -3  -9 46523.7 1933.24   1
   4  -3  -8 35669.9 1628.46   1
   4  -3  -7 572.733 557.593   1
   4  -3  -6 42970.5 1014.98   1
   4  -3  -5 118585. 1567.02   1
   4  -3  -4 7793.63 405.361   1
   4  -3  -3 4107.23 266.190   1
   4  -3  -2 73810.3 2789.46   1
   2   3  -4 76348.3 1692.42  -2
   4  -3  -2 76348.3 1692.42   1
   1   3  -4 29008.4 1363.71  -2
   4  -3  -1 29008.4 1363.71   1
   0   3  -4 13224.7 693.630  -2
   4  -3   0 13224.7 693.630   1
   4  -3   1 49541.1 821.616   1
   1  -3   4 57421.6 2455.44  -2
  -4   3  -1 57421.6 2455.44   1
   4  -3   2 11821.6 356.770   1
   4  -3   3 18317.8 538.846   1
   4  -3   4 547.830 173.529   1
   4  -3   5 767.692 199.187   1
   4  -3   6 9476.89 561.441   1
   4  -3   7 3330.75 429.135   1
  -4   3  -8 1780.60 715.002   1
  -7   3  -5 2801.09 1279.97  -2
   4  -3   8 2801.09 1279.97   1
   8  -3   5 14348.0 1458.60  -2
  -4   3  -9 14348.0 1458.60   1
   9  -3   5 7753.14 1237.20  -2
  -4   3 -10 7753.14 1237.20   1
  10  -3   5 9039.71 1181.61  -2
  -4   3 -11 9039.71 1181.61   1
  -4   3 -12 1967.88 1090.91   1
 -11  -2   3 42228.2 2897.56  -2
  -4   2  12 42228.2 2897.56   1
  10   2  -3 37697.4 2477.84  -2
   4  -2 -11 37697.4 2477.84   1
   4  -2 -10 803.911 1091.96   1
   9   2  -3 1701.27 1107.09  -2
   4  -2 -10 1701.27 1107.09   1
  -4   2   9 13301.5 933.213   1
   4  -2  -8 53670.0 1623.97   1
   4  -2  -7 26879.3 1099.79   1
   4  -2  -6 1526.71 418.353   1
   4  -2  -5 40290.9 1008.38   1
   4  -2  -4 59539.2 1125.08   1
  -3  -2   4 42553.8 860.469  -2
  -4   2   3 42553.8 860.469   1
   2   2  -4 16606.4 590.284  -2
   4  -2  -2 16606.4 590.284   1
   1   2  -4 85330.8 2112.49  -2
   4  -2  -1 85330.8 2112.49   1
   4  -2   0 123751. 1959.79   1
  -4   2  -1 18065.9 780.315   1
   4  -2   2 378.825 200.049   1
   4  -2   3 74649.9 912.810   1
   4  -2   4 55932.1 799.580   1
   4  -2   5 410.502 148.255   1
   4  -2   6 3891.02 397.198   1
  -4   2  -7 83326.7 1826.30   1
  -6   2  -5 118739. 2457.07  -2
   4  -2   7 118739. 2457.07   1
   7  -2   5 40435.2 1576.83  -2
  -4   2  -8 40435.2 1576.83   1
  -8   2  -5 7671.85 891.596  -2
   4  -2   9 7671.85 891.596   1
   4  -2  10 27868.7 2538.42   1
  -9   2  -5 38859.9 2169.43  -2
   4  -2  10 38859.9 2169.43   1
  -4   2 -11 4093.64 775.228   1
  -4   2 -12 1713.22 806.463   1
  11   1  -3 4188.67 1202.44  -2
   4  -1 -12 4188.67 1202.44   1
  -4   1  11 34992.8 1882.64   1
 -10  -1   3 36189.7 3356.90  -2
  -4   1  11 36189.7 3356.90   1
  -4   1  10 19629.3 1203.60   1
   4  -1  -9 371.817 534.564   1
  -4   1   8 23606.6 1145.63   1
   4  -1  -7 62636.9 1667.47   1
   4  -1  -6 57853.8 1274.94   1
   4  -1  -5 483.443 274.773   1
  -4  -1   4 173006. 1950.12  -2
  -4   1   4 173006. 1950.12   1
  -3  -1   4 113611. 2124.05  -2
  -4   1   3 113611. 2124.05   1
   2   1  -4 102808. 1804.16  -2
   4  -1  -2 102808. 1804.16   1
   4  -1  -1 27640.2 808.951   1
   4  -1   0 215293. 2384.01   1
   4  -1   1 201604. 2260.54   1
   4  -1   2 2820.58 258.152   1
   4  -1   3 71377.1 1074.09   1
   4  -1   4 150229. 1514.04   1
   4  -1   5 9282.18 484.825   1
   4  -1   6 31023.8 1274.29   1
  -5   1  -5 43846.6 1418.38  -2
   4  -1   6 43846.6 1418.38   1
   6  -1   5 106134. 2027.40  -2
  -4   1  -7 106134. 2027.40   1
   7  -1   5 65329.7 1795.31  -2
  -4   1  -8 65329.7 1795.31   1
   4  -1   9 837.207 544.844   1
  -8   1  -5 6633.38 1049.73  -2
   4  -1   9 6633.38 1049.73   1
   4  -1  10 42806.5 1508.15   1
   4  -1  11 14219.2 1152.74   1
   4  -1  12 151.122 887.604   1
   4  -1  13 1657.65 1268.41   1
  -4   0  12-481.367 1153.67   1
 -11   0   3 5053.21 2086.99  -2
  -4   0  12 5053.21 2086.99   1
   4   0 -11 21327.8 1342.77   1
  -4   0  10 66746.7 2116.09   1
   4   0  -9 13882.6 1002.53   1
   4   0  -8 8934.67 796.124   1
  -4   0   7 82044.5 1946.56   1
  -4   0   6 85477.8 1528.42   1
   5   0  -4 47480.4 1197.72  -2
   4   0  -5 47480.4 1197.72   1
  -4   0   4 127419. 1942.97  -2
  -4   0   4 127419. 1942.97   1
  -3   0   4 231252. 1736.93  -2
  -4   0   3 231252. 1736.93   1
   4   0  -2 111582. 1347.05   1
   4   0  -1 9474.05 460.338   1
   4   0   0 175201. 1536.83   1
   4   0   1 195576. 1398.91   1
   4   0   2 942.458 165.230   1
   4   0   3 90052.3 1046.59   1
   4   0   4 182127. 2021.93   1
   4   0   5 93784.3 1556.50  -2
  -4   0  -5 93784.3 1556.50   1
   5   0   5 36190.2 1079.00  -2
  -4   0  -6 36190.2 1079.00   1
   6   0   5 30224.9 851.005  -2
  -4   0  -7 30224.9 851.005   1
   4   0   8 69793.7 1277.41   1
   4   0   9 6102.63 574.900   1
  -4   0 -10 7962.86 656.322   1
   4   0  11 23274.4 1234.44   1
   4   0  12 7888.92 977.170   1
   4   0  13 2608.77 965.078   1
  -4  -1  12 155.407 1648.71   1
   4   1 -11 12367.3 1092.18   1
  -4  -1  10 53727.1 1953.56   1
   4   1  -9 34791.8 1504.92   1
   4   1  -8 7828.85 780.514   1
  -4  -1   7 97531.0 2966.34   1
   7  -1  -4 99958.7 3153.40  -2
   4   1  -7 99958.7 3153.40   1
   6  -1  -4 83201.4 2226.67  -2
   4   1  -6 83201.4 2226.67   1
   5  -1  -4 24698.8 993.801  -2
   4   1  -5 24698.8 993.801   1
   4  -1  -4 58898.5 1294.60  -2
   4   1  -4 58898.5 1294.60   1
  -4  -1   3 179677. 2444.37   1
  -4  -1   2 18511.6 689.662   1
   4   1  -1 208.716 158.940   1
   4   1   0 53723.3 867.136   1
   4   1   1 200514. 1304.07   1
   4   1   2 108261. 861.565   1
   4   1   3 732.445 164.164   1
   4   1   4 58619.0 2273.57   1
   3   1   5 87649.2 1490.97  -2
  -4  -1  -4 87649.2 1490.97   1
  -4  -1  -5 149435. 2607.70  -2
   4   1   5 149435. 2607.70   1
   4   1   6 23858.1 1242.94   1
   5   1   5 29144.1 841.550  -2
  -4  -1  -6 29144.1 841.550   1
   4   1   7 1125.91 223.200   1
   4   1   8 54313.9 1109.28   1
   4   1   9 67326.4 1508.80   1
   4   1  10 35067.7 1376.15   1
   4   1  11 2675.29 580.948   1
   4   1  12 40259.1 1664.64   1
   4   1  13 23977.8 1946.11   1
 -11  -1  -6 30101.8 3155.85  -2
   4   1  13 30101.8 3155.85   1
  12   1   6 3837.23 2310.31  -2
  -4  -1 -14 3837.23 2310.31   1
  -4  -2  11 12075.1 1382.71   1
   4   2 -10 24816.3 1692.36   1
   4   2  -9 27268.3 1380.46   1
  -8   2   4 7340.54 825.907  -2
  -4  -2   8 7340.54 825.907   1
   7  -2  -4 25805.2 1501.43  -2
   4   2  -7 25805.2 1501.43   1
  -6   2   4 51634.7 1992.40  -2
  -4  -2   6 51634.7 1992.40   1
   4   2  -5 19116.2 1859.20   1
  -5   2   4 20732.6 1335.28  -2
  -4  -2   5 20732.6 1335.28   1
   4   2  -4 2312.49 322.920   1
  -4  -2   3 69979.4 1386.09   1
  -4  -2   2 102239. 1596.78   1
  -4  -2   1 42014.7 989.593   1
   4   2   0 4199.62 305.114   1
   4   2   1 43032.1 688.236   1
   4   2   2 127036. 1315.54   1
  -1  -2  -5 172713. 3376.96  -2
   4   2   2 172713. 3376.96   1
   2   2   5 181107. 1568.06  -2
  -4  -2  -3 181107. 1568.06   1
   3   2   5 18624.2 636.493  -2
  -4  -2  -4 18624.2 636.493   1
   4   2   5 176180. 1694.76   1
   4   2   5 218510. 2530.09  -2
  -4  -2  -5 218510. 2530.09   1
   4   2   6 242551. 1510.44   1
   4   2   7 17489.6 545.154   1
   4   2   8 9206.36 441.734   1
   4   2   9 124258. 1996.96   1
   4   2  10 51487.4 1649.65   1
   4   2  11 298.023 535.536   1
   4   2  12 42016.5 2391.19   1
  10   2   6 48245.1 2567.29  -2
  -4  -2 -12 48245.1 2567.29   1
 -11  -2  -6 61041.8 3065.65  -2
   4   2  13 61041.8 3065.65   1
 -12  -2  -6 19071.1 1643.15  -2
   4   2  14 19071.1 1643.15   1
   4   3 -10 1289.70 872.597   1
  -9   3   4 14829.9 1461.51  -2
  -4  -3   9 14829.9 1461.51   1
   8  -3  -4 21559.4 1914.02  -2
   4   3  -8 21559.4 1914.02   1
  -7   3   4 14376.4 1209.20  -2
  -4  -3   7 14376.4 1209.20   1
   4   3  -6 14982.1 1338.92   1
  -6   3   4 38642.2 1830.17  -2
  -4  -3   6 38642.2 1830.17   1
   4   3  -5 37507.3 1266.02   1
   4   3  -4 39804.6 998.141   1
  -4  -3   3 4007.80 421.339   1
  -4  -3   2 171020. 2134.33   1
   4   3  -1 139598. 1851.72   1
   4   3   0 18670.1 593.830   1
  -4  -3  -1 65297.0 1368.88   1
   0  -3  -5 119338. 1462.28  -2
   4   3   1 119338. 1462.28   1
   1   3   5 288083. 2461.26  -2
  -4  -3  -2 288083. 2461.26   1
  -2  -3  -5 153839. 1453.10  -2
   4   3   3 153839. 1453.10   1
   4   3   4 5008.24 196.707   1
   4   3   5 69071.9 1042.73   1
   4   3   6 186636. 1349.92   1
   4   3   7 40527.2 815.776   1
   4   3   8 10220.8 542.923   1
   4   3   9 111139. 1708.76   1
   4   3  10 48009.3 1603.38   1
  -9  -3  -6 5470.09 774.388  -2
   4   3  11 5470.09 774.388   1
 -10  -3  -6 17729.1 1533.00  -2
   4   3  12 17729.1 1533.00   1
 -11  -3  -6 50504.9 2290.46  -2
   4   3  13 50504.9 2290.46   1
   4   3  14 3859.32 1545.56   1
 -12  -3  -6 7795.48 1225.48  -2
   4   3  14 7795.48 1225.48   1
  10  -4  -4 4669.82 1276.49  -2
   4   4 -10 4669.82 1276.49   1
   9  -4  -4 15108.9 1676.22  -2
   4   4  -9 15108.9 1676.22   1
   8  -4  -4 31475.1 2158.20  -2
   4   4  -8 31475.1 2158.20   1
  -4  -4   7 17406.0 1103.72   1
   4   4  -6 18185.6 1236.08   1
  -4  -4   5 83771.9 1890.49   1
  -4  -4   4 41296.6 1044.49   1
  -4  -4   3 4507.02 448.068   1
   4   4  -2 60935.4 1047.55   1
   4   4  -1 180976. 1736.91   1
  -4  -4   0 101745. 1909.73   1
   1  -4  -5 105923. 1565.69  -2
   4   4   0 105923. 1565.69   1
   0  -4  -5 85964.7 1437.15  -2
   4   4   1 85964.7 1437.15   1
  -1  -4  -5 318834. 2264.11  -2
   4   4   2 318834. 2264.11   1
   4   4   3 97341.0 884.026   1
   4   4   4 18280.2 360.736   1
   4   4   5 109016. 1117.88   1
   4   4   6 92411.9 1098.32   1
   4   4   7 20196.1 676.088   1
   4   4   8 4194.95 411.041   1
   4   4   9 26817.4 1013.86   1
   7   4   6 30626.7 2098.02  -2
  -4  -4  -9 30626.7 2098.02   1
   8   4   6 67880.3 1557.67  -2
  -4  -4 -10 67880.3 1557.67   1
  -9  -4  -6 15686.2 1401.15  -2
   4   4  11 15686.2 1401.15   1
 -10  -4  -6 2685.37 826.700  -2
   4   4  12 2685.37 826.700   1
   4   4  13 27076.2 3001.28   1
  11   4   6 23642.2 1501.28  -2
  -4  -4 -13 23642.2 1501.28   1
   4   4  14 24244.6 1481.06   1
  -9   5   4 10441.0 1476.21  -2
  -4  -5   9 10441.0 1476.21   1
   4   5  -8 19869.8 1288.86   1
   4   5  -7 32859.7 1505.34   1
  -4  -5   6 250.465 623.970   1
   4   5  -5 40462.7 1709.31   1
  -4  -5   4 55351.5 1864.35   1
  -4  -5   3 3106.25 331.653   1
  -4  -5   2 14733.0 666.808   1
   2  -5  -5 85224.8 1315.84  -2
   4   5  -1 85224.8 1315.84   1
   1  -5  -5 52448.0 1156.47  -2
   4   5   0 52448.0 1156.47   1
   0   5   5 11056.5 457.799  -2
  -4  -5  -1 11056.5 457.799   1
  -4  -5  -2 16694.4 467.879   1
   4   5   3 62591.6 864.763   1
   4   5   4 37700.1 583.294   1
  -4  -5  -5 441.943 200.583   1
  -4  -5  -6 50236.2 921.510   1
  -4  -5  -7 76135.7 1179.09   1
  -4  -5  -8 16808.4 632.969   1
  -7  -5  -6 353.530 562.694  -2
   4   5   9 353.530 562.694   1
  -8  -5  -6 29684.5 1629.02  -2
   4   5  10 29684.5 1629.02   1
   9   5   6 42243.5 2183.94  -2
  -4  -5 -11 42243.5 2183.94   1
   4   5  12 16764.0 1594.87   1
 -10  -5  -6 21264.1 2770.68  -2
   4   5  12 21264.1 2770.68   1
   4   5  13 1128.62 768.324   1
   4   5  14 68833.3 2803.24   1
   4   6  -9 3016.57 1523.33   1
  -4  -6   8 980.626 707.613   1
   4   6  -7 4751.83 826.751   1
   4   6  -6 14512.3 1210.72   1
   4   6  -5 1937.00 654.162   1
  -4  -6   4 19758.1 1016.63   1
  -4  -6   3 26285.5 1361.15   1
   4  -6  -5 29288.5 1389.22  -2
   4   6  -3 29288.5 1389.22   1
  -3   6   5 21990.6 1009.55  -2
  -4  -6   2 21990.6 1009.55   1
  -2   6   5 22464.2 1027.61  -2
  -4  -6   1 22464.2 1027.61   1
  -4  -6   0 18566.5 1208.40   1
   1  -6  -5 40801.3 954.085  -2
   4   6   0 40801.3 954.085   1
   4   6   1 40357.7 827.993   1
   4   6   2 3329.20 287.267   1
   4   6   3 12984.9 463.803   1
  -4  -6  -4 37922.4 886.530   1
   4   6   5 116031. 1545.19   1
   4   6   6 111.020 340.763   1
   4   6   7 77819.1 2448.96   1
  -5  -6  -6 78531.9 2038.87  -2
   4   6   7 78531.9 2038.87   1
  -6  -6  -6 102473. 2291.03  -2
   4   6   8 102473. 2291.03   1
   7   6   6 28762.4 1346.27  -2
  -4  -6  -9 28762.4 1346.27   1
   8   6   6 29558.0 1368.78  -2
  -4  -6 -10 29558.0 1368.78   1
  -4  -6 -11 86506.7 3002.70   1
  -9  -6  -6 87414.2 3244.41  -2
   4   6  11 87414.2 3244.41   1
   4   6  12 38899.6 2391.21   1
   4   6  13 226.641 948.834   1
   4   7  -8 1921.29 1044.34   1
   4   7  -7-494.971 755.845   1
   4   7  -6 9344.46 1029.23   1
   4   7  -5 16771.6 1244.37   1
   4   7  -4 13365.5 1282.34   1
   5  -7  -5 32617.4 1975.24  -2
   4   7  -4 32617.4 1975.24   1
   4  -7  -5 20922.3 1373.00  -2
   4   7  -3 20922.3 1373.00   1
   3  -7  -5 42155.0 1469.97  -2
   4   7  -2 42155.0 1469.97   1
  -4  -7   1 9405.89 1296.88   1
   2  -7  -5 16968.7 815.143  -2
   4   7  -1 16968.7 815.143   1
   4   7   0 2198.62 363.171   1
   4   7   1 69865.8 1493.76   1
  -4  -7  -2 36981.9 843.797   1
   4   7   3 6078.29 439.979   1
  -4  -7  -4 38739.2 1134.07   1
   4   7   5 41677.3 1197.05   1
  -4  -7  -6 4982.08 816.828   1
  -4  -7  -6 7020.38 824.365  -2
   4   7   6 7020.38 824.365   1
  -5  -7  -6 22785.9 1250.40  -2
   4   7   7 22785.9 1250.40   1
  -6  -7  -6 96944.4 2376.45  -2
   4   7   8 96944.4 2376.45   1
  -7  -7  -6 42642.4 1387.39  -2
   4   7   9 42642.4 1387.39   1
  -4  -7 -10 2153.83 552.421   1
   8   7   6 9425.21 1774.07  -2
  -4  -7 -10 9425.21 1774.07   1
   4   7  11 41767.9 1629.54   1
   4   7  12 25231.1 1579.81   1
   4   7  13 144.421 1646.97   1
  -4  -8   7 458.576 1471.39   1
   4   8  -6 11712.9 1509.64   1
   6  -8  -5 21062.3 2004.25  -2
   4   8  -5 21062.3 2004.25   1
   5  -8  -5 22614.4 2475.71  -2
   4   8  -4 22614.4 2475.71   1
   4  -8  -5 24697.5 1625.30  -2
   4   8  -3 24697.5 1625.30   1
   4   8  -2 15100.9 1276.49   1
  -3   8   5 14963.9 1219.33  -2
  -4  -8   2 14963.9 1219.33   1
   4   8  -1 3878.59 501.066   1
   4   8   0 350.763 465.709   1
   4   8   1 19757.1 885.725   1
   4   8   2 36314.5 1165.78   1
   4   8   3 271.915 369.801   1
   4   8   4 40708.5 1239.30   1
  -3  -8  -6 14973.6 851.591  -2
   4   8   5 14973.6 851.591   1
  -4  -8  -6 6770.17 794.838  -2
   4   8   6 6770.17 794.838   1
  -5  -8  -6 5646.63 776.192  -2
   4   8   7 5646.63 776.192   1
  -4  -8  -8 16392.9 1887.61   1
  -6  -8  -6 16067.2 1090.87  -2
   4   8   8 16067.2 1090.87   1
   4   8   9 4463.42 582.566   1
   4   8  10 3773.03 746.128   1
   4   8  11 2481.86 688.457   1
   4   8  12 15251.5 1661.16   1
   6  -9  -5 14668.5 1818.98  -2
   4   9  -5 14668.5 1818.98   1
   5  -9  -5 6800.17 1282.25  -2
   4   9  -4 6800.17 1282.25   1
   4   9  -3 2292.51 1139.08   1
   4  -9  -5 5251.25 988.981  -2
   4   9  -3 5251.25 988.981   1
   4   9  -2 10311.2 895.949   1
   4   9  -1 8407.34 703.954   1
   4   9   0 2613.46 547.441   1
   4   9   1 710.732 505.301   1
   4   9   2 2961.26 568.898   1
  -4  -9  -3 11149.0 1228.64   1
  -1  -9  -6 10393.6 1278.65  -2
   4   9   3 10393.6 1278.65   1
  -2  -9  -6 363.583 686.200  -2
   4   9   4 363.583 686.200   1
   3   9   6 4427.91 723.550  -2
  -4  -9  -5 4427.91 723.550   1
  -4  -9  -6 13112.4 1034.49  -2
   4   9   6 13112.4 1034.49   1
  -4  -9  -7 7295.98 1490.95   1
  -5  -9  -6 10400.6 925.380  -2
   4   9   7 10400.6 925.380   1
   4   9   8 1056.41 490.786   1
   4   9   9 3619.81 574.669   1
   4   9  10 12033.2 1014.44   1
  -4  -9 -11 2271.30 839.181   1
  -4  -9 -12 304.513 811.366   1
  10   9   7 18451.1 2977.60  -2
  -4  -9 -13 18451.1 2977.60   1
   4  10  -4 11772.4 2221.93   1
   5 -10  -5 11058.4 1736.49  -2
   4  10  -4 11058.4 1736.49   1
   4  10  -3 19339.7 1488.21   1
   4  10  -2 180.672 670.624   1
   4  10  -1 12705.5 1216.87   1
   4  10   0 13182.2 1213.76   1
  -4 -10  -1 9203.77 1045.73   1
   4  10   2 320.647 1257.35   1
   0 -10  -6 3370.28 915.633  -2
   4  10   2 3370.28 915.633   1
   1  10   6 30438.5 1698.00  -2
  -4 -10  -3 30438.5 1698.00   1
   2  10   6 40330.3 2008.14  -2
  -4 -10  -4 40330.3 2008.14   1
  -3 -10  -6 6324.88 997.441  -2
   4  10   5 6324.88 997.441   1
   4  10   6 6359.10 918.629   1
   4  10   6 3974.80 1708.94  -2
  -4 -10  -6 3974.80 1708.94   1
   4  10   7 31226.0 1321.55   1
   4  10   8 13073.5 947.664   1
  -4 -10  -9 3657.67 600.570   1
   4  10  10 22129.9 1368.18   1
   4  10  11 21098.7 2939.14   1
   8  10   7 33438.2 3483.00  -2
  -4 -10 -11 33438.2 3483.00   1
  -4 -10 -12 259.861 1644.34   1
  -4 -11   2 22116.2 1667.61   1
   4  11  -1 3199.05 852.831   1
   4  11   0 63599.5 2587.79   1
   1 -11  -6 27763.6 1847.24  -2
   4  11   1 27763.6 1847.24   1
   0 -11  -6 10877.6 1289.13  -2
   4  11   2 10877.6 1289.13   1
  -1 -11  -6 19101.7 1704.95  -2
   4  11   3 19101.7 1704.95   1
  -2 -11  -6 52976.9 2170.02  -2
   4  11   4 52976.9 2170.02   1
   4  11   5 5860.26 842.345   1
   4  11   6 5063.20 778.475   1
   4  11   7 22657.7 1379.50   1
   4  11   8 8616.72 959.807   1
   4  11   9-388.014 701.025   1
   4  11  10 8116.36 1987.42   1
   1 -12  -6 21188.6 2680.34  -2
   4  12   1 21188.6 2680.34   1
   0 -12  -6 7444.32 1241.79  -2
   4  12   2 7444.32 1241.79   1
  -1 -12  -6 8115.22 1096.08  -2
   4  12   3 8115.22 1096.08   1
  -4 -12  -4 16115.4 1271.83   1
   4  12   5 11600.5 1139.64   1
   4  12   6 687.967 791.583   1
   4  12   7 9282.87 995.044   1
   4  12   8 3884.48 1087.65   1
   1  11  -4 5528.71 2267.89  -2
   5 -11  -2 5528.71 2267.89   1
   0  11  -4 14657.2 3242.48  -2
   5 -11  -1 14657.2 3242.48   1
  -5  10   7 16991.8 2623.65   1
  -5  10   6 11248.0 2269.20   1
  -5  10   5 454.680 1484.50   1
   4  10  -4 1575.84 2388.44  -2
   5 -10  -5 1575.84 2388.44   1
  -3 -10   4 7947.45 1365.90  -2
  -5  10   4 7947.45 1365.90   1
  -2 -10   4 24607.2 1639.98  -2
  -5  10   3 24607.2 1639.98   1
   1  10  -4 17376.9 1756.56  -2
   5 -10  -2 17376.9 1756.56   1
  -5  10   1 958.505 1268.30   1
   0  10  -4 4370.31 1258.27  -2
   5 -10  -1 4370.31 1258.27   1
  -5  10   0 9454.18 1348.43   1
  -1  10  -4 13175.6 2247.01  -2
   5 -10   0 13175.6 2247.01   1
   5 -10   1 28712.9 2278.46   1
  -5  10  -2 5683.96 1221.70   1
  -5  10  -3 482.833 1658.38   1
  -5  10  -4 12061.6 2176.69   1
  -5   9   8 2729.40 1541.59   1
   5  -9  -7 12187.7 1603.85   1
   5   9  -4 23427.5 2138.21  -2
   5  -9  -6 23427.5 2138.21   1
  -4  -9   4 15298.0 2039.28  -2
  -5   9   5 15298.0 2039.28   1
   3   9  -4 16908.3 2261.46  -2
   5  -9  -4 16908.3 2261.46   1
  -2  -9   4 28163.5 2362.11  -2
  -5   9   3 28163.5 2362.11   1
  -5   9   2 45406.8 3686.59   1
   1   9  -4 47435.6 2623.00  -2
   5  -9  -2 47435.6 2623.00   1
   5  -9  -1 15993.1 1303.74   1
   5  -9   0 2273.88 778.712   1
  -5   9  -1 48228.7 2138.26   1
  -5   9  -2 75932.7 3391.00   1
   5  -9   3-457.765 993.430   1
  -5   9  -4 13114.9 2135.62   1
  -4   9  -5 19792.4 2995.82  -2
   5  -9   4 19792.4 2995.82   1
   5  -9   5 33644.3 2478.07  -2
  -5   9  -5 33644.3 2478.07   1
  -5   8   9 25173.3 3160.70   1
   5  -8  -8 12136.4 1524.84   1
  -6  -8   4 11006.2 1325.09  -2
  -5   8   7 11006.2 1325.09   1
   5   8  -4 65547.0 2664.75  -2
   5  -8  -6 65547.0 2664.75   1
  -4  -8   4 69095.0 2747.55  -2
  -5   8   5 69095.0 2747.55   1
  -3  -8   4 16523.9 1709.31  -2
  -5   8   4 16523.9 1709.31   1
   5  -8  -3 29057.6 2007.51   1
   5  -8  -2 83442.0 3254.96   1
   5  -8  -1 29566.2 1606.96   1
   5  -8   0 933.604 710.592   1
   5  -8   1 45206.0 1929.95   1
   5  -8   2 74985.8 2916.64   1
  -2   8  -5 82735.5 4702.63  -2
   5  -8   2 82735.5 4702.63   1
  -3   8  -5 15785.6 1731.82  -2
   5  -8   3 15785.6 1731.82   1
   4  -8   5 34316.1 2829.94  -2
  -5   8  -4 34316.1 2829.94   1
  -5   8  -5 61018.2 2959.22  -2
   5  -8   5 61018.2 2959.22   1
   5  -8   6 17025.6 2562.90   1
   6  -8   5 22508.9 3750.58  -2
  -5   8  -6 22508.9 3750.58   1
   5  -8   7 1887.18 1831.47   1
   5  -7  -9 50029.1 2910.37   1
   7   7  -4 37877.9 2093.46  -2
   5  -7  -8 37877.9 2093.46   1
   6   7  -4 19621.7 1582.60  -2
   5  -7  -7 19621.7 1582.60   1
   5   7  -4 54362.6 2328.33  -2
   5  -7  -6 54362.6 2328.33   1
   4   7  -4 84116.0 2160.98  -2
   5  -7  -5 84116.0 2160.98   1
   5  -7  -4 23516.4 1193.05   1
   5  -7  -3 9756.94 811.610   1
   5  -7  -2 114994. 2739.21   1
   5  -7  -1 53531.9 2471.73   1
   5  -7   0 2586.09 605.825   1
   5  -7   1 14652.7 1100.73   1
  -2   7  -5 49956.2 1928.91  -2
   5  -7   2 49956.2 1928.91   1
  -3   7  -5 33797.3 2708.73  -2
   5  -7   3 33797.3 2708.73   1
   4  -7   5 3043.68 1135.73  -2
  -5   7  -4 3043.68 1135.73   1
   5  -7   5 21718.5 1832.54  -2
  -5   7  -5 21718.5 1832.54   1
  -5   7  -6 33372.1 1817.29   1
   5  -7   7 20103.0 1927.75   1
  -5   7  -8-204.898 1184.29   1
   5  -7   9 16159.9 2673.44   1
  -5   6  10 304.035 1053.49   1
   8   6  -4 31012.0 1983.80  -2
   5  -6  -9 31012.0 1983.80   1
  -7  -6   4 27141.6 1960.19  -2
  -5   6   8 27141.6 1960.19   1
   6   6  -4 13799.5 1189.85  -2
   5  -6  -7 13799.5 1189.85   1
   5  -6  -6 5993.14 1072.35   1
   5   6  -4 23247.5 1696.05  -2
   5  -6  -6 23247.5 1696.05   1
   5  -6  -5 33146.9 1350.04   1
   5  -6  -4 54025.7 1667.02   1
   5  -6  -3 7114.87 694.289   1
   5  -6  -2 2745.81 506.713   1
  -5   6   1 49470.2 1725.34   1
  -5   6   0 38380.8 1981.78   1
   1  -6   5 6177.49 890.333  -2
  -5   6  -1 6177.49 890.333   1
   2  -6   5 35138.7 1986.85  -2
  -5   6  -2 35138.7 1986.85   1
  -3   6  -5 86083.7 2833.77  -2
   5  -6   3 86083.7 2833.77   1
  -5   6  -4 32298.2 2590.62   1
  -4   6  -5 37945.9 3075.44  -2
   5  -6   4 37945.9 3075.44   1
  -5   6  -5 1003.01 774.844   1
  -5   6  -6 40602.7 1856.06   1
   5  -6   7 56547.5 2896.83   1
  -5   6  -8 11717.4 1548.83   1
  -5   6  -9 1451.96 1065.03   1
   5  -6  10 60982.1 4460.47   1
  -9  -5   4 16931.8 1742.36  -2
  -5   5  10 16931.8 1742.36   1
   8   5  -4 7752.73 1354.39  -2
   5  -5  -9 7752.73 1354.39   1
   7   5  -4 14973.4 1182.47  -2
   5  -5  -8 14973.4 1182.47   1
   5  -5  -7 21042.5 1009.96   1
   5  -5  -6 8035.08 671.342   1
   5  -5  -5-118.417 404.957   1
   5  -5  -4 17725.6 952.137   1
   5  -5  -3 44704.7 1272.28   1
   5  -5  -2 10207.8 729.611   1
   5  -5  -1 38202.5 1845.25   1
   1   5  -5 62105.7 3229.32  -2
   5  -5  -1 62105.7 3229.32   1
   0  -5   5 74673.7 2801.68  -2
  -5   5   0 74673.7 2801.68   1
  -1   5  -5 51527.4 2841.09  -2
   5  -5   1 51527.4 2841.09   1
  -2   5  -5 9733.37 879.355  -2
   5  -5   2 9733.37 879.355   1
   5  -5   3 96994.8 1703.10   1
  -5   5  -4 85056.2 1859.28   1
   5  -5   5 5062.16 615.004   1
   5  -5   6 48158.3 1543.40   1
   5  -5   7 95171.1 2687.81   1
   5  -5   8 38034.9 1832.56   1
   5  -5   9-142.039 904.158   1
   8  -5   6 226.524 1863.42  -2
  -5   5  -9 226.524 1863.42   1
  -9   5  -6 32219.0 2080.99  -2
   5  -5  10 32219.0 2080.99   1
 -10   5  -6 49525.7 3837.95  -2
   5  -5  11 49525.7 3837.95   1
  10   4  -4 3060.73 1548.00  -2
   5  -4 -11 3060.73 1548.00   1
   9   4  -4 20656.2 1725.66  -2
   5  -4 -10 20656.2 1725.66   1
   8   4  -4 30802.3 1531.41  -2
   5  -4  -9 30802.3 1531.41   1
   5  -4  -8 2418.99 602.451   1
   5  -4  -7 24074.5 1206.01   1
   5  -4  -6 30026.7 1101.22   1
   5  -4  -5 175.734 443.400   1
   5  -4  -4 17886.1 814.356   1
   5  -4  -3 70352.7 1688.41   1
  -5   4   2 9438.48 1294.01   1
   2   4  -5 23422.4 1437.63  -2
   5  -4  -2 23422.4 1437.63   1
   1   4  -5 49960.7 1897.10  -2
   5  -4  -1 49960.7 1897.10   1
   0   4  -5 95103.9 2922.13  -2
   5  -4   0 95103.9 2922.13   1
   1  -4   5 48277.0 1335.94  -2
  -5   4  -1 48277.0 1335.94   1
  -5   4  -2 428.950 316.475   1
   5  -4   3 82993.3 1227.41   1
  -5   4  -4 92404.5 1536.99   1
   5  -4   5 19428.1 799.253   1
   5  -4   6 6661.41 536.201   1
   5  -4   7 73180.2 1866.60   1
   5  -4   8 40210.2 1795.55   1
   8  -4   6 225.044 927.647  -2
  -5   4  -9 225.044 927.647   1
   9  -4   6 4544.82 1115.97  -2
  -5   4 -10 4544.82 1115.97   1
  10  -4   6 39499.7 2102.22  -2
  -5   4 -11 39499.7 2102.22   1
   5  -4  12 21855.6 2809.53   1
  10   3  -4 6980.72 1427.02  -2
   5  -3 -11 6980.72 1427.02   1
   9   3  -4 19670.2 1528.68  -2
   5  -3 -10 19670.2 1528.68   1
   5  -3  -9 15046.8 1262.25   1
   5  -3  -8 652.343 664.836   1
   5  -3  -7 18620.4 1061.89   1
   5  -3  -6 37393.4 1376.73   1
   5  -3  -5 189.721 378.957   1
   5  -3  -4 20368.4 836.324   1
   3   3  -5 31898.6 1096.80  -2
   5  -3  -3 31898.6 1096.80   1
   2   3  -5 22881.3 1358.00  -2
   5  -3  -2 22881.3 1358.00   1
   1   3  -5 24430.5 1412.19  -2
   5  -3  -1 24430.5 1412.19   1
   0  -3   5 83398.3 1849.11  -2
  -5   3   0 83398.3 1849.11   1
   5  -3   1 22551.0 807.041   1
   5  -3   2 1961.27 256.305   1
   5  -3   3 2430.76 261.105   1
   5  -3   4 59717.9 961.648   1
   5  -3   5 20518.9 716.881   1
   5  -3   6 8324.95 562.090   1
   5  -3   7 5646.42 686.366   1
   6  -3   6 8370.28 1507.90  -2
  -5   3  -7 8370.28 1507.90   1
   7  -3   6 30948.7 1913.06  -2
  -5   3  -8 30948.7 1913.06   1
   8  -3   6 23429.7 1835.75  -2
  -5   3  -9 23429.7 1835.75   1
   5  -3  10 1589.55 1151.03   1
   9  -3   6 2619.77 1093.68  -2
  -5   3 -10 2619.77 1093.68   1
  -5   3 -11 6057.94 947.558   1
   5  -3  12 28845.6 1831.01   1
 -10  -2   4 1603.39 1156.55  -2
  -5   2  11 1603.39 1156.55   1
   5  -2 -10 4465.54 891.784   1
   5  -2  -9 5658.65 870.797   1
   5  -2  -8 3119.18 741.212   1
  -5   2   7 813.991 578.702   1
   5  -2  -6 5225.07 590.104   1
   5  -2  -5 22589.8 1002.93   1
  -4  -2   5 7339.65 585.655  -2
  -5   2   4 7339.65 585.655   1
   3   2  -5 4932.07 638.810  -2
   5  -2  -3 4932.07 638.810   1
  -2  -2   5 14026.1 570.862  -2
  -5   2   2 14026.1 570.862   1
   1   2  -5 10290.6 743.148  -2
   5  -2  -1 10290.6 743.148   1
   5  -2   0 283.858 346.839   1
   5  -2   1 20814.8 906.501   1
   5  -2   2 35062.3 1009.67   1
   5  -2   3 34115.3 771.520   1
   5  -2   4 635.603 169.583   1
   5  -2   5 14468.0 591.241   1
   5  -2   6 60613.6 1612.78   1
  -5   2  -6 72702.2 2394.61  -2
   5  -2   6 72702.2 2394.61   1
  -6   2  -6 14513.0 925.966  -2
   5  -2   7 14513.0 925.966   1
   7  -2   6 22506.1 1212.40  -2
  -5   2  -8 22506.1 1212.40   1
   5  -2   9 48088.5 1880.12   1
  -8   2  -6 57752.3 2407.39  -2
   5  -2   9 57752.3 2407.39   1
  -5   2 -10 14101.4 1159.54   1
  -5   2 -11 156.215 691.412   1
   5  -2  12 21767.0 1885.67   1
   5  -2  13 35105.9 3496.86   1
   5  -1 -11 21476.9 1646.79   1
   5  -1 -10 1557.12 774.981   1
  -5   1   9 1821.99 755.234   1
   5  -1  -8 12994.2 922.160   1
   5  -1  -7 29355.1 1232.86   1
  -5   1   6 9868.50 624.110   1
  -5  -1   5 28572.9 967.063  -2
  -5   1   5 28572.9 967.063   1
   4   1  -5 33791.0 1257.55  -2
   5  -1  -4 33791.0 1257.55   1
  -3  -1   5 22061.4 938.481  -2
  -5   1   3 22061.4 938.481   1
   5  -1  -2 5810.39 483.766   1
   5  -1  -1 116421. 1777.82   1
   5  -1   0 74175.8 1339.94   1
   5  -1   1 2401.26 327.249   1
   5  -1   2 50879.8 1113.00   1
   5  -1   3 35745.8 769.628   1
  -5   1  -4 11485.8 345.626   1
   5  -1   5 51131.5 1662.62   1
  -4   1  -6 57446.1 1602.37  -2
   5  -1   5 57446.1 1602.37   1
  -5   1  -6 52474.2 1603.81  -2
   5  -1   6 52474.2 1603.81   1
  -6   1  -6 44822.8 1377.29  -2
   5  -1   7 44822.8 1377.29   1
  -5   1  -8 5461.54 590.602   1
   7  -1   6 9553.59 1636.87  -2
  -5   1  -8 9553.59 1636.87   1
   5  -1   9 39892.2 1280.36   1
   5  -1  10 16348.4 932.322   1
   5  -1  11 2905.82 914.577   1
   5  -1  12 21431.8 1864.41   1
   5  -1  13 17190.9 1815.09   1
   5   0 -11 24473.2 1807.46   1
  -5   0  10 42082.2 1789.99   1
  -5   0   9 200.604 615.437   1
   5   0  -8 22382.9 1191.45   1
  -5   0   7 48317.9 1594.27   1
  -6   0   5 26978.8 1306.78  -2
  -5   0   6 26978.8 1306.78   1
  -5   0   5 8070.99 654.629  -2
  -5   0   5 8070.99 654.629   1
   4   0  -5 123609. 2510.49  -2
   5   0  -4 123609. 2510.49   1
   5   0  -3 31686.3 743.717   1
   5   0  -2 491.710 209.733   1
  -5   0   1 50691.3 945.266   1
   5   0   0 96334.0 1394.77   1
   5   0   1 12864.5 429.822   1
   5   0   2 66346.7 856.500   1
   5   0   3 74340.4 1081.27   1
   5   0   4 7630.09 927.471   1
  -3   0  -6 9992.95 555.409  -2
   5   0   4 9992.95 555.409   1
  -4   0  -6 36399.6 1178.88  -2
   5   0   5 36399.6 1178.88   1
   5   0   6 7657.28 558.492  -2
  -5   0  -6 7657.28 558.492   1
  -5   0  -7 14886.2 690.540   1
  -5   0  -8 3969.37 395.370   1
   5   0   9 15796.0 820.564   1
   5   0  10 10707.0 857.486   1
   5   0  11 4972.44 711.992   1
   5   0  12 2295.60 636.405   1
   5   0  13 5580.17 1060.65   1
 -12   0  -7 9404.53 2712.34  -2
   5   0  14 9404.53 2712.34   1
  -5  -1  11 13647.0 1365.73   1
  -5  -1  10 31189.7 1569.03   1
   5   1  -9 4080.52 688.450   1
  -5  -1   8 14405.6 1395.58   1
   8  -1  -5 18230.0 1672.86  -2
   5   1  -8 18230.0 1672.86   1
   7  -1  -5 55610.0 2071.55  -2
   5   1  -7 55610.0 2071.55   1
  -6   1   5 36541.4 1811.31  -2
  -5  -1   6 36541.4 1811.31   1
   5  -1  -5 8343.83 671.796  -2
   5   1  -5 8343.83 671.796   1
   5   1  -4 74850.4 1825.66   1
   5   1  -3 35127.9 1224.04   1
   5   1  -2 2059.64 224.962   1
  -5  -1   1 1299.30 240.542   1
   5   1   0 29824.1 696.315   1
   5   1   1 37155.4 708.189   1
   5   1   2 21028.0 489.095   1
  -2  -1  -6 32407.5 635.484  -2
   5   1   3 32407.5 635.484   1
  -3  -1  -6 41807.5 1358.29  -2
   5   1   4 41807.5 1358.29   1
   5   1   5 19418.6 1514.08   1
  -4  -1  -6 28320.6 1089.40  -2
   5   1   5 28320.6 1089.40   1
   5   1   6 6113.11 513.440   1
   5   1   7 11119.7 608.987   1
   5   1   8 20097.8 745.778   1
   5   1   9 4064.18 565.908   1
   5   1  10 1818.93 529.553   1
   5   1  11 21611.1 1217.67   1
   5   1  12 10772.5 1908.61   1
 -10  -1  -7 22237.0 1560.24  -2
   5   1  12 22237.0 1560.24   1
 -11  -1  -7 12844.2 1315.89  -2
   5   1  13 12844.2 1315.89   1
 -12  -1  -7 12486.9 3127.28  -2
   5   1  14 12486.9 3127.28   1
  -5  -2  11 14432.6 2421.50   1
   5   2 -10 16523.2 1439.02   1
   9  -2  -5 18672.7 1274.37  -2
   5   2  -9 18672.7 1274.37   1
  -8   2   5 1156.66 724.430  -2
  -5  -2   8 1156.66 724.430   1
  -7   2   5 15627.3 1323.26  -2
  -5  -2   7 15627.3 1323.26   1
  -6   2   5 42596.8 1503.47  -2
  -5  -2   6 42596.8 1503.47   1
   5   2  -5 24684.4 1283.18   1
  -5  -2   4 3781.88 461.332   1
   5   2  -3 73441.2 1562.57   1
   5   2  -2 69087.3 1448.98   1
   5   2  -1 19114.7 585.271   1
   5   2   0 1778.52 247.448   1
  -5  -2  -1 35783.6 823.555   1
   0  -2  -6 54666.1 1054.10  -2
   5   2   1 54666.1 1054.10   1
  -1  -2  -6 167890. 1896.31  -2
   5   2   2 167890. 1896.31   1
  -2  -2  -6 23626.7 769.452  -2
   5   2   3 23626.7 769.452   1
   5   2   4 23594.2 870.309   1
   3   2   6 60508.6 1154.77  -2
  -5  -2  -4 60508.6 1154.77   1
   5   2   5 119200. 1336.87   1
   5   2   6 45413.0 1074.85   1
  -5  -2  -7 735.940 250.339   1
   5   2   8 118539. 1683.19   1
   5   2   9 51140.1 1355.48   1
   5   2  10-18.0372 517.717   1
   5   2  11 11132.1 1340.09   1
   9   2   7 11203.0 1510.94  -2
  -5  -2 -11 11203.0 1510.94   1
 -10  -2  -7 58394.1 2545.52  -2
   5   2  12 58394.1 2545.52   1
 -11  -2  -7 14637.9 1545.82  -2
   5   2  13 14637.9 1545.82   1
 -12  -2  -7 4727.83 1524.49  -2
   5   2  14 4727.83 1524.49   1
   5   3 -10 18886.5 1905.72   1
 -10   3   5 21626.6 3106.52  -2
  -5  -3  10 21626.6 3106.52   1
   9  -3  -5 45494.2 2888.12  -2
   5   3  -9 45494.2 2888.12   1
   8  -3  -5 18912.1 1799.02  -2
   5   3  -8 18912.1 1799.02   1
   5   3  -7 1178.31 842.957   1
  -7   3   5 4343.69 1083.42  -2
  -5  -3   7 4343.69 1083.42   1
   5   3  -6 34566.7 1588.98   1
   5   3  -5 55405.5 1638.48   1
  -5  -3   4 45051.9 1161.83   1
   5   3  -3 14035.6 743.370   1
   5   3  -2 131021. 2043.24   1
  -5  -3   1 143552. 2048.90   1
  -5  -3   0 5430.84 901.405   1
  -1   3   6 35905.3 1018.57  -2
  -5  -3   0 35905.3 1018.57   1
   0  -3  -6 139676. 1819.43  -2
   5   3   1 139676. 1819.43   1
  -1  -3  -6 127610. 1687.73  -2
   5   3   2 127610. 1687.73   1
   5   3   3 62557.7 1066.71   1
  -2  -3  -6 67511.0 2477.85  -2
   5   3   3 67511.0 2477.85   1
   5   3   4 41880.8 788.040   1
   5   3   5 103849. 1328.86   1
   5   3   6 88836.7 1237.74   1
   5   3   7 5947.09 474.982   1
   5   3   8 22438.9 864.636   1
   5   3   9 65346.9 1375.71   1
  -8  -3  -7 23720.7 1213.36  -2
   5   3  10 23720.7 1213.36   1
  -9  -3  -7 2307.00 779.613  -2
   5   3  11 2307.00 779.613   1
 -10  -3  -7 37826.7 2132.70  -2
   5   3  12 37826.7 2132.70   1
   5   3  13 6017.36 1781.25   1
 -11  -3  -7 21143.8 1704.21  -2
   5   3  13 21143.8 1704.21   1
   5   3  14 250.247 966.493   1
   9  -4  -5 38980.1 2519.43  -2
   5   4  -9 38980.1 2519.43   1
   5   4  -8 68680.6 2633.03   1
   5   4  -7 151.945 724.579   1
  -5  -4   6 44056.8 1902.11   1
   5   4  -5 93792.3 2136.93   1
  -5  -4   4 18343.8 946.314   1
  -5  -4   3 663.558 328.175   1
   5   4  -2 79580.0 1423.00   1
   2  -4  -6 89701.2 1479.42  -2
   5   4  -1 89701.2 1479.42   1
  -1   4   6 7524.08 573.577  -2
  -5  -4   0 7524.08 573.577   1
   0   4   6 99003.1 1522.62  -2
  -5  -4  -1 99003.1 1522.62   1
   5   4   2 92018.1 1518.08   1
  -1  -4  -6 106828. 3399.31  -2
   5   4   2 106828. 3399.31   1
   5   4   3 99555.2 1274.69   1
   5   4   4 5831.64 323.414   1
   5   4   5 64068.9 1134.32   1
   5   4   6 25559.4 747.886   1
  -5  -4  -7 3514.95 410.372   1
  -5  -4  -8-81.1237 344.828   1
   7   4   7 25633.2 1151.66  -2
  -5  -4  -9 25633.2 1151.66   1
   8   4   7 34059.4 1638.57  -2
  -5  -4 -10 34059.4 1638.57   1
   9   4   7 6324.14 1006.41  -2
  -5  -4 -11 6324.14 1006.41   1
   5   4  12-715.833 1306.17   1
  10   4   7 999.880 1020.57  -2
  -5  -4 -12 999.880 1020.57   1
   5   4  13 18650.0 1302.48   1
   5   4  14 4653.98 935.646   1
   5   5  -9 20731.8 2069.64   1
   5   5  -8 47723.8 2283.20   1
   5   5  -7 5951.89 762.662   1
   5   5  -6 7988.08 973.227   1
   5   5  -5 82757.7 2515.91   1
   5   5  -4 31508.3 1525.56   1
  -5  -5   3 4454.88 529.898   1
   3  -5  -6 60553.3 1660.69  -2
   5   5  -2 60553.3 1660.69   1
   2  -5  -6 75732.7 1547.82  -2
   5   5  -1 75732.7 1547.82   1
  -1   5   6 22603.3 728.006  -2
  -5  -5   0 22603.3 728.006   1
   5   5   1 6124.91 379.212   1
  -5  -5  -2 58031.6 1078.90   1
   5   5   3 32157.3 741.845   1
   5   5   4 68994.1 1248.36   1
  -5  -5  -5 6526.82 442.426   1
   5   5   6 71548.4 1217.98   1
   5   5   7 63695.0 1270.48   1
   6   5   7 13424.1 848.523  -2
  -5  -5  -8 13424.1 848.523   1
   7   5   7 3643.84 650.041  -2
  -5  -5  -9 3643.84 650.041   1
  -8  -5  -7 50553.7 1668.71  -2
   5   5  10 50553.7 1668.71   1
   5   5  11 30496.8 2893.27   1
  -9  -5  -7 34445.3 2170.50  -2
   5   5  11 34445.3 2170.50   1
   5   5  12 7168.72 1251.89   1
   5   5  13 24907.4 2099.22   1
  -5  -5 -14 33886.5 3546.61   1
  -5  -6   8 10985.3 1303.91   1
   5   6  -7 16946.9 1432.05   1
   5   6  -6 373.416 669.379   1
   5   6  -5 9659.12 1004.53   1
   5  -6  -6 48958.7 1929.41  -2
   5   6  -4 48958.7 1929.41   1
   4  -6  -6 24102.3 1652.67  -2
   5   6  -3 24102.3 1652.67   1
  -3   6   6 8047.02 807.624  -2
  -5  -6   2 8047.02 807.624   1
  -5  -6   1 51590.4 2723.68   1
   2  -6  -6 77555.2 1626.47  -2
   5   6  -1 77555.2 1626.47   1
  -5  -6   0 115915. 1502.24   1
   5   6   1 33872.0 815.845   1
   5   6   2 19717.8 685.801   1
   5   6   3 47255.5 942.946   1
   5   6   4 144817. 1915.09   1
  -5  -6  -5 26389.1 856.528   1
  -5  -6  -6 28965.4 1107.23   1
  -4  -6  -7 47170.8 2011.88  -2
   5   6   6 47170.8 2011.88   1
  -5  -6  -7 159988. 2479.78  -2
   5   6   7 159988. 2479.78   1
  -6  -6  -7 104982. 3004.25  -2
   5   6   8 104982. 3004.25   1
  -7  -6  -7 957.230 615.764  -2
   5   6   9 957.230 615.764   1
   5   6  10 61101.9 2598.64   1
  -8  -6  -7 68944.3 2773.41  -2
   5   6  10 68944.3 2773.41   1
   5   6  11 73873.6 2096.56   1
   5   6  12 6105.41 1185.97   1
  -5  -6 -13 5405.79 1139.69   1
  -5  -6 -14 44070.0 3854.60   1
   5   7  -7 20890.0 1583.69   1
   5   7  -6 7532.48 1030.31   1
   6  -7  -6 13876.1 1285.36  -2
   5   7  -5 13876.1 1285.36   1
  -5   7   6 43175.8 2469.59  -2
  -5  -7   4 43175.8 2469.59   1
   4  -7  -6 79592.0 2687.31  -2
   5   7  -3 79592.0 2687.31   1
  -3   7   6 33407.7 1065.41  -2
  -5  -7   2 33407.7 1065.41   1
  -5  -7   1 5511.46 500.709   1
   5   7   0 113963. 1781.60   1
   5   7   1 126261. 2055.93   1
   5   7   2 7349.85 476.831   1
  -5  -7  -3 107915. 1740.82   1
  -5  -7  -4 83670.2 1556.03   1
  -5  -7  -5 59937.6 2292.06   1
   3   7   7 61416.6 1675.21  -2
  -5  -7  -5 61416.6 1675.21   1
   4   7   7 18071.2 1028.67  -2
  -5  -7  -6 18071.2 1028.67   1
  -5  -7  -7 101934. 2375.76  -2
   5   7   7 101934. 2375.76   1
  -6  -7  -7 85701.7 1718.90  -2
   5   7   8 85701.7 1718.90   1
   5   7   9 5254.58 654.698   1
   7   7   7 6671.23 1660.36  -2
  -5  -7  -9 6671.23 1660.36   1
   5   7  10 25232.1 1291.31   1
  -5  -7 -11 64020.5 2036.29   1
   5   7  12 19431.6 1435.48   1
   5   7  13 1555.16 999.525   1
  -7   8   6 35697.1 2785.84  -2
  -5  -8   6 35697.1 2785.84   1
   6  -8  -6 13636.0 2163.22  -2
   5   8  -5 13636.0 2163.22   1
   5  -8  -6 25870.4 2517.26  -2
   5   8  -4 25870.4 2517.26   1
   4  -8  -6 51224.1 1815.11  -2
   5   8  -3 51224.1 1815.11   1
   5   8  -2 13321.7 979.129   1
  -5  -8   1 1045.27 471.597   1
   5   8   0 36673.0 1244.49   1
   5   8   1 51601.4 1669.63   1
   5   8   2 18780.0 935.547   1
  -5  -8  -3 22677.1 1006.08   1
  -2  -8  -7 51776.7 1454.61  -2
   5   8   4 51776.7 1454.61   1
  -3  -8  -7 33071.1 1573.10  -2
   5   8   5 33071.1 1573.10   1
  -4  -8  -7 2943.83 640.708  -2
   5   8   6 2943.83 640.708   1
  -5  -8  -7 32363.8 2538.07   1
  -5  -8  -7 40332.3 1534.66  -2
   5   8   7 40332.3 1534.66   1
   5   8   8 31430.6 1106.54   1
   5   8   9 20190.4 1031.32   1
   5   8  10 2189.85 526.703   1
   5   8  11 9266.13 819.525   1
  -5  -8 -12 23213.8 1568.67   1
   6  -9  -6 5948.27 1638.50  -2
   5   9  -5 5948.27 1638.50   1
  -5  -9   4 934.276 1387.42   1
   5  -9  -6 7844.66 1500.06  -2
   5   9  -4 7844.66 1500.06   1
  -5  -9   3 17624.5 1204.75   1
   5   9  -2 23363.2 1292.26   1
   5   9  -1 2254.97 515.594   1
   5   9   0 1021.68 548.565   1
   5   9   1 9135.84 841.599   1
  -5  -9  -2 5982.00 995.582   1
   0   9   7 8715.34 1260.35  -2
  -5  -9  -2 8715.34 1260.35   1
  -1  -9  -7 1728.05 698.827  -2
   5   9   3 1728.05 698.827   1
  -2  -9  -7 21595.9 1579.39  -2
   5   9   4 21595.9 1579.39   1
  -3  -9  -7 21015.9 1258.62  -2
   5   9   5 21015.9 1258.62   1
  -5  -9  -6 18447.2 2128.75   1
  -4  -9  -7 21146.0 1183.60  -2
   5   9   6 21146.0 1183.60   1
   5   9   7 285.822 468.591   1
   5   9   8 14538.5 938.546   1
   5   9   9 49152.6 1660.38   1
  -5  -9 -10 5653.66 726.326   1
  -5  -9 -11 1489.55 659.021   1
  -5  -9 -12 34454.8 3327.95   1
  -9  -9  -8 35040.8 2683.57  -2
   5   9  12 35040.8 2683.57   1
   5  10  -4 1522.37 1573.47   1
   5  10  -3 731.446 843.969   1
  -5 -10   2 5135.56 884.995   1
   5  10  -1 5723.76 952.082   1
  -5 -10   0 3136.66 653.817   1
   5  10   1 3623.45 923.812   1
   1 -10  -7 13630.2 1593.99  -2
   5  10   1 13630.2 1593.99   1
   0  10   7 26700.7 1622.64  -2
  -5 -10  -2 26700.7 1622.64   1
  -1 -10  -7 26784.0 1730.69  -2
   5  10   3 26784.0 1730.69   1
  -2 -10  -7 2357.71 864.868  -2
   5  10   4 2357.71 864.868   1
  -5 -10  -5 19419.5 1373.13   1
  -3 -10  -7 25983.0 2890.18  -2
   5  10   5 25983.0 2890.18   1
  -5 -10  -6 37757.3 1629.84   1
   5  10   7 11377.8 862.654   1
   5  10   8 3319.82 600.489   1
   5  10   9 40752.9 1792.44   1
   5  10  10 60432.6 2184.41   1
   7  10   8 83150.0 5118.25  -2
  -5 -10 -10 83150.0 5118.25   1
  -5 -10 -11 387.232 1063.82   1
   8  10   8 3343.55 1930.42  -2
  -5 -10 -11 3343.55 1930.42   1
   5  11  -2 2712.18 1615.13   1
   5  11  -1 26426.8 1827.00   1
   5  11   0 10530.9 2268.05   1
   2 -11  -7 9681.24 1666.87  -2
   5  11   0 9681.24 1666.87   1
   1 -11  -7 13063.0 1345.03  -2
   5  11   1 13063.0 1345.03   1
   0  11   7 33744.7 2224.30  -2
  -5 -11  -2 33744.7 2224.30   1
  -1 -11  -7 33114.6 1900.00  -2
   5  11   3 33114.6 1900.00   1
   5  11   4 4933.91 1173.11   1
   2  11   7 4174.07 1441.05  -2
  -5 -11  -4 4174.07 1441.05   1
   5  11   5 13287.7 1122.29   1
   5  11   6 31993.4 1629.06   1
   5  11   7 10746.9 1030.65   1
   5  11   8 671.880 686.372   1
   5  11   9 11806.7 1528.29   1
   6  11   8 16392.9 1850.16  -2
  -5 -11  -9 16392.9 1850.16   1
  -7 -11  -8 36060.5 2510.87  -2
   5  11  10 36060.5 2510.87   1
  -1  12   7 8952.91 2677.03  -2
  -5 -12  -1 8952.91 2677.03   1
   0  12   7 16100.4 2597.16  -2
  -5 -12  -2 16100.4 2597.16   1
   5  12   3 6956.81 930.216   1
  -5 -12  -4 1757.78 771.363   1
   5  12   5 235.098 727.095   1
   5  12   6 11355.4 1219.14   1
  -5 -12  -7 4208.90 1734.49   1
   5  12   8 378.720 2214.91  -2
  -5 -12  -8 378.720 2214.91   1
   2  10  -5 10361.9 2643.81  -2
   6 -10  -3 10361.9 2643.81   1
   1  10  -5 2612.16 1133.55  -2
   6 -10  -2 2612.16 1133.55   1
   6 -10  -1 5519.86 983.999   1
   6 -10   0 7371.40 1801.84   1
  -5  -9   5 13664.3 2839.65  -2
  -6   9   6 13664.3 2839.65   1
  -4  -9   5 9659.30 1985.30  -2
  -6   9   5 9659.30 1985.30   1
  -3  -9   5 8191.35 1650.91  -2
  -6   9   4 8191.35 1650.91   1
  -6   9   3 11155.3 1991.10   1
   2   9  -5 13309.8 2528.78  -2
   6  -9  -3 13309.8 2528.78   1
   6  -9  -2 27355.6 1728.61   1
   6  -9  -1 2326.11 806.310   1
   6  -9   0 5267.45 964.737   1
   6  -9   1 37722.5 2510.79   1
  -6   9  -2 420.288 1524.03   1
  -2   9  -6 2035.34 1833.27  -2
   6  -9   2 2035.34 1833.27   1
  -6   9  -3 1971.91 1385.53   1
  -3   9  -6 9796.74 2503.23  -2
   6  -9   3 9796.74 2503.23   1
  -4   9  -6 33898.2 2971.21  -2
   6  -9   4 33898.2 2971.21   1
   5  -9   6 16620.3 3569.80  -2
  -6   9  -5 16620.3 3569.80   1
  -6  -8   5 11771.9 1420.95  -2
  -6   8   7 11771.9 1420.95   1
   5   8  -5 44592.2 2382.02  -2
   6  -8  -6 44592.2 2382.02   1
   4   8  -5 23872.5 1457.84  -2
   6  -8  -5 23872.5 1457.84   1
  -6   8   4-759.002 939.475   1
   6  -8  -3 23373.8 1859.37   1
  -6   8   2 15653.8 1590.61   1
  -6   8   1 328.795 891.834   1
   6  -8   0 12939.3 1169.39   1
  -6   8  -1 22930.3 2610.65   1
  -1   8  -6 27921.0 3032.40  -2
   6  -8   1 27921.0 3032.40   1
   2  -8   6 11347.9 1592.20  -2
  -6   8  -2 11347.9 1592.20   1
  -3   8  -6 4794.84 1445.30  -2
   6  -8   3 4794.84 1445.30   1
   4  -8   6 24382.4 2690.13  -2
  -6   8  -4 24382.4 2690.13   1
   6  -8   5 8916.31 2126.91   1
   5  -8   6 15434.2 1774.68  -2
  -6   8  -5 15434.2 1774.68   1
   6  -8   6 848.390 1698.31   1
   6  -8   6 881.178 1824.26  -2
  -6   8  -6 881.178 1824.26   1
   7   7  -5 11544.7 1651.13  -2
   6  -7  -8 11544.7 1651.13   1
  -6  -7   5 5706.67 1103.68  -2
  -6   7   7 5706.67 1103.68   1
   5   7  -5 35537.1 1578.77  -2
   6  -7  -6 35537.1 1578.77   1
   6  -7  -5 27618.8 1386.82   1
   6  -7  -4 253.122 552.495   1
   6  -7  -3 41970.9 1598.14   1
   6  -7  -2 19025.0 1270.14   1
   6  -7  -1 13979.8 1451.59   1
  -6   7   0 3395.57 1241.45   1
   0   7  -6 3605.69 1578.10  -2
   6  -7   0 3605.69 1578.10   1
   1  -7   6 19903.2 1415.09  -2
  -6   7  -1 19903.2 1415.09   1
   2  -7   6 22651.9 2335.58  -2
  -6   7  -2 22651.9 2335.58   1
  -3   7  -6 205.935 973.563  -2
   6  -7   3 205.935 973.563   1
   4  -7   6 10849.7 1523.73  -2
  -6   7  -4 10849.7 1523.73   1
   6  -7   5 9782.45 1110.22   1
   6  -7   6 18273.4 1452.42   1
  -6   7  -7 1653.31 1185.85   1
  -8  -6   5 40535.5 2858.27  -2
  -6   6   9 40535.5 2858.27   1
   7   6  -5 15714.2 1709.99  -2
   6  -6  -8 15714.2 1709.99   1
   6  -6  -7 431.549 916.838   1
   6   6  -5 6212.30 1849.46  -2
   6  -6  -7 6212.30 1849.46   1
   6  -6  -6 14565.9 1060.82   1
   6  -6  -5 40244.8 1578.00   1
   6  -6  -4 22797.7 1183.74   1
   6  -6  -3 364.745 516.421   1
   6  -6  -2 30940.8 1325.14   1
   6  -6  -1 37878.5 1424.03   1
   0  -6   6 28616.5 1613.30  -2
  -6   6   0 28616.5 1613.30   1
   1  -6   6 15704.2 1521.52  -2
  -6   6  -1 15704.2 1521.52   1
   2  -6   6 64280.7 2277.95  -2
  -6   6  -2 64280.7 2277.95   1
  -6   6  -3 57471.0 2492.62   1
  -3   6  -6 67961.1 3981.99  -2
   6  -6   3 67961.1 3981.99   1
   6  -6   4 16784.1 1204.94   1
   6  -6   5 3193.77 777.753   1
  -6   6  -6 45166.5 2006.16   1
   6  -6   7 15479.2 1760.06   1
  -6   6  -8 6261.14 1384.81   1
   6  -6   9 17303.3 2602.26   1
   8  -6   7 34673.1 3903.44  -2
  -6   6  -9 34673.1 3903.44   1
   9   5  -5 12926.3 2955.53  -2
   6  -5 -10 12926.3 2955.53   1
   8   5  -5 10063.3 1377.79  -2
   6  -5  -9 10063.3 1377.79   1
   6  -5  -8 40760.7 1732.89   1
   6  -5  -7 18584.1 1179.45   1
   6  -5  -6 646.221 519.202   1
   6  -5  -5 27987.5 1301.74   1
   6  -5  -4 88377.3 1932.19   1
   6  -5  -3 57650.1 1734.28   1
  -6   5   2 22777.9 1544.14   1
   2   5  -6 39276.2 2055.56  -2
   6  -5  -2 39276.2 2055.56   1
  -1  -5   6 81955.5 2644.66  -2
  -6   5   1 81955.5 2644.66   1
   0   5  -6 131473. 3452.75  -2
   6  -5   0 131473. 3452.75   1
  -1   5  -6 33158.0 2139.12  -2
   6  -5   1 33158.0 2139.12   1
  -6   5  -2 39338.4 2769.44   1
  -2   5  -6 71160.4 3661.75  -2
   6  -5   2 71160.4 3661.75   1
  -6   5  -3 117973. 2660.60   1
   6  -5   4 37012.8 1369.70   1
   6  -5   5 226.156 508.950   1
  -6   5  -6 45522.6 1597.45   1
   6  -5   7 49854.3 3744.77   1
  -6   5  -8 622.455 978.161   1
   8  -5   7 9568.80 1755.62  -2
  -6   5  -9 9568.80 1755.62   1
   9  -5   7 38962.7 3627.10  -2
  -6   5 -10 38962.7 3627.10   1
   9   4  -5 23451.5 1576.09  -2
   6  -4 -10 23451.5 1576.09   1
   6  -4  -9 328.256 656.378   1
   6  -4  -8 44834.0 1782.77   1
   6  -4  -7 74350.7 2164.02   1
  -6   4   6 9762.21 746.213   1
   6  -4  -5 18474.7 932.503   1
   6  -4  -4 81645.1 1787.05   1
  -6   4   3 78860.0 2715.21   1
   3   4  -6 87870.3 2872.22  -2
   6  -4  -3 87870.3 2872.22   1
   2   4  -6 34796.0 1825.70  -2
   6  -4  -2 34796.0 1825.70   1
   1   4  -6 121262. 3563.49  -2
   6  -4  -1 121262. 3563.49   1
   0  -4   6 114415. 2829.30  -2
  -6   4   0 114415. 2829.30   1
   6  -4   1 39624.9 1519.61   1
  -6   4  -2 7790.38 643.740   1
  -6   4  -3 81538.6 1743.45   1
  -6   4  -4 56794.3 1390.55   1
   6  -4   5 122.502 370.185   1
   6  -4   6 25038.1 1012.67   1
  -6   4  -7 58198.3 2493.48   1
   7  -4   7 6305.25 1498.23  -2
  -6   4  -8 6305.25 1498.23   1
   8  -4   7 2443.12 849.658  -2
  -6   4  -9 2443.12 849.658   1
   9  -4   7 25108.4 1738.43  -2
  -6   4 -10 25108.4 1738.43   1
  -6   4 -11 15809.3 1421.79   1
   6  -3 -10 16298.4 1254.41   1
   6  -3  -9 388.373 647.288   1
   6  -3  -8 18723.5 1217.91   1
   6  -3  -7 69577.4 2074.12   1
  -6   3   6 11453.9 776.743   1
   6  -3  -5 11015.8 732.757   1
  -6   3   4 64115.5 3321.43   1
  -4  -3   6 73423.6 1844.74  -2
  -6   3   4 73423.6 1844.74   1
   3   3  -6 61145.1 2076.99  -2
   6  -3  -3 61145.1 2076.99   1
   2   3  -6 44027.4 2062.75  -2
   6  -3  -2 44027.4 2062.75   1
   1   3  -6 53210.3 1693.27  -2
   6  -3  -1 53210.3 1693.27   1
   6  -3   0 30130.2 1262.62   1
   6  -3   1 32807.0 1303.50   1
   6  -3   2 2250.04 409.094   1
   6  -3   3 31538.7 964.976   1
   6  -3   4 71828.5 1279.47   1
   6  -3   5 43061.3 1056.19   1
   6  -3   6-97.0253 365.902   1
   5  -3   7 2875.17 1271.75  -2
  -6   3  -6 2875.17 1271.75   1
  -6   3  -7 38471.7 1432.77  -2
   6  -3   7 38471.7 1432.77   1
   7  -3   7 58725.7 2401.78  -2
  -6   3  -8 58725.7 2401.78   1
   6  -3   9 14756.3 2168.20   1
   8  -3   7 17161.6 1589.65  -2
  -6   3  -9 17161.6 1589.65   1
   6  -3  10 777.173 810.125   1
   9  -3   7 2116.48 1628.35  -2
  -6   3 -10 2116.48 1628.35   1
   6  -3  11 33091.0 1857.01   1
   6  -3  12 45316.5 2781.75   1
   6  -2 -10 25120.8 1719.69   1
  -6   2   9 585.932 797.053   1
   6  -2  -8 5242.97 858.275   1
   6  -2  -7 21457.9 1398.83   1
   6  -2  -6 39862.8 1297.15   1
   5   2  -6 14281.8 848.390  -2
   6  -2  -5 14281.8 848.390   1
  -4  -2   6 19984.6 1157.53  -2
  -6   2   4 19984.6 1157.53   1
  -3  -2   6 33282.1 1463.19  -2
  -6   2   3 33282.1 1463.19   1
   2   2  -6 45690.9 1311.39  -2
   6  -2  -2 45690.9 1311.39   1
   6  -2  -1 2338.09 468.899   1
   6  -2   0 38190.5 1332.76   1
   6  -2   1 65086.8 1464.52   1
   6  -2   2 35362.3 1099.33   1
   6  -2   3 2090.65 391.783   1
  -6   2  -4 30470.6 825.892   1
   6  -2   5 150418. 3024.61   1
  -4   2  -7 175276. 2487.50  -2
   6  -2   5 175276. 2487.50   1
  -5   2  -7 37444.1 1426.07  -2
   6  -2   6 37444.1 1426.07   1
  -6   2  -7 9682.23 823.486  -2
   6  -2   7 9682.23 823.486   1
   6  -2   8 117441. 3424.63   1
  -7   2  -7 124460. 3473.56  -2
   6  -2   8 124460. 3473.56   1
   6  -2   9 75756.1 1845.38   1
   6  -2  10 14954.1 1056.79   1
   6  -2  11 29433.9 2097.39   1
   6  -2  12 46297.7 2747.17   1
   6  -1 -10 10436.3 1267.25   1
   6  -1  -9 14541.9 1295.16   1
   6  -1  -8 4432.15 842.887   1
   6  -1  -7 239.291 672.919   1
   6   1  -6 27275.4 1591.25  -2
   6  -1  -6 27275.4 1591.25   1
   5   1  -6 27591.9 1554.06  -2
   6  -1  -5 27591.9 1554.06   1
   4   1  -6 30789.3 1555.99  -2
   6  -1  -4 30789.3 1555.99   1
   6  -1  -3 14022.5 791.506   1
   6  -1  -2 57680.2 1194.88   1
   6  -1  -1 81690.3 1524.74   1
   6  -1   0 7156.33 507.691   1
   6  -1   1 107876. 1743.65   1
  -6   1  -2 121257. 1856.05   1
   6  -1   3 7290.58 465.232   1
  -3   1  -7 67823.8 1464.53  -2
   6  -1   4 67823.8 1464.53   1
  -4   1  -7 114443. 2109.07  -2
   6  -1   5 114443. 2109.07   1
  -5   1  -7 84927.0 1895.94  -2
   6  -1   6 84927.0 1895.94   1
   6  -1   7 202.171 379.180   1
  -6   1  -7 1680.85 1164.59  -2
   6  -1   7 1680.85 1164.59   1
   6  -1   8 51653.5 1376.55   1
   6  -1   9 72811.4 1775.85   1
   6  -1  10 14506.7 898.470   1
   6  -1  11 7972.03 867.230   1
   6  -1  12 35071.5 2351.61   1
   6  -1  13 18580.5 1883.36   1
   6   0 -10 983.272 921.425   1
   6   0  -9 22303.9 1601.80   1
   6   0  -8 22227.5 1496.92   1
   7   0  -6 38962.7 2116.56  -2
   6   0  -7 38962.7 2116.56   1
   6   0  -6 10558.9 928.743  -2
   6   0  -6 10558.9 928.743   1
  -5   0   6 70667.3 1705.90  -2
  -6   0   5 70667.3 1705.90   1
   6   0  -4 6611.62 595.225   1
   6   0  -3 21850.0 1111.30   1
   6   0  -2 45316.7 982.885   1
   6   0  -1 44859.0 990.224   1
   6   0   0 1723.20 253.925   1
   6   0   1 65487.3 1013.99   1
   6   0   2 145995. 1363.28   1
  -2   0  -7 21494.7 599.332  -2
   6   0   3 21494.7 599.332   1
  -3   0  -7 61755.1 1615.83  -2
   6   0   4 61755.1 1615.83   1
  -4   0  -7 62922.6 1494.66  -2
   6   0   5 62922.6 1494.66   1
   6   0   6 80943.7 1717.34   1
   6   0   7 967.075 361.047   1
   6   0   8 18386.7 849.058   1
   6   0   9 20987.7 983.299   1
   6   0  10 8533.48 839.707   1
   6   0  11 720.868 603.197   1
   6   0  12 14281.6 1130.24   1
 -11   0  -8 18812.6 2147.52  -2
   6   0  13 18812.6 2147.52   1
   6   1 -10 3088.00 908.101   1
  -6  -1   9 2334.72 1015.30   1
   9  -1  -6 2890.41 2224.36  -2
   6   1  -9 2890.41 2224.36   1
  -8   1   6 20854.5 1482.92  -2
  -6  -1   8 20854.5 1482.92   1
  -7   1   6 25240.0 1554.52  -2
  -6  -1   7 25240.0 1554.52   1
   6  -1  -6 10243.6 914.978  -2
   6   1  -6 10243.6 914.978   1
  -6  -1   5 37382.6 1161.43   1
   6   1  -4 18548.9 1051.75   1
   6   1  -3 534.233 420.958   1
   6   1  -2 50327.7 1566.77   1
   6   1  -1 21077.3 745.663   1
   6   1   0 568.339 203.254   1
  -6  -1  -1 8622.41 498.550   1
   0  -1  -7 23310.2 1027.30  -2
   6   1   1 23310.2 1027.30   1
  -1  -1  -7 50698.7 917.577  -2
   6   1   2 50698.7 917.577   1
  -2  -1  -7 53843.6 1122.16  -2
   6   1   3 53843.6 1122.16   1
   3   1   7 5908.72 437.573  -2
  -6  -1  -4 5908.72 437.573   1
   6   1   5 7672.19 523.705   1
  -6  -1  -6 22293.4 934.698   1
   6   1   7 35967.9 1217.07   1
  -6  -1  -8 157.444 329.204   1
  -6  -1  -9 25208.6 1007.71   1
   6   1  10 27144.8 1299.82   1
   6   1  11 12564.9 1159.40   1
  -9  -1  -8 18194.8 2448.00  -2
   6   1  11 18194.8 2448.00   1
 -10  -1  -8 3929.56 896.646  -2
   6   1  12 3929.56 896.646   1
 -11  -1  -8 20237.4 1829.28  -2
   6   1  13 20237.4 1829.28   1
  -6  -2  10 3424.84 1597.45   1
   9  -2  -6 2918.23 910.753  -2
   6   2  -9 2918.23 910.753   1
   8  -2  -6 3654.82 901.742  -2
   6   2  -8 3654.82 901.742   1
   7  -2  -6 7889.42 892.170  -2
   6   2  -7 7889.42 892.170   1
  -6  -2   6 4422.46 639.030   1
   6   2  -5 2394.21 619.608   1
   6   2  -4 9260.87 800.217   1
  -6  -2   3 22490.5 1123.26   1
   6   2  -2 1086.58 417.670   1
   6   2  -1 13077.2 541.998   1
   6   2   0 46219.2 1224.23   1
   1  -2  -7 46958.6 1357.74  -2
   6   2   0 46958.6 1357.74   1
   0  -2  -7 46108.4 951.513  -2
   6   2   1 46108.4 951.513   1
  -1  -2  -7 11541.1 364.649  -2
   6   2   2 11541.1 364.649   1
   6   2   3 30463.9 1728.02   1
  -2  -2  -7 50660.6 997.284  -2
   6   2   3 50660.6 997.284   1
   6   2   4 44944.4 852.027   1
   6   2   5 6693.95 522.975   1
   6   2   6 542.570 320.674   1
   6   2   7 121041. 2546.11   1
   6   2   8 48252.7 1461.78   1
   6   2   9 1544.96 400.534   1
   6   2  10 39400.8 3071.98   1
  -8  -2  -8 47168.1 1925.35  -2
   6   2  10 47168.1 1925.35   1
  -9  -2  -8 68702.3 2681.89  -2
   6   2  11 68702.3 2681.89   1
 -10  -2  -8 15634.3 1548.91  -2
   6   2  12 15634.3 1548.91   1
 -11  -2  -8 30174.0 1681.15  -2
   6   2  13 30174.0 1681.15   1
   6   2  14 32846.7 3519.39   1
 -12  -2  -8 35529.7 3831.12  -2
   6   2  14 35529.7 3831.12   1
  -9   3   6 23353.9 2122.32  -2
  -6  -3   9 23353.9 2122.32   1
   8  -3  -6 822.309 1028.38  -2
   6   3  -8 822.309 1028.38   1
  -6  -3   7 6159.37 777.102   1
  -6  -3   6 23639.3 1423.64   1
  -6  -3   5 14924.0 1113.77   1
  -6  -3   4 568.771 416.557   1
  -6  -3   3 28590.1 1103.06   1
  -6  -3   2 94748.4 1886.60   1
   2  -3  -7 45969.8 1308.26  -2
   6   3  -1 45969.8 1308.26   1
   1  -3  -7 50332.8 1386.93  -2
   6   3   0 50332.8 1386.93   1
   0  -3  -7 72764.3 1448.86  -2
   6   3   1 72764.3 1448.86   1
   6   3   2 52487.2 1388.98   1
  -1  -3  -7 54204.3 1382.61  -2
   6   3   2 54204.3 1382.61   1
   6   3   3 16332.4 567.741   1
   6   3   4 102530. 1337.38   1
   6   3   5 16885.6 641.032   1
  -6  -3  -6 1844.15 362.693   1
   6   3   7 16430.2 856.421   1
   6   3   8 36877.0 1520.89   1
  -6  -3  -9 4348.22 996.999   1
  -7  -3  -8 8481.77 1219.83  -2
   6   3   9 8481.77 1219.83   1
  -8  -3  -8 20642.0 1296.83  -2
   6   3  10 20642.0 1296.83   1
  -9  -3  -8 42827.1 2210.92  -2
   6   3  11 42827.1 2210.92   1
   6   3  12 10086.9 1907.01   1
 -10  -3  -8 25480.9 1769.95  -2
   6   3  12 25480.9 1769.95   1
   6   3  13 1826.12 691.361   1
   6   3  14 16665.8 1845.50   1
  -9   4   6 43365.7 3971.74  -2
  -6  -4   9 43365.7 3971.74   1
   6   4  -8 11186.8 1223.51   1
   6   4  -7 2636.45 825.055   1
   6   4  -6 34552.0 2215.51   1
   6   4  -5 34497.9 1414.61   1
   6   4  -4 363.062 498.898   1
   6   4  -3 20034.8 957.466   1
   3  -4  -7 49807.6 1471.78  -2
   6   4  -2 49807.6 1471.78   1
   2  -4  -7 25398.5 1190.35  -2
   6   4  -1 25398.5 1190.35   1
   1  -4  -7 12326.6 671.555  -2
   6   4   0 12326.6 671.555   1
   6   4   1 14392.5 721.339   1
   0  -4  -7 21903.9 1241.15  -2
   6   4   1 21903.9 1241.15   1
   6   4   2 20716.6 663.045   1
  -6  -4  -3 1714.49 275.738   1
   6   4   4 20397.8 640.485   1
   6   4   5 21218.8 768.763   1
   6   4   6 1136.02 379.108   1
  -6  -4  -7 5029.14 487.406   1
   6   4   8 13236.9 807.621  -2
  -6  -4  -8 13236.9 807.621   1
  -7  -4  -8 4770.02 795.706  -2
   6   4   9 4770.02 795.706   1
  -8  -4  -8 8231.76 949.914  -2
   6   4  10 8231.76 949.914   1
   6   4  11 936.076 1385.39   1
  -9  -4  -8 2422.33 1234.45  -2
   6   4  11 2422.33 1234.45   1
   6   4  12 10677.0 998.780   1
   6   4  13 3952.57 824.309   1
  -6  -5   8 12679.3 1389.06   1
   6   5  -7 158.829 810.146   1
  -6  -5   6 16872.8 1350.56   1
  -6  -5   5 37193.2 1816.63   1
   6   5  -4 6546.70 853.330   1
   4  -5  -7 2142.84 781.486  -2
   6   5  -3 2142.84 781.486   1
  -3   5   7 9657.49 769.820  -2
  -6  -5   2 9657.49 769.820   1
   2  -5  -7 18188.6 792.030  -2
   6   5  -1 18188.6 792.030   1
   6   5   0 567.213 312.919   1
   1  -5  -7 1530.49 1113.27  -2
   6   5   0 1530.49 1113.27   1
   6   5   1 8924.13 493.958   1
   6   5   2 371.659 280.678   1
   6   5   3 24153.0 793.739   1
   6   5   4 6896.70 574.225   1
   6   5   5 10028.0 603.571   1
   6   5   6 14680.1 711.605   1
  -4  -5  -8 19285.5 1876.39  -2
   6   5   6 19285.5 1876.39   1
  -5  -5  -8 11220.2 784.323  -2
   6   5   7 11220.2 784.323   1
  -6  -5  -8 564.291 502.220  -2
   6   5   8 564.291 502.220   1
  -7  -5  -8 23271.7 1164.68  -2
   6   5   9 23271.7 1164.68   1
   6   5  10 27378.4 1796.30   1
  -8  -5  -8 42752.7 2181.49  -2
   6   5  10 42752.7 2181.49   1
   6   5  11 2911.63 632.585   1
   6   5  12 6715.30 1001.11   1
  -6  -5 -13 9485.23 1181.65   1
   6   6  -7 8264.16 1146.97   1
   6   6  -6 36.5520 751.718   1
   6  -6  -7 11681.3 1259.45  -2
   6   6  -5 11681.3 1259.45   1
   5  -6  -7 39077.1 2240.17  -2
   6   6  -4 39077.1 2240.17   1
   4  -6  -7 9646.05 1291.03  -2
   6   6  -3 9646.05 1291.03   1
   3  -6  -7 6316.36 706.527  -2
   6   6  -2 6316.36 706.527   1
   6   6  -1 56121.8 1435.95   1
  -6  -6   0 52775.2 1349.60   1
  -6  -6  -1 1391.37 303.698   1
  -6  -6  -2 18145.7 706.544   1
  -6  -6  -3 58194.1 1392.44   1
  -6  -6  -4 27535.8 986.722   1
  -6  -6  -5 733.959 554.665   1
  -3  -6  -8 8427.99 858.698  -2
   6   6   5 8427.99 858.698   1
   4   6   8 88810.5 2123.58  -2
  -6  -6  -6 88810.5 2123.58   1
  -5  -6  -8 105343. 3017.70  -2
   6   6   7 105343. 3017.70   1
   6   6   8 6722.48 811.380  -2
  -6  -6  -8 6722.48 811.380   1
   6   6   9 14048.0 955.220   1
  -6  -6 -10 48217.8 1696.69   1
   6   6  11 12959.7 1169.08   1
  -6  -6 -12 2559.11 1049.36   1
   6   6  13 29188.4 2309.09   1
   6   7  -7 29908.2 3344.38   1
   7  -7  -7 9824.62 1386.14  -2
   6   7  -6 9824.62 1386.14   1
   6  -7  -7 8741.37 1345.67  -2
   6   7  -5 8741.37 1345.67   1
   5  -7  -7 64072.5 3104.95  -2
   6   7  -4 64072.5 3104.95   1
   4  -7  -7 50429.8 1808.67  -2
   6   7  -3 50429.8 1808.67   1
   6   7  -2 3287.51 607.317   1
   6   7  -1 40039.2 1285.48   1
  -6  -7   0 103447. 1793.03   1
   6   7   1 27653.6 931.179   1
  -6  -7  -2 30405.1 1068.65   1
   6   7   3 77440.2 1674.30   1
  -6  -7  -4 77409.4 3927.39   1
  -2  -7  -8 78131.2 1875.70  -2
   6   7   4 78131.2 1875.70   1
  -3  -7  -8 7317.47 743.401  -2
   6   7   5 7317.47 743.401   1
   4   7   8 64422.5 1940.51  -2
  -6  -7  -6 64422.5 1940.51   1
   5   7   8 66769.1 1548.84  -2
  -6  -7  -7 66769.1 1548.84   1
  -6  -7  -8 9330.73 813.935   1
   6   7   9 3733.68 645.446   1
  -6  -7 -10 15304.1 1063.49   1
   6   7  11 20561.2 1233.54   1
   6   7  12 1784.53 1029.55   1
  -6  -7 -13 8140.94 1909.58   1
   6  -8  -7 5725.98 1556.81  -2
   6   8  -5 5725.98 1556.81   1
   5  -8  -7 34861.9 1964.75  -2
   6   8  -4 34861.9 1964.75   1
   6   8  -3 59096.4 2382.85   1
  -6  -8   2 1949.87 712.941   1
   6   8  -1 18524.7 973.562   1
   6   8   0 68820.2 1742.26   1
  -6  -8  -1 39779.7 1524.99   1
   6   8   2 426.382 513.034   1
  -1  -8  -8 42686.5 1603.86  -2
   6   8   3 42686.5 1603.86   1
  -2  -8  -8 52428.0 1821.13  -2
   6   8   4 52428.0 1821.13   1
   3   8   8 7199.44 778.536  -2
  -6  -8  -5 7199.44 778.536   1
  -6  -8  -6 1813.00 1035.33   1
  -4  -8  -8 6714.00 725.236  -2
   6   8   6 6714.00 725.236   1
  -6  -8  -7 21628.9 948.578   1
  -6  -8  -8 33150.3 1306.19   1
  -6  -8  -9 275.620 604.651   1
   6   8  10 4310.25 690.880   1
  -6  -8 -11 8156.54 886.452   1
  -6  -8 -12 15304.4 1423.66   1
   9   8   9 18759.8 2603.28  -2
  -6  -8 -12 18759.8 2603.28   1
  10   8   9 3827.23 2177.36  -2
  -6  -8 -13 3827.23 2177.36   1
   6   9  -4 11594.1 2104.18   1
  -6  -9   3 28206.7 1773.64   1
  -6  -9   2 5516.70 809.495   1
   6   9  -1 194.827 752.197   1
   6   9   0 20016.7 1198.95   1
  -6  -9  -1 33849.8 1516.03   1
   0   9   8 16875.2 1189.93  -2
  -6  -9  -2 16875.2 1189.93   1
   1   9   8 5059.97 964.286  -2
  -6  -9  -3 5059.97 964.286   1
   2   9   8 34268.8 1656.51  -2
  -6  -9  -4 34268.8 1656.51   1
  -6  -9  -5 33373.8 1689.05   1
  -3  -9  -8 36439.5 2217.77  -2
   6   9   5 36439.5 2217.77   1
  -6  -9  -6 15421.2 851.697   1
   6   9   7 2877.97 518.557   1
   6   9   8 41081.0 1519.59   1
  -6  -9  -9 36511.6 1454.91   1
  -6  -9 -10 739.660 677.838   1
  -6  -9 -11 10702.3 1426.87   1
  -8  -9  -9 13766.5 1769.32  -2
   6   9  11 13766.5 1769.32   1
   9   9   9 48346.3 3105.42  -2
  -6  -9 -12 48346.3 3105.42   1
   6  10  -2 31888.4 1937.78   1
   6  10  -1 16160.1 1441.35   1
  -6 -10   0 339.166 926.900   1
   2 -10  -8 8959.29 1522.99  -2
   6  10   0 8959.29 1522.99   1
  -1  10   8 37578.4 1949.11  -2
  -6 -10  -1 37578.4 1949.11   1
   0 -10  -8 47675.3 2516.96  -2
   6  10   2 47675.3 2516.96   1
  -1 -10  -8 23054.2 1566.88  -2
   6  10   3 23054.2 1566.88   1
   6  10   4 13751.5 1262.13   1
  -2 -10  -8 36811.7 2377.03  -2
   6  10   4 36811.7 2377.03   1
   6  10   5 72798.3 2033.90   1
  -6 -10  -6 45666.8 1645.65   1
  -6 -10  -7 2166.66 600.885   1
  -6 -10  -8 27939.0 1354.86   1
  -6 -10  -9 96293.2 2434.08   1
  -6 -10 -10 6532.90 1076.05   1
  -7 -10  -9 7134.67 1710.83  -2
   6  10  10 7134.67 1710.83   1
  -8 -10  -9 11990.5 2598.86  -2
   6  10  11 11990.5 2598.86   1
   6  11  -1 21936.8 2916.02   1
   2 -11  -8 15152.8 3169.32  -2
   6  11   0 15152.8 3169.32   1
   1 -11  -8 42418.7 2514.12  -2
   6  11   1 42418.7 2514.12   1
   0  11   8 55517.0 2242.54  -2
  -6 -11  -2 55517.0 2242.54   1
  -6 -11  -3 14243.1 1314.67   1
  -1 -11  -8 17494.4 2877.94  -2
   6  11   3 17494.4 2877.94   1
   6  11   4 72.0488 739.932   1
  -6 -11  -5 41538.1 1654.91   1
  -6 -11  -6 33409.0 1504.65   1
  -6 -11  -7 2633.68 640.854   1
   6  11   8 9537.42 906.022   1
   6  11   9 44676.6 3963.49   1
  -7 -11  -9 31354.5 2893.46  -2
   6  11  10 31354.5 2893.46   1
  -6 -12  -2 21440.3 2828.75   1
  -6 -12  -3 8194.19 1919.92   1
  -6 -12  -5 19446.9 2710.04   1
  -6 -12  -6 15110.7 2465.63   1
  -6 -12  -7 3441.68 1644.25   1
   1  10  -6 16843.6 2826.68  -2
   7 -10  -2 16843.6 2826.68   1
  -7   9   4 14619.4 2498.24   1
  -7   9   3 10806.4 1565.81   1
   7  -9  -2-1136.94 1044.16   1
   7  -9  -1 17720.8 1509.92   1
   7  -9   0 32680.5 2442.98   1
  -7   9  -1 61.4438 1513.40   1
  -1   9  -7 5238.94 2032.73  -2
   7  -9   1 5238.94 2032.73   1
  -7   9  -2 9065.01 2144.61   1
  -2   9  -7 13472.5 2565.10  -2
   7  -9   2 13472.5 2565.10   1
   6   8  -6 22851.9 3989.03  -2
   7  -8  -7 22851.9 3989.03   1
  -5  -8   6 19181.9 1681.26  -2
  -7   8   6 19181.9 1681.26   1
   7  -8  -5 807.373 842.290   1
   4   8  -6 3980.30 1894.27  -2
   7  -8  -5 3980.30 1894.27   1
   7  -8  -4 20269.2 1921.43   1
  -7   8   3 8777.84 1259.97   1
  -7   8   2 1126.22 991.664   1
  -7   8   1 10898.4 1449.57   1
  -7   8   0 21911.5 2795.47   1
   0   8  -7 21935.5 2844.39  -2
   7  -8   0 21935.5 2844.39   1
  -1   8  -7 7507.24 1455.62  -2
   7  -8   1 7507.24 1455.62   1
   2  -8   7 7257.28 1609.85  -2
  -7   8  -2 7257.28 1609.85   1
   3  -8   7 24043.0 2705.64  -2
  -7   8  -3 24043.0 2705.64   1
   4  -8   7 11440.4 1631.68  -2
  -7   8  -4 11440.4 1631.68   1
  -7   8  -5 1052.87 1437.63   1
  -5   8  -7 424.551 2049.73  -2
   7  -8   5 424.551 2049.73   1
   7   7  -6 376.273 2013.45  -2
   7  -7  -8 376.273 2013.45   1
   6   7  -6 7579.49 1253.04  -2
   7  -7  -7 7579.49 1253.04   1
   7  -7  -6 15514.2 1162.76   1
   7  -7  -5 58.9515 670.142   1
  -7   7   4 11067.1 995.324   1
   7  -7  -3 4709.68 721.162   1
  -7   7   2 141.047 654.328   1
  -7   7   1 384.120 860.189   1
   0   7  -7 7152.37 1405.11  -2
   7  -7   0 7152.37 1405.11   1
  -1   7  -7 4413.25 1237.45  -2
   7  -7   1 4413.25 1237.45   1
  -2   7  -7 1914.10 1197.46  -2
   7  -7   2 1914.10 1197.46   1
  -3   7  -7 1731.36 1262.85  -2
   7  -7   3 1731.36 1262.85   1
   7  -7   4 3291.94 821.625   1
   7  -7   5 6070.01 968.023   1
   7  -7   6 1911.49 833.788   1
   7  -6  -8 1870.42 1356.19   1
  -7  -6   6 3107.68 1376.12  -2
  -7   6   8 3107.68 1376.12   1
   7  -6  -7 961.538 815.221   1
   7  -6  -6 4798.95 752.059   1
   7  -6  -5 6690.87 818.390   1
  -7   6   4 3591.69 683.320   1
   7  -6  -3 9724.03 881.153   1
  -7   6   2 2157.73 670.022   1
   2   6  -7 4038.31 1231.07  -2
   7  -6  -2 4038.31 1231.07   1
   1   6  -7 7515.73 938.214  -2
   7  -6  -1 7515.73 938.214   1
   0  -6   7 4438.76 1020.27  -2
  -7   6   0 4438.76 1020.27   1
  -1   6  -7 15931.3 1545.23  -2
   7  -6   1 15931.3 1545.23   1
  -7   6  -2 10962.3 1800.90   1
   2  -6   7 12318.5 1482.13  -2
  -7   6  -2 12318.5 1482.13   1
   7  -6   3 1617.29 597.093   1
   7  -6   4 3400.93 688.350   1
  -7   6  -5 17719.6 1155.24   1
   7  -6   6 15664.4 1328.39   1
   7  -6   7 256.562 1541.13   1
  -7   6  -8 17795.6 1983.44   1
   7  -5  -9 20608.5 2796.27   1
   7  -5  -8 28123.6 1808.78   1
   7  -5  -7 3961.94 748.516   1
   7  -5  -6 930.450 596.408   1
   7  -5  -5 33452.0 1495.10   1
   7  -5  -4 43876.3 1663.19   1
  -7   5   3 1430.59 746.113   1
   3   5  -7 4458.96 1181.54  -2
   7  -5  -3 4458.96 1181.54   1
   2   5  -7 16638.9 1403.79  -2
   7  -5  -2 16638.9 1403.79   1
   1   5  -7 32336.2 1873.15  -2
   7  -5  -1 32336.2 1873.15   1
   0   5  -7 28224.7 1800.63  -2
   7  -5   0 28224.7 1800.63   1
  -7   5  -1 15629.5 2021.26   1
  -1   5  -7 39927.5 2884.24  -2
   7  -5   1 39927.5 2884.24   1
   7  -5   2 52200.2 2368.86   1
   7  -5   3 24516.7 1364.04   1
   7  -5   4 414.246 547.665   1
   7  -5   5 10478.4 1030.31   1
  -7   5  -6 25034.4 1295.34   1
   7  -5   7 508.297 907.190   1
   7  -5   8 3155.61 1450.29  -2
  -7   5  -8 3155.61 1450.29   1
   8  -5   8 31587.8 2742.41  -2
  -7   5  -9 31587.8 2742.41   1
   7  -4  -9 4670.97 870.945   1
   7  -4  -8 71226.4 2358.82   1
   7  -4  -7 29124.9 1496.29   1
   7  -4  -6 25.6707 604.998   1
   7  -4  -5 30247.7 1240.25   1
  -7   4   4 40109.8 2180.19   1
   4   4  -7 47576.3 2380.70  -2
   7  -4  -4 47576.3 2380.70   1
   3   4  -7 27922.7 1532.90  -2
   7  -4  -3 27922.7 1532.90   1
   2   4  -7 39921.1 2264.36  -2
   7  -4  -2 39921.1 2264.36   1
  -1  -4   7 44603.8 1884.85  -2
  -7   4   1 44603.8 1884.85   1
   7  -4   0 24124.0 1564.25   1
   0   4  -7 25508.9 2445.21  -2
   7  -4   0 25508.9 2445.21   1
   7  -4   1 1542.82 555.713   1
  -7   4  -2 30933.1 1753.34   1
   7  -4   3 39118.2 1410.55   1
   7  -4   4 1601.58 432.229   1
   7  -4   5 12992.8 787.261   1
   7  -4   6 9245.71 796.264   1
  -5   4  -8 22256.5 2328.70  -2
   7  -4   6 22256.5 2328.70   1
  -6   4  -8 4465.14 1131.17  -2
   7  -4   7 4465.14 1131.17   1
  -7   4  -8 1123.76 1831.58  -2
   7  -4   8 1123.76 1831.58   1
   8  -4   8 11598.6 1718.81  -2
  -7   4  -9 11598.6 1718.81   1
   7  -4  10 2229.91 1455.33   1
   9  -4   8 12295.8 2535.96  -2
  -7   4 -10 12295.8 2535.96   1
  -7   4 -11-326.109 1802.69   1
  -7   3   9 1295.44 714.165   1
   7  -3  -8 24687.4 1455.18   1
   7  -3  -7 40555.4 1707.87   1
  -7   3   6 1709.57 496.716   1
  -7   3   5 11286.1 1685.81   1
   5   3  -7 12296.5 1035.53  -2
   7  -3  -5 12296.5 1035.53   1
   4   3  -7 52760.9 1889.17  -2
   7  -3  -4 52760.9 1889.17   1
   3   3  -7 36447.4 2061.94  -2
   7  -3  -3 36447.4 2061.94   1
  -2  -3   7 7308.78 866.469  -2
  -7   3   2 7308.78 866.469   1
   7  -3  -1 30748.9 1415.13   1
   7  -3   0 26843.2 1294.45   1
   7  -3   1 17166.2 907.556   1
   7  -3   2 326.247 310.300   1
   7  -3   3 9141.46 613.169   1
  -7   3  -4 60180.2 1445.35   1
   7  -3   5 5299.35 716.382   1
   4  -3   8 7182.23 992.060  -2
  -7   3  -5 7182.23 992.060   1
  -5   3  -8 11421.7 913.621  -2
   7  -3   6 11421.7 913.621   1
  -6   3  -8 40395.5 1942.10  -2
   7  -3   7 40395.5 1942.10   1
  -7   3  -8 13148.6 1185.08  -2
   7  -3   8 13148.6 1185.08   1
  -7   3  -9 1338.95 731.593   1
  -7   3 -10 7882.08 1412.25   1
   7  -3  11 15453.8 2548.21   1
   7  -2  -9 351.619 737.951   1
   7  -2  -8 4123.15 802.803   1
   7  -2  -7 35686.5 1613.70   1
   6   2  -7 9523.52 836.244  -2
   7  -2  -6 9523.52 836.244   1
  -5  -2   7 4624.12 757.288  -2
  -7   2   5 4624.12 757.288   1
   4   2  -7 24635.1 1327.52  -2
   7  -2  -4 24635.1 1327.52   1
   3   2  -7 62287.6 1689.64  -2
   7  -2  -3 62287.6 1689.64   1
   7  -2  -2 66370.3 1633.69   1
   7  -2  -1 2261.49 445.319   1
   7  -2   0 59951.6 1514.01   1
   7  -2   1 71251.3 1647.58   1
   7  -2   2 30891.8 1112.96   1
   7  -2   3 2320.62 385.272   1
  -7   2  -4 86411.7 3773.78   1
  -3   2  -8 127241. 2167.43  -2
   7  -2   4 127241. 2167.43   1
  -4   2  -8 101612. 2398.89  -2
   7  -2   5 101612. 2398.89   1
  -5   2  -8 10166.4 832.237  -2
   7  -2   6 10166.4 832.237   1
   7  -2   7 23191.1 1537.48   1
   6  -2   8 61622.4 1949.64  -2
  -7   2  -7 61622.4 1949.64   1
   7  -2   8 72942.0 1988.95   1
   7  -2   9 30260.4 1240.17   1
  -7   2 -10 12692.7 1011.23   1
   7  -2  11 42853.6 2117.90   1
   7  -2  12 13010.8 2149.43   1
   7  -1  -9 13904.5 1417.93   1
   7  -1  -8 935.276 781.195   1
   7   1  -7 32161.1 1930.38  -2
   7  -1  -7 32161.1 1930.38   1
   6   1  -7 64533.9 3146.24  -2
   7  -1  -6 64533.9 3146.24   1
  -5  -1   7 35857.1 1491.92  -2
  -7   1   5 35857.1 1491.92   1
   7  -1  -4 2085.06 523.344   1
   7  -1  -3 61233.5 1663.86   1
   7  -1  -2 104651. 2093.32   1
   7  -1  -1 37483.4 1145.88   1
   7  -1   0 40366.5 1174.85   1
   7  -1   1 176349. 2402.69   1
   7  -1   2 102676. 1856.35   1
  -2   1  -8 15723.9 770.455  -2
   7  -1   3 15723.9 770.455   1
  -3   1  -8 69122.6 2134.18  -2
   7  -1   4 69122.6 2134.18   1
  -4   1  -8 139211. 2764.69  -2
   7  -1   5 139211. 2764.69   1
   7  -1   6 6225.70 605.518   1
   5  -1   8 8348.86 1449.97  -2
  -7   1  -6 8348.86 1449.97   1
  -7   1  -7 15976.0 822.758   1
   7  -1   8 49946.2 1432.19   1
   7  -1   9 39037.3 1365.61   1
   7  -1  10 4971.71 707.216   1
   7  -1  11 18431.8 1236.30   1
   7  -1  12 26347.1 1784.12   1
   7   0  -9 39759.4 2656.24   1
   9   0  -7 46945.2 4196.99  -2
   7   0  -9 46945.2 4196.99   1
   8   0  -7 16452.0 1640.64  -2
   7   0  -8 16452.0 1640.64   1
   7   0  -7 7519.51 1052.56  -2
   7   0  -7 7519.51 1052.56   1
   6   0  -7 112041. 3366.79  -2
   7   0  -6 112041. 3366.79   1
   7   0  -5 39443.6 1472.04   1
   7   0  -4 699.078 520.800   1
   7   0  -3 75605.9 1815.37   1
   7   0  -2 79188.8 1782.31   1
   7   0  -1 35194.3 958.179   1
   7   0   0 3528.89 396.338   1
   7   0   1 77869.4 1510.41   1
  -1   0  -8 63733.2 1384.51  -2
   7   0   2 63733.2 1384.51   1
  -2   0  -8 18346.4 786.868  -2
   7   0   3 18346.4 786.868   1
  -3   0  -8 37740.6 1332.90  -2
   7   0   4 37740.6 1332.90   1
   7   0   5 90963.1 2243.45   1
   7   0   6 33401.2 1425.52   1
   7   0   7 2491.44 441.023   1
   7   0   8 11295.9 741.475   1
   7   0   9 18719.7 1108.84   1
   7   0  10 12350.9 965.056   1
   7   0  11 509.263 609.044   1
 -10   0  -9 17872.6 1425.39  -2
   7   0  12 17872.6 1425.39   1
 -11   0  -9 26104.5 2878.51  -2
   7   0  13 26104.5 2878.51   1
  -9   1   7 28629.0 2736.18  -2
  -7  -1   9 28629.0 2736.18   1
   8  -1  -7 21178.3 2083.36  -2
   7   1  -8 21178.3 2083.36   1
   7  -1  -7 9679.02 1240.87  -2
   7   1  -7 9679.02 1240.87   1
   7   1  -6 35089.7 1778.80   1
   7   1  -5 45728.7 1914.48   1
   7   1  -4 7310.16 811.779   1
   7   1  -3 20372.8 1166.63   1
   7   1  -2 70209.6 2012.26   1
   7   1  -1 11714.1 686.701   1
   7   1   0 160.770 370.393   1
   1  -1  -8 5241.37 549.548  -2
   7   1   0 5241.37 549.548   1
   0  -1  -8 51293.7 1183.70  -2
   7   1   1 51293.7 1183.70   1
   1   1   8 57807.2 1546.30  -2
  -7  -1  -2 57807.2 1546.30   1
  -2  -1  -8 27256.9 1045.56  -2
   7   1   3 27256.9 1045.56   1
  -7  -1  -4 2955.72 426.484   1
   7   1   5 3247.54 547.981   1
  -7  -1  -6 111843. 2522.80   1
   7   1   7 26415.1 1308.28   1
   7   1   8 7433.94 613.095   1
  -7  -1  -9 40977.9 1344.90   1
   7   1  10 47884.3 1999.58   1
   8   1   9 52007.9 3724.57  -2
  -7  -1 -10 52007.9 3724.57   1
  -9  -1  -9 14447.0 1294.36  -2
   7   1  11 14447.0 1294.36   1
 -10  -1  -9 3929.83 993.341  -2
   7   1  12 3929.83 993.341   1
 -11  -1  -9 36074.5 2205.60  -2
   7   1  13 36074.5 2205.60   1
  -9   2   7 7452.65 2445.15  -2
  -7  -2   9 7452.65 2445.15   1
   8  -2  -7 17162.4 1513.19  -2
   7   2  -8 17162.4 1513.19   1
   7   2  -7 723.455 653.754   1
  -7  -2   6 1327.62 580.701   1
   7   2  -5 27974.2 1560.45   1
   7   2  -4 12077.1 950.778   1
   7   2  -3 5019.84 709.775   1
   7   2  -2 17307.1 1068.79   1
  -2   2   8 66744.3 1896.75  -2
  -7  -2   1 66744.3 1896.75   1
   1  -2  -8 41935.0 1312.36  -2
   7   2   0 41935.0 1312.36   1
   0  -2  -8 27976.3 1115.52  -2
   7   2   1 27976.3 1115.52   1
   7   2   2 94284.8 3230.74   1
  -1  -2  -8 116917. 1860.31  -2
   7   2   2 116917. 1860.31   1
   7   2   3 122243. 1730.11   1
   7   2   4 16711.7 681.718   1
   7   2   5 5542.79 512.673   1
   7   2   6 95413.7 1889.28   1
  -7  -2  -7 121099. 2705.77   1
  -7  -2  -8 7320.03 802.324   1
   7   2   9 30534.2 1189.05   1
  -8  -2  -9 147535. 3807.13  -2
   7   2  10 147535. 3807.13   1
  -9  -2  -9 25727.4 1844.96  -2
   7   2  11 25727.4 1844.96   1
 -10  -2  -9 763.800 912.286  -2
   7   2  12 763.800 912.286   1
   7   2  13 48027.0 2354.10   1
 -11  -2  -9 56495.5 4366.70  -2
   7   2  13 56495.5 4366.70   1
  -7  -3   8 7771.67 1088.31   1
   7   3  -7 20280.1 1312.39   1
   7   3  -6 5558.82 926.595   1
  -7  -3   5 6474.52 890.502   1
   7   3  -4 28651.9 1866.85   1
   7   3  -3 27923.8 1351.78   1
   3  -3  -8 46372.4 1492.88  -2
   7   3  -2 46372.4 1492.88   1
  -2   3   8 86450.2 2511.61  -2
  -7  -3   1 86450.2 2511.61   1
  -1   3   8 70678.2 1693.11  -2
  -7  -3   0 70678.2 1693.11   1
   7   3   1 49769.5 2214.57   1
   0  -3  -8 87766.5 1518.60  -2
   7   3   1 87766.5 1518.60   1
   7   3   2 32973.1 872.690   1
   7   3   3 166751. 1854.37   1
   7   3   4 103135. 1647.75   1
   7   3   5 9896.81 577.107   1
   7   3   6 53429.2 1480.82   1
   7   3   7 114585. 2211.30   1
   6   3   9 26482.6 1435.51  -2
  -7  -3  -8 26482.6 1435.51   1
   7   3   9 15370.9 1466.21  -2
  -7  -3  -9 15370.9 1466.21   1
  -8  -3  -9 56839.7 2410.46  -2
   7   3  10 56839.7 2410.46   1
   7   3  11 33291.3 3135.35   1
  -9  -3  -9 36984.2 2439.36  -2
   7   3  11 36984.2 2439.36   1
   7   3  12 1966.33 703.185   1
   7   3  13 13657.6 1191.43   1
  -7  -4   8-288.439 1519.42   1
   7   4  -7 15549.3 1423.55   1
   7   4  -6 9452.02 1336.30   1
   7   4  -5-38.6270 707.569   1
   7   4  -4 37896.2 1518.24   1
  -4   4   8 36622.1 1439.47  -2
  -7  -4   3 36622.1 1439.47   1
  -3   4   8 35495.9 1550.55  -2
  -7  -4   2 35495.9 1550.55   1
  -2   4   8 35305.9 1207.80  -2
  -7  -4   1 35305.9 1207.80   1
   7   4   0 52899.4 1703.09   1
   1  -4  -8 53531.1 1664.80  -2
   7   4   0 53531.1 1664.80   1
   7   4   1 12784.3 657.940   1
   7   4   2 795.180 294.254   1
   7   4   3 40709.8 967.576   1
   7   4   4 66544.7 1212.13   1
  -7  -4  -5 6209.51 592.655   1
  -7  -4  -6 13256.5 802.012   1
   5   4   9 33474.2 1361.97  -2
  -7  -4  -7 33474.2 1361.97   1
  -6  -4  -9 15049.4 1241.95  -2
   7   4   8 15049.4 1241.95   1
   7   4   9 324.433 803.273  -2
  -7  -4  -9 324.433 803.273   1
   7   4  10 6965.37 1054.38   1
  -8  -4  -9 6909.77 1409.77  -2
   7   4  10 6909.77 1409.77   1
   7   4  11 43901.6 2063.23   1
   7   4  12 2904.74 929.035   1
   7   4  13 2178.54 969.607   1
  -7  -5   7 3291.08 979.693   1
   7   5  -6 5385.19 1087.43   1
   7   5  -5 1222.52 738.321   1
   5  -5  -8 6821.53 1075.44  -2
   7   5  -4 6821.53 1075.44   1
   4  -5  -8 7225.71 1030.82  -2
   7   5  -3 7225.71 1030.82   1
   3  -5  -8 7585.72 780.419  -2
   7   5  -2 7585.72 780.419   1
  -7  -5   1 681.483 426.717   1
   2  -5  -8 11831.2 1142.94  -2
   7   5  -1 11831.2 1142.94   1
   7   5   0 22151.5 823.692   1
   7   5   1 1167.08 343.982   1
   7   5   2 14289.7 702.548   1
   7   5   3 271.441 295.396   1
  -7  -5  -4 5437.14 501.190   1
   7   5   5 16817.9 981.812   1
  -3  -5  -9 18571.8 1353.70  -2
   7   5   5 18571.8 1353.70   1
   4   5   9 1917.49 618.929  -2
  -7  -5  -6 1917.49 618.929   1
   5   5   9 2771.43 679.126  -2
  -7  -5  -7 2771.43 679.126   1
   6   5   9 30417.3 1455.79  -2
  -7  -5  -8 30417.3 1455.79   1
   7   5   9 29655.6 1862.66   1
  -7  -5  -9 38216.2 2126.08  -2
   7   5   9 38216.2 2126.08   1
   7   5  10 926.812 678.950   1
   7   5  11 25238.0 1364.64   1
   7   5  12 30491.6 1852.35   1
   7   5  13 8437.98 1155.90   1
   7  -6  -8 3315.41 1408.35  -2
   7   6  -6 3315.41 1408.35   1
   6  -6  -8 7510.49 1310.31  -2
   7   6  -5 7510.49 1310.31   1
   5  -6  -8 9183.45 1381.54  -2
   7   6  -4 9183.45 1381.54   1
   4  -6  -8 1219.64 950.046  -2
   7   6  -3 1219.64 950.046   1
   7   6  -2 7606.34 672.727   1
   7   6  -1 16645.6 884.187   1
   7   6   0 3822.62 485.825   1
   7   6   1 6832.79 556.748   1
   7   6   2 19567.4 976.776   1
  -7  -6  -3 10198.4 735.773   1
  -7  -6  -4 153.168 931.809   1
  -2  -6  -9 10779.2 962.707  -2
   7   6   4 10779.2 962.707   1
   3   6   9 44227.9 1710.96  -2
  -7  -6  -5 44227.9 1710.96   1
   4   6   9 44350.5 2345.43  -2
  -7  -6  -6 44350.5 2345.43   1
   5   6   9 414.348 788.545  -2
  -7  -6  -7 414.348 788.545   1
   7   6   8 20523.2 1103.48   1
  -6  -6  -9 17630.6 2264.69  -2
   7   6   8 17630.6 2264.69   1
   7   6   9 45321.8 1488.58   1
  -7  -6 -10 10354.7 806.722   1
   7   6  11 3686.58 915.670   1
   7   6  12 75861.8 3521.03   1
  -7  -6 -13 10811.3 2192.76   1
   7  -7  -8 3020.17 2115.82  -2
   7   7  -6 3020.17 2115.82   1
   6  -7  -8 19947.8 2046.35  -2
   7   7  -5 19947.8 2046.35   1
   5  -7  -8 31117.7 1863.35  -2
   7   7  -4 31117.7 1863.35   1
   7   7  -3 6172.87 819.440   1
   7   7  -2 14701.0 1049.68   1
  -7  -7   1 40700.1 1365.47   1
  -7  -7   0 20357.5 960.866   1
  -7  -7  -1 8460.31 890.571   1
   7   7   2 15635.8 925.094   1
  -7  -7  -3 35367.2 2773.42   1
  -1  -7  -9 34968.0 1566.58  -2
   7   7   3 34968.0 1566.58   1
  -2  -7  -9 9764.21 1020.28  -2
   7   7   4 9764.21 1020.28   1
  -3  -7  -9 26805.0 1597.54  -2
   7   7   5 26805.0 1597.54   1
   4   7   9 41810.8 1520.03  -2
  -7  -7  -6 41810.8 1520.03   1
  -7  -7  -7 5858.26 798.726   1
  -5  -7  -9 7849.43 1705.95  -2
   7   7   7 7849.43 1705.95   1
  -7  -7  -8 14584.3 1019.93   1
  -7  -7  -9 18372.6 1151.16   1
   7   7  10 7833.37 819.617   1
  -7  -7 -11 1852.40 689.875   1
  -7  -7 -12 15777.3 1333.55   1
   7   8  -4 28262.3 1828.75   1
   7   8  -3 12875.0 1306.91   1
   7   8  -2 290.864 725.948   1
  -7  -8   1 18438.0 1131.29   1
  -7  -8   0 16931.7 1273.15   1
   7   8   1 372.260 667.267   1
   0   8   9 11401.0 1178.86  -2
  -7  -8  -2 11401.0 1178.86   1
   1   8   9 15237.0 1402.52  -2
  -7  -8  -3 15237.0 1402.52   1
   2   8   9 718.830 616.959  -2
  -7  -8  -4 718.830 616.959   1
   3   8   9 1552.47 686.004  -2
  -7  -8  -5 1552.47 686.004   1
  -7  -8  -6 1450.72 486.666   1
   7   8   7 9278.10 883.923   1
   7   8   8 833.960 573.180   1
   7   8   9 239.358 599.273   1
   7   8  10 1543.45 646.663   1
   7   8  11 4173.51 854.286   1
   8   8  10 6362.02 1873.67  -2
  -7  -8 -11 6362.02 1873.67   1
   9   8  10 6633.45 1483.55  -2
  -7  -8 -12 6633.45 1483.55   1
   7   9  -4 9676.03 2065.32   1
   7   9  -3 5542.17 1772.28   1
   7   9  -2 3907.43 1154.37   1
   7   9  -1 2692.05 1038.91   1
  -7  -9   0 8282.94 1227.78   1
   2  -9  -9 9875.93 2243.06  -2
   7   9   0 9875.93 2243.06   1
  -1   9   9 14069.9 1393.83  -2
  -7  -9  -1 14069.9 1393.83   1
   0  -9  -9 1615.18 754.249  -2
   7   9   2 1615.18 754.249   1
   1   9   9 7474.82 1041.86  -2
  -7  -9  -3 7474.82 1041.86   1
  -7  -9  -4 24163.1 2554.16   1
   2   9   9 25103.6 1641.10  -2
  -7  -9  -4 25103.6 1641.10   1
   7   9   5 4732.93 721.122   1
   7   9   6-50.3762 477.251   1
   7   9   7 11214.3 863.948   1
   7   9   8 26407.6 1429.65   1
   7   9   9 1909.20 686.587   1
  -7  -9 -10 1502.93 962.586   1
  -7  -9 -10 2051.84 1238.53  -2
   7   9  10 2051.84 1238.53   1
   8   9  10 13245.1 1380.58  -2
  -7  -9 -11 13245.1 1380.58   1
   9   9  10 19474.8 3735.81  -2
  -7  -9 -12 19474.8 3735.81   1
   2 -10  -9 9326.23 1804.41  -2
   7  10   0 9326.23 1804.41   1
  -1  10   9 33414.0 2235.45  -2
  -7 -10  -1 33414.0 2235.45   1
   0  10   9 20921.2 1538.17  -2
  -7 -10  -2 20921.2 1538.17   1
  -7 -10  -3-1046.95 939.245   1
  -1 -10  -9 5561.91 1504.33  -2
   7  10   3 5561.91 1504.33   1
  -7 -10  -4 37267.1 1732.45   1
   7  10   5 50559.4 1964.75   1
  -7 -10  -6 8033.43 822.075   1
  -7 -10  -7 5458.70 803.948   1
  -7 -10  -8 68086.5 2050.79   1
  -7 -10  -9 5676.98 1861.03   1
  -6 -10 -10 8197.52 1432.63  -2
   7  10   9 8197.52 1432.63   1
  -7 -10 -10 2829.33 1420.62  -2
   7  10  10 2829.33 1420.62   1
  -1  11   9 49504.2 3992.83  -2
  -7 -11  -1 49504.2 3992.83   1
  -7 -11  -2 37036.7 2508.09   1
   0  11   9 42123.0 3932.53  -2
  -7 -11  -2 42123.0 3932.53   1
  -7 -11  -3 3031.20 779.589   1
  -7 -11  -4 17772.0 1314.67   1
   7  11   5 38906.7 1838.43   1
   7  11   6 10411.8 1078.00   1
   7  11   7 2434.32 1037.66   1
  -8   8   4 25281.6 3039.58   1
  -8   8   3 2279.48 1075.72   1
  -8   8   2 11784.6 1571.31   1
  -8   8   1 43927.7 2788.73   1
   0  -8   8 36914.4 2638.72  -2
  -8   8   0 36914.4 2638.72   1
   1  -8   8 12363.5 2149.34  -2
  -8   8  -1 12363.5 2149.34   1
   2  -8   8 27021.8 3074.14  -2
  -8   8  -2 27021.8 3074.14   1
  -3   8  -8 43981.4 2931.22  -2
   8  -8   3 43981.4 2931.22   1
  -4   8  -8 7450.57 2540.14  -2
   8  -8   4 7450.57 2540.14   1
  -8   7   6 139.214 940.762   1
   8  -7  -5 15337.5 1229.28   1
   8  -7  -4 22619.6 1421.16   1
  -8   7   3 2689.53 765.551   1
  -8   7   2 2605.43 1121.39   1
   2   7  -8 10595.0 2316.16  -2
   8  -7  -2 10595.0 2316.16   1
  -1  -7   8 26637.1 2298.88  -2
  -8   7   1 26637.1 2298.88   1
   0   7  -8 38215.8 3217.95  -2
   8  -7   0 38215.8 3217.95   1
   1  -7   8 3213.50 1429.84  -2
  -8   7  -1 3213.50 1429.84   1
   2  -7   8 3570.27 1325.70  -2
  -8   7  -2 3570.27 1325.70   1
   8  -7   3 14809.8 1675.62   1
  -3   7  -8 15093.5 2577.03  -2
   8  -7   3 15093.5 2577.03   1
  -8   7  -4 21321.9 1622.27   1
   8  -7   5 1517.77 874.377   1
   8  -7   6 3593.58 1188.06   1
   8  -6  -7 2293.32 1650.61   1
  -8   6   6 282.757 747.940   1
  -8   6   5 238.716 671.224   1
   8  -6  -4 18196.4 1264.39   1
  -8   6   3 9101.16 1326.75   1
   3   6  -8 12081.8 1714.49  -2
   8  -6  -3 12081.8 1714.49   1
  -2  -6   8 9464.56 920.837  -2
  -8   6   2 9464.56 920.837   1
   1   6  -8 6909.97 1229.37  -2
   8  -6  -1 6909.97 1229.37   1
   0  -6   8 19356.9 2200.07  -2
  -8   6   0 19356.9 2200.07   1
  -8   6  -1 30377.8 3007.29   1
  -1   6  -8 29661.3 2941.82  -2
   8  -6   1 29661.3 2941.82   1
  -8   6  -2-41.3119 825.156   1
  -2   6  -8 668.649 1572.62  -2
   8  -6   2 668.649 1572.62   1
   8  -6   3 8439.46 785.751   1
   8  -6   4 26315.9 1429.95   1
  -8   6  -5 22129.2 1350.53   1
   8  -6   6 2286.47 808.710   1
   8  -5  -7 8566.25 1204.47   1
   8  -5  -6 12927.6 1293.08   1
   8  -5  -5 8420.82 938.059   1
  -8   5   4 542.709 928.808   1
   4   5  -8 4545.80 1389.57  -2
   8  -5  -4 4545.80 1389.57   1
  -3  -5   8 12703.3 1161.02  -2
  -8   5   3 12703.3 1161.02   1
   2   5  -8 29403.3 2192.07  -2
   8  -5  -2 29403.3 2192.07   1
   1   5  -8 14870.0 1386.65  -2
   8  -5  -1 14870.0 1386.65   1
  -8   5   0 3404.41 1299.81   1
   0   5  -8 12497.1 1416.98  -2
   8  -5   0 12497.1 1416.98   1
  -8   5  -1 45738.4 2367.31   1
  -8   5  -2 22247.4 1431.31   1
   8  -5   3 3782.31 668.827   1
  -8   5  -4 40905.0 1648.05   1
   8  -5   5 33071.4 1764.14   1
   8  -5   6-41.2197 764.665   1
  -5   5  -9 535.630 1717.54  -2
   8  -5   6 535.630 1717.54   1
  -6   5  -9 7506.03 1452.73  -2
   8  -5   7 7506.03 1452.73   1
  -7   5  -9 54365.8 5880.76  -2
   8  -5   8 54365.8 5880.76   1
   8  -4  -8 18268.5 1511.32   1
   8  -4  -7 687.226 685.525   1
   8  -4  -6 16713.3 1229.85   1
  -8   4   5 24243.6 1903.26   1
   5   4  -8 49467.1 2663.80  -2
   8  -4  -5 49467.1 2663.80   1
   4   4  -8 15262.0 1334.57  -2
   8  -4  -4 15262.0 1334.57   1
   3   4  -8 19390.5 1570.12  -2
   8  -4  -3 19390.5 1570.12   1
   2   4  -8 18021.3 1416.77  -2
   8  -4  -2 18021.3 1416.77   1
  -8   4   1 2147.19 607.198   1
   8  -4   0 2464.01 626.171   1
   8  -4   1 14536.1 956.964   1
  -8   4  -2 17004.6 1181.85   1
   8  -4   3 293.998 503.235   1
   8  -4   4 21729.9 1158.82   1
   8  -4   5 23362.2 1420.04   1
  -4   4  -9 22779.2 2506.57  -2
   8  -4   5 22779.2 2506.57   1
  -5   4  -9 802.694 943.064  -2
   8  -4   6 802.694 943.064   1
  -6   4  -9 2449.99 1165.08  -2
   8  -4   7 2449.99 1165.08   1
  -7   4  -9 27380.8 3132.11  -2
   8  -4   8 27380.8 3132.11   1
   8  -4   9 10180.3 2238.37   1
   8  -4   9 7543.06 2354.07  -2
  -8   4  -9 7543.06 2354.07   1
  -8   4 -10-414.892 1759.36   1
   8  -3  -8 14384.2 1239.38   1
   8  -3  -7 6232.99 861.654   1
  -8   3   6 986.831 1145.03   1
   6   3  -8 1018.50 922.478  -2
   8  -3  -6 1018.50 922.478   1
   5   3  -8 11105.0 1072.55  -2
   8  -3  -5 11105.0 1072.55   1
   4   3  -8 17653.0 1458.99  -2
   8  -3  -4 17653.0 1458.99   1
   3   3  -8 1407.01 796.076  -2
   8  -3  -3 1407.01 796.076   1
   8  -3  -2 8493.34 899.699   1
   8  -3  -1 10562.2 808.658   1
   8  -3   0 1569.37 466.851   1
   8  -3   1 4764.08 601.497   1
   8  -3   2 384.050 444.688   1
   8  -3   3 4790.13 614.224   1
  -8   3  -4 152.744 940.334   1
  -3   3  -9 1554.72 778.828  -2
   8  -3   4 1554.72 778.828   1
  -4   3  -9 13995.9 1148.79  -2
   8  -3   5 13995.9 1148.79   1
  -5   3  -9 18258.1 1417.05  -2
   8  -3   6 18258.1 1417.05   1
   8  -3   7 5517.40 1441.63   1
   6  -3   9 7483.29 1007.07  -2
  -8   3  -7 7483.29 1007.07   1
   8  -3   8 838.999 663.967   1
  -8   3  -9 21778.9 1543.87   1
  -8   3 -10 9404.92 1567.28   1
   8  -2  -8 7488.28 979.637   1
   7   2  -8 10161.9 1137.98  -2
   8  -2  -7 10161.9 1137.98   1
   6   2  -8 4966.81 1035.98  -2
   8  -2  -6 4966.81 1035.98   1
  -5  -2   8 792.251 668.474  -2
  -8   2   5 792.251 668.474   1
   4   2  -8 11003.0 944.147  -2
   8  -2  -4 11003.0 944.147   1
   8  -2  -3 28965.2 1478.72   1
   8  -2  -2 2970.77 612.530   1
   8  -2  -1 8123.75 689.071   1
   8  -2   0 27412.3 1125.52   1
   8  -2   1 5244.18 598.479   1
   8  -2   2 4485.62 547.222   1
  -2   2  -9 40210.1 1452.97  -2
   8  -2   3 40210.1 1452.97   1
  -3   2  -9 34668.5 1695.39  -2
   8  -2   4 34668.5 1695.39   1
  -4   2  -9 2347.62 695.785  -2
   8  -2   5 2347.62 695.785   1
   8  -2   6 17434.2 2187.05   1
   5  -2   9 32235.3 1566.24  -2
  -8   2  -6 32235.3 1566.24   1
  -8   2  -7 18900.6 1084.94   1
  -8   2  -8 18630.1 1107.32   1
   8  -2   9 9750.53 1058.78   1
  -8   2 -10 38526.7 2454.98   1
   8  -2  11 15188.2 1713.25   1
   8   1  -8 1009.31 1021.81  -2
   8  -1  -8 1009.31 1021.81   1
  -7  -1   8 35326.3 2258.72  -2
  -8   1   7 35326.3 2258.72   1
   6   1  -8 36983.0 1974.74  -2
   8  -1  -6 36983.0 1974.74   1
   8  -1  -5 2768.66 625.863   1
  -5  -1   8 8354.94 2006.13  -2
  -8   1   5 8354.94 2006.13   1
  -8   1   4 9585.77 835.707   1
   8  -1  -3 43517.5 1522.20   1
   8  -1  -2 22956.8 1230.92   1
   8  -1  -1-3.84670 453.586   1
   8  -1   0 87449.5 1838.42   1
  -8   1  -1 68556.8 2356.32   1
   0   1  -9 81971.4 3888.41  -2
   8  -1   1 81971.4 3888.41   1
  -1   1  -9 14173.3 1104.54  -2
   8  -1   2 14173.3 1104.54   1
  -2   1  -9 42297.7 1904.10  -2
   8  -1   3 42297.7 1904.10   1
  -3   1  -9 97765.3 2953.48  -2
   8  -1   4 97765.3 2953.48   1
   8  -1   5 12860.2 1006.39   1
   8  -1   6 15054.4 947.720   1
   8  -1   7 23258.7 1158.70   1
   8  -1   8 6695.28 644.030   1
   8  -1   9 2229.20 632.221   1
   8  -1  10 10450.6 983.661   1
   8  -1  11 15170.2 1198.95   1
 -10   1 -10 4550.08 2089.01  -2
   8  -1  12 4550.08 2089.01   1
   8   0  -8 922.419 1124.33  -2
   8   0  -8 922.419 1124.33   1
   7   0  -8 31924.9 2119.14  -2
   8   0  -7 31924.9 2119.14   1
   8   0  -6 42834.4 2091.29   1
   8   0  -5 15881.5 1091.75   1
   8   0  -4 7235.10 746.871   1
   8   0  -3 61119.1 1762.73   1
   8   0  -2 31041.8 1235.14   1
   8   0  -1 1379.55 452.475   1
   8   0   0 20673.8 1233.52   1
   1   0  -9 23899.3 2217.78  -2
   8   0   0 23899.3 2217.78   1
   0   0  -9 48788.7 1780.27  -2
   8   0   1 48788.7 1780.27   1
  -1   0  -9 22669.7 1060.20  -2
   8   0   2 22669.7 1060.20   1
  -2   0  -9 7316.92 745.214  -2
   8   0   3 7316.92 745.214   1
   8   0   4 11414.7 781.513   1
   8   0   5 31341.9 1468.49   1
   8   0   6 4898.11 725.052   1
  -8   0  -7 7774.56 752.459   1
  -8   0  -8 3085.16 576.858   1
  -8   0  -9 2775.33 504.253   1
   8   0  10 617.149 608.730   1
  -9   0 -10 4048.62 895.995  -2
   8   0  11 4048.62 895.995   1
 -10   0 -10 14357.5 1527.92  -2
   8   0  12 14357.5 1527.92   1
   8  -1  -8 2854.57 1178.39  -2
   8   1  -8 2854.57 1178.39   1
   8   1  -7 7907.60 1121.91   1
   8   1  -6 26621.3 1700.95   1
   8   1  -5 17623.7 1382.33   1
   8   1  -4-322.411 657.011   1
   8   1  -3 22037.5 1088.64   1
   8   1  -2 42916.4 1730.92   1
  -8  -1   1 15131.9 1722.23   1
   2  -1  -9 17659.8 1999.17  -2
   8   1  -1 17659.8 1999.17   1
  -1   1   9 7201.29 1110.93  -2
  -8  -1   0 7201.29 1110.93   1
   0  -1  -9 27537.0 1453.85  -2
   8   1   1 27537.0 1453.85   1
   1   1   9 24322.5 1073.46  -2
  -8  -1  -2 24322.5 1073.46   1
  -8  -1  -3 4961.50 573.261   1
   8   1   4 6574.64 603.864   1
  -8  -1  -5 22464.5 1222.91   1
  -8  -1  -6 45519.4 1755.13   1
  -8  -1  -7 5794.63 740.747   1
  -8  -1  -8 2898.49 546.480   1
  -8  -1  -9 24190.3 1434.87   1
  -7  -1 -10 36639.6 3200.47  -2
   8   1   9 36639.6 3200.47   1
  -8  -1 -10 20017.2 1746.02  -2
   8   1  10 20017.2 1746.02   1
  -9  -1 -10 88.4427 831.163  -2
   8   1  11 88.4427 831.163   1
 -10  -1 -10 26447.0 1707.93  -2
   8   1  12 26447.0 1707.93   1
 -11  -1 -10 27988.3 3610.97  -2
   8   1  13 27988.3 3610.97   1
  -8  -2   8 11515.4 2185.90   1
   8   2  -7 840.749 820.048   1
   8   2  -6 26500.5 1688.30   1
   8   2  -5 29381.9 1687.21   1
   8   2  -4 19019.3 1623.30   1
   8   2  -3 274.005 592.684   1
  -8  -2   2 43538.6 2810.67   1
   3  -2  -9 49380.1 2347.87  -2
   8   2  -2 49380.1 2347.87   1
   2  -2  -9 52351.3 1942.10  -2
   8   2  -1 52351.3 1942.10   1
  -1   2   9 35895.7 2451.58  -2
  -8  -2   0 35895.7 2451.58   1
   0  -2  -9 28838.8 1098.95  -2
   8   2   1 28838.8 1098.95   1
   8   2   2 87982.3 1868.14   1
   8   2   3 61676.8 1591.39   1
   8   2   4 2964.45 469.475   1
   8   2   5 22959.9 1029.48   1
   8   2   6 62470.4 2033.26   1
   8   2   7 38976.8 1670.86   1
  -8  -2  -8 5076.49 871.488   1
  -6  -2 -10 19624.8 2290.69  -2
   8   2   8 19624.8 2290.69   1
  -7  -2 -10 104159. 2967.92  -2
   8   2   9 104159. 2967.92   1
  -8  -2 -10 47788.6 2373.75  -2
   8   2  10 47788.6 2373.75   1
  -9  -2 -10 5957.65 1162.01  -2
   8   2  11 5957.65 1162.01   1
   8   2  12 10170.5 1479.22   1
 -10  -2 -10 17692.0 2869.58  -2
   8   2  12 17692.0 2869.58   1
   8   2  13 31234.2 3623.51   1
   8   3  -7 17113.2 1484.21   1
   8   3  -6 2052.58 810.636   1
   8   3  -5 55783.8 2342.78   1
   8   3  -4 70640.6 3081.00   1
  -4   3   9 16679.4 1250.68  -2
  -8  -3   3 16679.4 1250.68   1
   3  -3  -9 38102.8 2164.64  -2
   8   3  -2 38102.8 2164.64   1
  -2   3   9 105253. 2502.17  -2
  -8  -3   1 105253. 2502.17   1
   1  -3  -9 92380.3 1938.82  -2
   8   3   0 92380.3 1938.82   1
   8   3   1 210.777 363.751   1
   8   3   2 85246.9 1446.94   1
   8   3   3 117389. 1673.50   1
  -8  -3  -4 6768.87 530.691   1
   8   3   5 20616.8 962.545   1
   8   3   6 93945.9 2490.37   1
  -8  -3  -7 54246.8 3283.93   1
  -5  -3 -10 55999.9 2591.04  -2
   8   3   7 55999.9 2591.04   1
   6   3  10 7502.93 1106.52  -2
  -8  -3  -8 7502.93 1106.52   1
  -7  -3 -10 34653.0 2208.08  -2
   8   3   9 34653.0 2208.08   1
   8   3  10 35940.1 3315.19   1
   8   3  10 50552.1 2147.34  -2
  -8  -3 -10 50552.1 2147.34   1
   8   3  11 6596.79 1000.83   1
   8   3  12-285.151 851.295   1
  -8  -4   7 36695.7 3549.28   1
   8   4  -6 2154.03 1052.31   1
   8   4  -5 32167.1 1804.33   1
   5  -4  -9 69547.0 2575.90  -2
   8   4  -4 69547.0 2575.90   1
   4  -4  -9 35511.9 2900.81  -2
   8   4  -3 35511.9 2900.81   1
  -3   4   9 14211.0 1015.94  -2
  -8  -4   2 14211.0 1015.94   1
   8   4  -1 76850.6 2277.80   1
   2  -4  -9 87176.3 2299.35  -2
   8   4  -1 87176.3 2299.35   1
   8   4   0 46969.5 1223.39   1
   8   4   1 5185.13 515.454   1
   8   4   2 31155.1 927.821   1
   8   4   3 86287.0 1493.50   1
   8   4   4 36975.4 1289.72   1
   8   4   5-73.7720 612.515   1
  -3  -4 -10 8991.20 1125.46  -2
   8   4   5 8991.20 1125.46   1
  -4  -4 -10 48528.4 1641.66  -2
   8   4   6 48528.4 1641.66   1
   5   4  10 38317.8 1898.59  -2
  -8  -4  -7 38317.8 1898.59   1
  -6  -4 -10 23523.4 1451.89  -2
   8   4   8 23523.4 1451.89   1
   8   4   9 538.002 1114.17   1
  -7  -4 -10 2119.59 1089.20  -2
   8   4   9 2119.59 1089.20   1
   8   4  10 32178.4 1724.56   1
   8   4  11 12242.0 1257.51   1
   8   4  12 12397.1 1328.56   1
   8   5  -6 5677.26 1772.13   1
   6  -5  -9 4720.07 1412.47  -2
   8   5  -5 4720.07 1412.47   1
   5  -5  -9 24062.9 1839.54  -2
   8   5  -4 24062.9 1839.54   1
   4  -5  -9 17347.7 1477.05  -2
   8   5  -3 17347.7 1477.05   1
  -8  -5   2 208.339 462.418   1
   8   5  -1 13462.9 732.084   1
   8   5   0 19590.1 843.021   1
   8   5   1 30151.5 1075.63   1
   8   5   2 391.745 390.018   1
  -8  -5  -3 24940.3 1094.41   1
   8   5   4 56385.9 1795.94   1
  -2  -5 -10 59618.0 2326.32  -2
   8   5   4 59618.0 2326.32   1
   3   5  10 34133.6 1469.65  -2
  -8  -5  -5 34133.6 1469.65   1
   4   5  10 9751.13 1053.23  -2
  -8  -5  -6 9751.13 1053.23   1
  -5  -5 -10 44514.9 1789.33  -2
   8   5   7 44514.9 1789.33   1
   8   5   8 52911.6 2509.67   1
  -6  -5 -10 63713.0 2608.18  -2
   8   5   8 63713.0 2608.18   1
   8   5   9 15446.9 1035.09   1
   8   5  10 5394.55 812.756   1
   8   5  11 59609.9 2105.88   1
   8   5  12 25539.5 1800.91   1
   6  -6  -9 11649.5 2052.81  -2
   8   6  -5 11649.5 2052.81   1
   5  -6  -9 12619.4 1395.80  -2
   8   6  -4 12619.4 1395.80   1
   8   6  -3 20512.6 1264.76   1
   8   6  -2 11520.4 979.603   1
   8   6  -1 2535.48 520.965   1
   8   6   0 29657.3 1177.45   1
   8   6   1 41505.9 1299.58   1
   8   6   2 32925.1 1325.77   1
  -8  -6  -3 1749.55 1056.77   1
  -1  -6 -10 28661.0 1459.26  -2
   8   6   3 28661.0 1459.26   1
  -2  -6 -10 76750.2 2398.96  -2
   8   6   4 76750.2 2398.96   1
  -3  -6 -10 87793.1 3354.29  -2
   8   6   5 87793.1 3354.29   1
   4   6  10 17760.4 1405.27  -2
  -8  -6  -6 17760.4 1405.27   1
  -8  -6  -7 37194.9 2138.08   1
  -5  -6 -10 58711.5 2547.94  -2
   8   6   7 58711.5 2547.94   1
   8   6   8 83955.3 2246.52   1
   8   6   9 46257.9 1758.16   1
  -8  -6 -10 857.662 601.708   1
   8   6  11 74964.6 2758.01   1
   8   6  12 34995.4 2080.89   1
   6  -7  -9 13245.5 2379.19  -2
   8   7  -5 13245.5 2379.19   1
   8   7  -4 764.656 725.261   1
   8   7  -3 17403.2 1247.93   1
   8   7  -2 43592.2 1767.45   1
   8   7  -1 11477.2 829.267   1
   8   7   0 8964.33 825.144   1
  -8  -7  -1 39932.0 1790.84   1
   0   7  10 57929.3 2112.62  -2
  -8  -7  -2 57929.3 2112.62   1
   1   7  10 20814.7 1460.84  -2
  -8  -7  -3 20814.7 1460.84   1
  -2  -7 -10 53907.6 2311.75  -2
   8   7   4 53907.6 2311.75   1
   3   7  10 53070.2 1755.87  -2
  -8  -7  -5 53070.2 1755.87   1
   8   7   6 30681.5 1965.28   1
  -4  -7 -10 32822.9 2907.26  -2
   8   7   6 32822.9 2907.26   1
  -8  -7  -7 6551.97 909.163   1
  -8  -7  -8 34142.4 1768.09   1
   8   7   9 31222.9 1714.60   1
  -8  -7 -10 2932.08 745.933   1
  -8  -7 -11 12878.5 1323.90   1
  -8  -7 -12 39685.5 3402.14   1
   9   7  11 59198.1 4507.87  -2
  -8  -7 -12 59198.1 4507.87   1
   8   8  -4 2379.63 1650.17   1
   8   8  -3 2056.23 893.366   1
   8   8  -2 25685.3 1708.13   1
   8   8  -1 10318.3 1402.05   1
  -8  -8   0 359.926 710.183   1
  -1   8  10 24954.6 1650.12  -2
  -8  -8  -1 24954.6 1650.12   1
   0   8  10 24738.3 2020.54  -2
  -8  -8  -2 24738.3 2020.54   1
   1   8  10 11806.1 1461.57  -2
  -8  -8  -3 11806.1 1461.57   1
   2   8  10 15874.5 1307.45  -2
  -8  -8  -4 15874.5 1307.45   1
  -8  -8  -5 14570.9 1179.26   1
  -3  -8 -10 14111.9 2114.23  -2
   8   8   5 14111.9 2114.23   1
  -8  -8  -6 8902.81 1003.56   1
  -8  -8  -7 989.130 681.862   1
  -8  -8  -8 4024.25 820.729   1
   8   8   9 7751.02 1022.15   1
  -8  -8 -10 6358.94 1164.98   1
  -7  -8 -11 14353.7 2236.45  -2
   8   8  10 14353.7 2236.45   1
   8   8  11 7474.63 1341.22  -2
  -8  -8 -11 7474.63 1341.22   1
   3  -9 -10 7328.46 2294.18  -2
   8   9  -1 7328.46 2294.18   1
  -8  -9   0 681.270 1148.43   1
   2  -9 -10 2781.06 1456.62  -2
   8   9   0 2781.06 1456.62   1
  -1   9  10 3298.88 1107.82  -2
  -8  -9  -1 3298.88 1107.82   1
   0   9  10 5540.03 1200.51  -2
  -8  -9  -2 5540.03 1200.51   1
  -8  -9  -3 8311.11 1742.71   1
  -1  -9 -10 4667.52 1431.21  -2
   8   9   3 4667.52 1431.21   1
  -8  -9  -4 3200.42 765.330   1
   8   9   5 1746.26 792.686   1
  -8  -9  -6 3148.64 1107.86   1
   8   9   7 22076.0 1546.29   1
   8   9   8 627.341 799.174   1
  -8  -9  -9 7041.48 1351.72   1
  -6  -9 -11 9390.79 2117.00  -2
   8   9   9 9390.79 2117.00   1
   7   9  11 17683.2 1680.12  -2
  -8  -9 -10 17683.2 1680.12   1
   8   9  11 10198.4 2836.15  -2
  -8  -9 -11 10198.4 2836.15   1
  -1  10  10 11647.9 1528.67  -2
  -8 -10  -1 11647.9 1528.67   1
  -8 -10  -2 1475.24 1449.92   1
   0 -10 -10 6245.78 1549.30  -2
   8  10   2 6245.78 1549.30   1
  -8 -10  -3 8028.82 1078.45   1
  -8 -10  -4 14204.3 1343.50   1
  -8 -10  -5 3226.81 849.253   1
  -8 -10  -6 9835.65 1497.28   1
   8  10   7 40700.2 2666.57   1
  -5 -10 -11 5262.83 2314.39  -2
   8  10   8 5262.83 2314.39   1
  -6 -10 -11 8122.69 2402.56  -2
   8  10   9 8122.69 2402.56   1
  -8 -11  -4 19004.4 2713.01   1
  -8 -11  -5 5568.69 1665.98   1
  -9   7   4 20544.7 2866.14   1
   9  -7  -3 3815.57 1203.19   1
   2   7  -9 12853.9 2627.29  -2
   9  -7  -2 12853.9 2627.29   1
  -1  -7   9 24631.7 2778.25  -2
  -9   7   1 24631.7 2778.25   1
   0   7  -9 16192.6 2422.60  -2
   9  -7   0 16192.6 2422.60   1
  -1   7  -9 6876.37 1314.51  -2
   9  -7   1 6876.37 1314.51   1
   9  -7   2 8495.67 1160.99   1
  -2   7  -9 16628.4 2569.47  -2
   9  -7   2 16628.4 2569.47   1
   9  -7   3 16036.5 1303.59   1
   9  -7   4 10732.7 2132.61   1
   9  -6  -5 7020.40 1075.31   1
   9  -6  -4 11871.1 1133.68   1
   3   6  -9 22691.2 1377.23  -2
   9  -6  -3 22691.2 1377.23   1
  -2  -6   9 13389.6 1253.62  -2
  -9   6   2 13389.6 1253.62   1
  -1  -6   9 23360.4 2018.30  -2
  -9   6   1 23360.4 2018.30   1
   0   6  -9 67851.1 3140.49  -2
   9  -6   0 67851.1 3140.49   1
  -9   6  -1 26236.4 1688.09   1
   9  -6   2 3787.40 776.746   1
  -9   6  -3 30206.5 1407.17   1
  -9   6  -4 49417.4 2296.87   1
   9  -6   5 10670.5 1267.27   1
  -9   6  -6 6209.26 1901.55   1
   9  -5  -6 8264.56 1893.14   1
  -9   5   5 388.989 1081.31   1
   5   5  -9 4423.32 2073.58  -2
   9  -5  -5 4423.32 2073.58   1
   4   5  -9 35291.2 1889.68  -2
   9  -5  -4 35291.2 1889.68   1
   3   5  -9 44542.4 2079.52  -2
   9  -5  -3 44542.4 2079.52   1
  -2  -5   9 38127.9 2317.12  -2
  -9   5   2 38127.9 2317.12   1
  -9   5   1 3981.75 1486.32   1
   1   5  -9 19973.0 1826.05  -2
   9  -5  -1 19973.0 1826.05   1
   9  -5   0 44058.9 1779.96   1
  -9   5  -1 76310.8 2610.50   1
   9  -5   2 5222.74 784.140   1
  -9   5  -3 41011.1 1997.20   1
   9  -5   4 76838.4 2690.07   1
   9  -5   5 19409.0 1838.73   1
  -9   5  -6 1701.94 1306.92   1
  -5   5 -10 5448.25 2196.80  -2
   9  -5   6 5448.25 2196.80   1
   6  -5  10 62017.7 5862.92  -2
  -9   5  -7 62017.7 5862.92   1
   9  -4  -7 21174.8 2918.10   1
   9  -4  -6 35834.0 2601.09   1
   6   4  -9 50712.4 4003.45  -2
   9  -4  -6 50712.4 4003.45   1
   5   4  -9 18736.1 1597.30  -2
   9  -4  -5 18736.1 1597.30   1
   4   4  -9 26446.3 1948.19  -2
   9  -4  -4 26446.3 1948.19   1
   3   4  -9 49322.9 2074.30  -2
   9  -4  -3 49322.9 2074.30   1
   9  -4  -2 24937.7 1574.71   1
  -9   4   1 1715.70 654.057   1
   9  -4   0 40391.0 1608.74   1
   9  -4   1 36067.0 1534.58   1
  -9   4  -2 19925.8 1689.70   1
   9  -4   3 2943.06 736.628   1
  -9   4  -4 28360.4 1655.03   1
  -4   4 -10 28562.6 1876.72  -2
   9  -4   5 28562.6 1876.72   1
   5  -4  10 3661.12 1202.27  -2
  -9   4  -6 3661.12 1202.27   1
   6  -4  10 11350.6 1616.57  -2
  -9   4  -7 11350.6 1616.57   1
   9  -4   8 34905.9 3568.93   1
   9  -3  -7 7583.24 2040.53   1
   7   3  -9 10499.3 2373.02  -2
   9  -3  -7 10499.3 2373.02   1
   6   3  -9 26783.4 1969.90  -2
   9  -3  -6 26783.4 1969.90   1
   5   3  -9 17863.5 1626.75  -2
   9  -3  -5 17863.5 1626.75   1
   4   3  -9 4010.11 883.728  -2
   9  -3  -4 4010.11 883.728   1
   9  -3  -3 26230.2 1562.04   1
   9  -3  -2 23858.0 1462.12   1
   9  -3  -1 2438.86 643.414   1
   9  -3   0 14575.3 957.107   1
   9  -3   1 8280.52 949.242   1
   9  -3   2 12740.0 1143.70   1
  -1   3 -10 13581.5 2166.97  -2
   9  -3   2 13581.5 2166.97   1
  -9   3  -3-53.2979 1116.48   1
  -2   3 -10 3304.89 1167.77  -2
   9  -3   3 3304.89 1167.77   1
  -3   3 -10 13252.8 1435.71  -2
   9  -3   4 13252.8 1435.71   1
  -4   3 -10 21303.3 1874.91  -2
   9  -3   5 21303.3 1874.91   1
  -5   3 -10 7114.13 1096.36  -2
   9  -3   6 7114.13 1096.36   1
   9  -3   7 7318.36 811.039   1
   9  -3   8 20674.9 1496.06   1
  -9   3  -9 41151.3 2641.46   1
  -9   3 -10 8962.28 1955.84   1
   7   2  -9 2635.30 1356.82  -2
   9  -2  -7 2635.30 1356.82   1
   6   2  -9 9181.76 1235.76  -2
   9  -2  -6 9181.76 1235.76   1
   9  -2  -5 7842.03 1958.21   1
   5   2  -9 14484.4 1147.76  -2
   9  -2  -5 14484.4 1147.76   1
   9  -2  -4 3992.62 660.681   1
   9  -2  -3 1882.72 648.722   1
   9  -2  -2 7232.38 886.522   1
   9  -2  -1 24843.3 1801.33   1
   9  -2   0 4974.74 751.949   1
   9  -2   1 19313.5 1239.89   1
  -1   2 -10 25947.2 1323.87  -2
   9  -2   2 25947.2 1323.87   1
  -2   2 -10 34332.3 1873.77  -2
   9  -2   3 34332.3 1873.77   1
  -3   2 -10 15416.7 1253.46  -2
   9  -2   4 15416.7 1253.46   1
   9  -2   5 45710.2 3373.66   1
   4  -2  10 52763.2 2015.66  -2
  -9   2  -5 52763.2 2015.66   1
   9  -2   6 43048.1 1626.71   1
   9  -2   7 6198.97 720.429   1
  -9   2  -8 4792.35 709.728   1
   9  -2   9 56651.5 2392.53   1
  -9   2 -10 39076.0 2582.78   1
   7   1  -9 13857.6 1701.34  -2
   9  -1  -7 13857.6 1701.34   1
   9  -1  -6 521.382 800.936   1
  -6  -1   9 4764.71 2244.61  -2
  -9   1   6 4764.71 2244.61   1
   9  -1  -5 12280.2 1039.71   1
   9  -1  -4 24595.4 1563.11   1
  -9   1   3 8006.85 1179.66   1
  -9   1   2 4907.53 964.802   1
   9  -1  -1 29097.0 1859.19   1
  -9   1   0 22844.5 2346.02   1
   1   1 -10 47869.1 3367.45  -2
   9  -1   0 47869.1 3367.45   1
   0   1 -10 16560.7 1218.65  -2
   9  -1   1 16560.7 1218.65   1
  -1   1 -10 35938.1 1875.76  -2
   9  -1   2 35938.1 1875.76   1
  -2   1 -10 84350.7 2567.42  -2
   9  -1   3 84350.7 2567.42   1
   9  -1   4 7257.59 1495.37   1
  -3   1 -10 14250.7 1430.37  -2
   9  -1   4 14250.7 1430.37   1
   9  -1   5 28635.7 1514.68   1
  -9   1  -6 74565.2 2082.38   1
  -9   1  -7 15091.8 1043.29   1
   9  -1   8 1000.91 582.824   1
   9  -1   9 30537.1 1809.44   1
   9  -1  10 37912.2 2053.28   1
  -9   1 -11 3095.20 1452.46  -2
   9  -1  11 3095.20 1452.46   1
  -9   0   7 13402.9 2469.81   1
   9   0  -6 12863.1 1310.42   1
   9   0  -5 373.022 821.425   1
   9   0  -4 18474.3 1331.36   1
   9   0  -3 14376.6 1210.07   1
  -9   0   2 897.083 726.545   1
   9   0  -1 16351.1 1437.13   1
   1   0 -10 29175.9 2018.49  -2
   9   0   0 29175.9 2018.49   1
   0   0 -10 12704.2 994.611  -2
   9   0   1 12704.2 994.611   1
  -1   0 -10 19492.0 1151.03  -2
   9   0   2 19492.0 1151.03   1
   9   0   3 6792.78 955.082   1
  -2   0 -10 14140.7 1349.98  -2
   9   0   3 14140.7 1349.98   1
   9   0   4 14942.6 954.389   1
   9   0   5 365.577 560.460   1
  -9   0  -6 18639.7 1259.16   1
  -9   0  -7 26567.9 1307.87   1
   9   0   8 1436.21 600.713   1
  -9   0  -9 146.818 602.861   1
  -8   0 -11 6710.02 1199.76  -2
   9   0  10 6710.02 1199.76   1
  -9   0 -11 8964.39 1563.88  -2
   9   0  11 8964.39 1563.88   1
 -10   0 -11 8745.35 2768.34  -2
   9   0  12 8745.35 2768.34   1
  -9  -1   7 9860.80 2307.55   1
   9   1  -6 1697.85 824.139   1
   9   1  -5 2163.25 842.183   1
   9   1  -4 333.703 682.178   1
   9   1  -3 3723.13 731.961   1
  -9  -1   2 6102.96 1409.43   1
   3  -1 -10 10331.6 1920.24  -2
   9   1  -2 10331.6 1920.24   1
  -2   1  10 943.878 999.212  -2
  -9  -1   1 943.878 999.212   1
   1  -1 -10 1450.27 881.506  -2
   9   1   0 1450.27 881.506   1
   0  -1 -10 7693.92 986.270  -2
   9   1   1 7693.92 986.270   1
   9   1   2 29.3403 442.028   1
   9   1   3 560.735 458.324   1
   9   1   4 15428.8 930.604   1
   9   1   5 10473.6 943.890   1
  -9  -1  -6 4236.67 704.040   1
   9   1   7 2878.10 691.304   1
  -9  -1  -8 15527.5 1507.16   1
  -6  -1 -11 20600.6 2607.37  -2
   9   1   8 20600.6 2607.37   1
   7   1  11 7437.91 997.820  -2
  -9  -1  -9 7437.91 997.820   1
  -8  -1 -11 662.740 830.906  -2
   9   1  10 662.740 830.906   1
  -9  -1 -11 28667.7 2137.84  -2
   9   1  11 28667.7 2137.84   1
 -10  -1 -11 34619.9 3772.03  -2
   9   1  12 34619.9 3772.03   1
  -9  -2   7 1834.63 1552.07   1
   9   2  -6 2781.95 897.027   1
   9   2  -5 8635.94 1104.12   1
   9   2  -4 3485.95 955.702   1
  -9  -2   3 2921.36 1105.61   1
   4  -2 -10 1055.18 1087.36  -2
   9   2  -3 1055.18 1087.36   1
  -3   2  10 13258.7 1416.42  -2
  -9  -2   2 13258.7 1416.42   1
   2  -2 -10 20457.2 2136.55  -2
   9   2  -1 20457.2 2136.55   1
   1  -2 -10 6582.57 925.005  -2
   9   2   0 6582.57 925.005   1
   9   2   1 16659.6 1142.71   1
   9   2   2 36715.2 1320.91   1
   9   2   3 4628.04 562.584   1
   9   2   4 2549.15 496.822   1
   9   2   5 32631.4 1293.25   1
  -9  -2  -6 16740.6 1178.17   1
  -9  -2  -7 1340.98 975.573   1
  -5  -2 -11 2722.12 1107.45  -2
   9   2   7 2722.12 1107.45   1
   6   2  11 54407.9 2603.32  -2
  -9  -2  -8 54407.9 2603.32   1
  -7  -2 -11 17609.3 1552.30  -2
   9   2   9 17609.3 1552.30   1
  -8  -2 -11 2279.43 827.863  -2
   9   2  10 2279.43 827.863   1
   9   2  11 13174.3 1560.16   1
  -9  -2 -11 16063.8 2704.97  -2
   9   2  11 16063.8 2704.97   1
   9   2  12 18975.2 2850.05   1
   9   3  -6 16862.8 1468.70   1
   9   3  -5 30964.0 1834.70   1
   5  -3 -10 17558.6 1823.50  -2
   9   3  -4 17558.6 1823.50   1
   4  -3 -10 944.740 1186.11  -2
   9   3  -3 944.740 1186.11   1
  -3   3  10 31881.8 2070.01  -2
  -9  -3   2 31881.8 2070.01   1
  -2   3  10 69477.3 2215.47  -2
  -9  -3   1 69477.3 2215.47   1
   9   3   0 1769.04 626.298   1
   9   3   1 17993.0 1174.55   1
   9   3   2 59162.0 2005.19   1
   9   3   3 12079.4 802.663   1
   9   3   4 390.750 486.402   1
   9   3   5 34046.7 1588.61   1
  -9  -3  -6 11797.5 1737.84   1
  -4  -3 -11 13414.6 1454.75  -2
   9   3   6 13414.6 1454.75   1
   5   3  11 2732.90 921.064  -2
  -9  -3  -7 2732.90 921.064   1
  -6  -3 -11 16539.8 1662.77  -2
   9   3   8 16539.8 1662.77   1
   9   3   9 26383.2 2799.85   1
   7   3  11 39191.8 2408.71  -2
  -9  -3  -9 39191.8 2408.71   1
   9   3  10-355.643 696.028   1
  -8  -3 -11 999.900 1818.55  -2
   9   3  10 999.900 1818.55   1
   9   3  11 1727.95 756.480   1
   9   3  12 4300.54 1942.17   1
   6  -4 -10 43628.7 2978.91  -2
   9   4  -5 43628.7 2978.91   1
   5  -4 -10 34350.2 2540.56  -2
   9   4  -4 34350.2 2540.56   1
   4  -4 -10 734.481 1223.05  -2
   9   4  -3 734.481 1223.05   1
   9   4  -2 22931.5 1433.52   1
   3  -4 -10 26080.1 1812.05  -2
   9   4  -2 26080.1 1812.05   1
   9   4  -1 35876.6 1300.29   1
   9   4   0 34564.1 1222.20   1
   9   4   1 1187.77 495.975   1
   9   4   2 19289.1 1009.81   1
   9   4   3 21103.1 1216.00   1
  -9  -4  -4 1288.47 532.591   1
  -3  -4 -11 6573.62 894.180  -2
   9   4   5 6573.62 894.180   1
  -4  -4 -11 11000.1 1352.41  -2
   9   4   6 11000.1 1352.41   1
   5   4  11 8536.81 1169.38  -2
  -9  -4  -7 8536.81 1169.38   1
   9   4   8 5778.05 1040.05   1
  -6  -4 -11 4936.10 1756.98  -2
   9   4   8 4936.10 1756.98   1
   9   4   9 3709.54 735.915   1
   9   4  10 1892.43 771.200   1
  -9  -4 -11 5945.68 822.004   1
   6  -5 -10 15699.1 1861.77  -2
   9   5  -5 15699.1 1861.77   1
   5  -5 -10 37634.4 2730.71  -2
   9   5  -4 37634.4 2730.71   1
   9   5  -3 16353.1 1377.24   1
   9   5  -2 306.408 631.865   1
  -9  -5   1 5516.52 650.058   1
   9   5   0 36569.6 1303.56   1
   9   5   1 9400.08 729.380   1
  -9  -5  -2-227.770 496.191   1
  -9  -5  -3 21972.0 1578.89   1
  -1  -5 -11 27681.3 1756.67  -2
   9   5   3 27681.3 1756.67   1
  -2  -5 -11 40893.5 1647.68  -2
   9   5   4 40893.5 1647.68   1
   3   5  11 16049.0 1211.68  -2
  -9  -5  -5 16049.0 1211.68   1
   4   5  11 19432.8 1493.99  -2
  -9  -5  -6 19432.8 1493.99   1
   9   5   7 23253.7 1739.92   1
  -5  -5 -11 28992.3 2868.77  -2
   9   5   7 28992.3 2868.77   1
   9   5   8 19078.8 1384.56   1
  -9  -5  -9 1458.82 672.016   1
   9   5  10 31856.0 1810.64   1
   9   5  11 19682.9 1541.14   1
   9   6  -4 14202.7 1365.93   1
   9   6  -3 43193.3 1874.37   1
   9   6  -2 12405.2 1087.48   1
   9   6  -1 5103.85 636.261   1
   9   6   0 32035.3 1441.11   1
   9   6   1 59305.3 2177.81   1
  -9  -6  -2 2288.60 1033.36   1
   0  -6 -11 11177.7 1146.43  -2
   9   6   2 11177.7 1146.43   1
   1   6  11 37058.5 1819.74  -2
  -9  -6  -3 37058.5 1819.74   1
  -2  -6 -11 61674.2 2935.15  -2
   9   6   4 61674.2 2935.15   1
   3   6  11 32549.0 1906.52  -2
  -9  -6  -5 32549.0 1906.52   1
  -9  -6  -6 2202.12 1223.58   1
  -4  -6 -11 26891.9 1903.16  -2
   9   6   6 26891.9 1903.16   1
   9   6   7 61760.7 1958.87   1
   9   6   8 58447.8 1967.74   1
   9   6   9 11628.6 1161.09   1
   9   6  10 33100.6 1888.76   1
   9   6  11 27796.8 1785.88   1
   9   7  -4 5249.28 1788.77   1
   9   7  -3 39475.9 2130.86   1
   9   7  -2 34977.9 1692.79   1
   9   7  -1 797.787 813.665   1
   9   7   0 28933.5 1661.07   1
  -9  -7  -1 94059.4 4811.39   1
   1  -7 -11 101839. 3688.11  -2
   9   7   1 101839. 3688.11   1
   0   7  11 24904.7 1974.17  -2
  -9  -7  -2 24904.7 1974.17   1
   1   7  11 31387.9 1905.98  -2
  -9  -7  -3 31387.9 1905.98   1
  -2  -7 -11 78171.1 2661.80  -2
   9   7   4 78171.1 2661.80   1
   9   7   5 47945.9 2037.15   1
   9   7   6 484.749 674.580   1
  -9  -7  -7 22925.0 1524.11   1
   9   7   8 39554.5 1937.71   1
   9   7   9 20388.8 1482.37   1
  -9  -7 -10 2199.78 779.136   1
  -9  -7 -11 33628.5 2354.53   1
   9   8  -2 24754.9 3095.75   1
   9   8  -1 774.709 1056.01   1
   2  -8 -11 16692.7 1965.57  -2
   9   8   0 16692.7 1965.57   1
  -1   8  11 23857.7 2051.83  -2
  -9  -8  -1 23857.7 2051.83   1
   0   8  11 32147.6 2325.29  -2
  -9  -8  -2 32147.6 2325.29   1
   1   8  11 12918.6 1344.19  -2
  -9  -8  -3 12918.6 1344.19   1
  -9  -8  -4 22621.1 1489.61   1
   9   8   5 42459.7 1990.77   1
  -9  -8  -6 11506.4 1162.92   1
   9   8   7 205.804 742.169   1
   9   8   8 10717.1 1137.36   1
  -9  -8  -9 16812.4 1781.63   1
  -6  -8 -12 20132.9 2607.37  -2
   9   8   9 20132.9 2607.37   1
   7   8  12 20412.6 1761.47  -2
  -9  -8 -10 20412.6 1761.47   1
  -8  -8 -12 338.494 2233.08  -2
   9   8  11 338.494 2233.08   1
   2  -9 -11 7683.71 2653.76  -2
   9   9   0 7683.71 2653.76   1
  -1   9  11 13116.8 1641.59  -2
  -9  -9  -1 13116.8 1641.59   1
  -9  -9  -2 18619.6 2524.96   1
   0  -9 -11 15893.6 1825.62  -2
   9   9   2 15893.6 1825.62   1
  -9  -9  -3 14173.3 1280.61   1
  -9  -9  -4 2377.54 729.389   1
  -9  -9  -5 8717.96 1319.90   1
   9   9   6 45690.0 2692.75   1
  -9  -9  -7 6682.87 1026.56   1
  -9  -9  -8 3597.61 1551.25   1
  -5  -9 -12 14263.2 1729.97  -2
   9   9   8 14263.2 1729.97   1
  -6  -9 -12 45592.6 3345.71  -2
   9   9   9 45592.6 3345.71   1
  -9 -10  -2 17488.6 2477.43   1
  -9 -10  -3 20970.2 1924.25   1
   9  10   4 4725.20 1111.00   1
   9  10   5 8281.94 1984.58   1
   9  10   6 44447.9 3916.95   1
   3   6 -10 11973.2 3124.70  -2
  10  -6  -3 11973.2 3124.70   1
  -2  -6  10 2144.63 1525.71  -2
 -10   6   2 2144.63 1525.71   1
  -1  -6  10 16335.4 2805.16  -2
 -10   6   1 16335.4 2805.16   1
  10  -6   0 18312.5 2816.13   1
  10  -6   1 5992.50 2016.69   1
  10  -6   2 11320.4 1598.54   1
  10  -6   3 16353.3 1847.31   1
   4   5 -10 32335.3 3271.57  -2
  10  -5  -4 32335.3 3271.57   1
  -3  -5  10 35473.0 3054.42  -2
 -10   5   3 35473.0 3054.42   1
 -10   5   2 1376.02 1068.50   1
   2   5 -10 14792.7 2802.56  -2
  10  -5  -2 14792.7 2802.56   1
  10  -5  -1 14473.2 1717.26   1
  10  -5   0 35957.3 2468.95   1
 -10   5  -1 20652.2 1903.70   1
  10  -5   2 9037.33 1185.05   1
 -10   5  -3 42175.7 2182.59   1
 -10   5  -4 23530.7 1687.38   1
  -4   5 -11 16485.5 2021.20  -2
  10  -5   5 16485.5 2021.20   1
   5  -5  11 47574.1 5148.76  -2
 -10   5  -6 47574.1 5148.76   1
  -5  -4  10 891.502 1580.64  -2
 -10   4   5 891.502 1580.64   1
  -4  -4  10 19752.2 2272.92  -2
 -10   4   4 19752.2 2272.92   1
  10  -4  -3 42707.6 2261.93   1
  10  -4  -2 7732.13 1288.62   1
 -10   4   1 6945.13 1251.77   1
  10  -4   0 25682.5 2086.48   1
  10  -4   1 22762.6 1552.49   1
  10  -4   2 2687.92 814.533   1
  10  -4   3 10865.7 1198.27   1
   3  -4  11 27571.5 1961.32  -2
 -10   4  -4 27571.5 1961.32   1
  -4   4 -11 13737.2 1748.97  -2
  10  -4   5 13737.2 1748.97   1
  -5   4 -11 12368.7 1422.67  -2
  10  -4   6 12368.7 1422.67   1
 -10   4  -7 7966.30 1917.24   1
  -5  -3  10 6883.45 2008.79  -2
 -10   3   5 6883.45 2008.79   1
 -10   3   4 4898.23 981.346   1
  10  -3  -3 17143.5 1682.91   1
  10  -3  -2 10823.2 1468.74   1
  10  -3  -1 742.785 981.365   1
 -10   3   0 9335.84 1329.43   1
  10  -3   1 28780.5 1646.17   1
 -10   3  -2 18910.1 2514.41   1
  -1   3 -11 24053.0 1608.43  -2
  10  -3   2 24053.0 1608.43   1
  -2   3 -11 7813.10 1304.14  -2
  10  -3   3 7813.10 1304.14   1
  -3   3 -11 15650.3 1733.73  -2
  10  -3   4 15650.3 1733.73   1
  10  -3   5 16273.0 2351.34   1
   4  -3  11 20339.0 2027.17  -2
 -10   3  -5 20339.0 2027.17   1
 -10   3  -6 32555.3 1845.23   1
  10  -3   7 915.825 795.326   1
  10  -3   8 22919.7 2871.74   1
  10  -2  -5 10859.5 1657.05   1
 -10   2   4 905.618 791.426   1
  10  -2  -3 12567.5 1544.20   1
  10  -2  -2 33119.4 2283.32   1
  10  -2  -1 22093.4 1849.54   1
  10  -2   0 973.312 860.798   1
 -10   2  -1 22285.4 2623.77   1
   0   2 -11 34623.5 3545.64  -2
  10  -2   1 34623.5 3545.64   1
  -1   2 -11 61283.9 2597.96  -2
  10  -2   2 61283.9 2597.96   1
  -2   2 -11 24311.1 1681.16  -2
  10  -2   3 24311.1 1681.16   1
  10  -2   4 12024.5 1855.18   1
  -3   2 -11 24981.3 1981.08  -2
  10  -2   4 24981.3 1981.08   1
  10  -2   5 51340.3 2177.74   1
 -10   2  -6 34488.6 1843.64   1
  10  -2   7 1415.54 688.156   1
 -10   2  -8 15601.2 1176.25   1
  10  -2   9 45115.0 2700.46   1
  10  -1  -5 49515.0 2474.71   1
 -10   1   4 11048.6 1226.96   1
  10  -1  -3 6161.27 1173.79   1
  10  -1  -2 61379.6 2909.77   1
  10  -1  -1 41747.9 2408.98   1
   1   1 -11 17793.4 1863.17  -2
  10  -1   0 17793.4 1863.17   1
   0   1 -11 42314.9 3138.11  -2
  10  -1   1 42314.9 3138.11   1
  -1   1 -11 103788. 2912.03  -2
  10  -1   2 103788. 2912.03   1
  10  -1   3 35747.3 2807.28   1
  -2   1 -11 51823.2 2123.98  -2
  10  -1   3 51823.2 2123.98   1
  10  -1   4 3047.27 715.745   1
 -10   1  -5 56389.6 2221.49   1
 -10   1  -6 44946.6 1749.44   1
  10  -1   7 4107.87 700.008   1
 -10   1  -8 16535.1 1177.43   1
  10  -1   9 34837.2 1973.16   1
  -8   1 -12 22471.7 2219.18  -2
  10  -1  10 22471.7 2219.18   1
  10   0  -5 41206.3 2244.26   1
  10   0  -4 31514.0 1847.16   1
  10   0  -3 350.241 870.161   1
  10   0  -2 36976.2 2262.45   1
   2   0 -11 61646.4 3092.80  -2
  10   0  -1 61646.4 3092.80   1
   1   0 -11 28929.8 2195.09  -2
  10   0   0 28929.8 2195.09   1
   0   0 -11 20781.4 1618.79  -2
  10   0   1 20781.4 1618.79   1
  10   0   2 33160.4 2064.04   1
  -1   0 -11 28697.0 2964.78  -2
  10   0   2 28697.0 2964.78   1
  10   0   3 38442.3 1524.89   1
  10   0   4 1501.27 557.685   1
  10   0   5 17198.5 1287.40   1
 -10   0  -6 35344.5 1813.21   1
 -10   0  -7 20759.4 1245.46   1
 -10   0  -8 706.065 602.678   1
  -7   0 -12 11712.5 1185.39  -2
  10   0   9 11712.5 1185.39   1
  -8   0 -12 28069.5 2522.36  -2
  10   0  10 28069.5 2522.36   1
  10   1  -5 2559.82 913.654   1
  10   1  -4 12617.5 1577.88   1
 -10  -1   3 4610.99 1518.94   1
   4  -1 -11 18140.1 2617.48  -2
  10   1  -3 18140.1 2617.48   1
   3  -1 -11 6976.79 1381.05  -2
  10   1  -2 6976.79 1381.05   1
  -2   1  11 21632.4 2392.18  -2
 -10  -1   1 21632.4 2392.18   1
   1  -1 -11 12087.3 1260.87  -2
  10   1   0 12087.3 1260.87   1
  10   1   1 3012.18 719.546   1
  10   1   2 1545.17 620.136   1
  10   1   3 28249.8 1307.64   1
 -10  -1  -4 15733.8 1019.73   1
  10   1   5 464.077 689.125   1
  10   1   6 13705.5 1202.55   1
 -10  -1  -7 51772.5 2643.80   1
  -5  -1 -12 60605.0 4145.75  -2
  10   1   7 60605.0 4145.75   1
   6   1  12 16134.5 1579.67  -2
 -10  -1  -8 16134.5 1579.67   1
  -7  -1 -12 1941.91 835.817  -2
  10   1   9 1941.91 835.817   1
  -8  -1 -12 30370.4 2157.99  -2
  10   1  10 30370.4 2157.99   1
  10   2  -5 529.119 1084.19   1
   5  -2 -11 2253.51 1348.83  -2
  10   2  -4 2253.51 1348.83   1
   4  -2 -11 16271.3 1742.80  -2
  10   2  -3 16271.3 1742.80   1
   3  -2 -11 30433.6 2764.00  -2
  10   2  -2 30433.6 2764.00   1
   2  -2 -11 9336.56 1125.19  -2
  10   2  -1 9336.56 1125.19   1
  10   2   0 17935.7 1301.48   1
 -10  -2  -1 14513.0 1183.53   1
  10   2   2 327.050 626.388   1
  10   2   3 12029.2 1057.17   1
  10   2   4 54462.6 1747.67   1
  10   2   5 19831.2 1321.19   1
 -10  -2  -6 3828.15 886.635   1
  -4  -2 -12 17174.4 2666.32  -2
  10   2   6 17174.4 2666.32   1
  -5  -2 -12 64689.1 2933.05  -2
  10   2   7 64689.1 2933.05   1
  -6  -2 -12 55896.7 3092.73  -2
  10   2   8 55896.7 3092.73   1
  -7  -2 -12 746.281 948.318  -2
  10   2   9 746.281 948.318   1
  10   2  10 25050.5 1674.60   1
  -8  -2 -12 24347.0 3280.41  -2
  10   2  10 24347.0 3280.41   1
  -6   3  11 8996.38 2411.45  -2
 -10  -3   5 8996.38 2411.45   1
   5  -3 -11 2291.50 1199.51  -2
  10   3  -4 2291.50 1199.51   1
   4  -3 -11 11373.1 1859.64  -2
  10   3  -3 11373.1 1859.64   1
   3  -3 -11 26664.6 1600.69  -2
  10   3  -2 26664.6 1600.69   1
 -10  -3   1 910.565 629.767   1
  10   3   0 26724.1 1545.10   1
  10   3   1 35175.5 1728.18   1
  10   3   2 4756.91 786.852   1
  10   3   3 7308.89 871.069   1
  10   3   4 56674.0 2098.49   1
  -3  -3 -12 22822.5 1484.15  -2
  10   3   5 22822.5 1484.15   1
  -4  -3 -12 4515.99 1031.53  -2
  10   3   6 4515.99 1031.53   1
  -5  -3 -12 23787.8 1970.78  -2
  10   3   7 23787.8 1970.78   1
  10   3   8 55407.9 3935.63   1
   6   3  12 51575.6 2799.31  -2
 -10  -3  -8 51575.6 2799.31   1
  10   3   9 4797.57 877.228   1
 -10  -3 -10 1620.81 681.008   1
   5  -4 -11 1173.72 1171.46  -2
  10   4  -4 1173.72 1171.46   1
  10   4  -3 14954.0 1706.17   1
 -10  -4   2 2975.34 769.649   1
 -10  -4   1 5693.44 861.273   1
  10   4   0 4816.83 788.235   1
  10   4   1 13151.1 1138.19   1
 -10  -4  -2 5904.13 1045.51   1
 -10  -4  -3 251.559 796.379   1
   2   4  12 5851.63 1223.60  -2
 -10  -4  -4 5851.63 1223.60   1
  -3  -4 -12 18434.4 1759.81  -2
  10   4   5 18434.4 1759.81   1
  -4  -4 -12 4501.04 1021.16  -2
  10   4   6 4501.04 1021.16   1
  10   4   7-12.3393 1101.54   1
   5   4  12 121.995 1169.15  -2
 -10  -4  -7 121.995 1169.15   1
  10   4   8 3552.95 795.257   1
  10   4   9 2590.43 791.773   1
  10   4  10 1421.04 815.880   1
 -10  -4 -11 553.091 1429.30   1
  10   5  -3-157.785 1011.94   1
  10   5  -2 3834.37 1042.35   1
 -10  -5   1 5678.92 1081.37   1
  10   5   0 3420.79 761.828   1
 -10  -5  -1 1054.90 654.778   1
 -10  -5  -2 1359.24 1112.42   1
   0  -5 -12 2055.13 1102.36  -2
  10   5   2 2055.13 1102.36   1
   1   5  12 6347.16 1336.31  -2
 -10  -5  -3 6347.16 1336.31   1
   2   5  12 9618.69 1677.95  -2
 -10  -5  -4 9618.69 1677.95   1
   3   5  12 5506.37 1023.26  -2
 -10  -5  -5 5506.37 1023.26   1
 -10  -5  -6 11754.1 1327.05   1
  -4  -5 -12 19762.8 2578.67  -2
  10   5   6 19762.8 2578.67   1
  10   5   7 6941.93 919.950   1
  10   5   8 932.186 746.700   1
  10   5   9 20399.2 1506.86   1
  10   5  10 4430.69 917.045   1
 -10  -5 -11 1598.78 1476.81   1
  10   6  -3 17589.5 1905.94   1
  10   6  -2-721.613 1035.10   1
  10   6  -1 4220.49 1030.18   1
 -10  -6   0 40111.6 2392.49   1
 -10  -6  -1 4934.60 1550.13   1
  -1   6  12 12866.7 2272.76  -2
 -10  -6  -1 12866.7 2272.76   1
   0   6  12 11170.7 1334.32  -2
 -10  -6  -2 11170.7 1334.32   1
  -1  -6 -12 16392.3 2120.14  -2
  10   6   3 16392.3 2120.14   1
   2   6  12 14446.9 1737.07  -2
 -10  -6  -4 14446.9 1737.07   1
 -10  -6  -5 571.736 1345.88   1
  -3  -6 -12 6322.98 1848.71  -2
  10   6   5 6322.98 1848.71   1
 -10  -6  -6 8350.33 1264.84   1
  10   6   7 22826.7 1538.76   1
 -10  -6  -8 2508.58 770.848   1
 -10  -6  -9 14607.5 1346.96   1
  10   6  10 25791.4 1775.80   1
  10   7  -2 4473.72 1821.17   1
  10   7  -1 5760.98 1203.69   1
 -10  -7   0 28949.3 2872.95   1
   2  -7 -12 39078.4 2594.99  -2
  10   7   0 39078.4 2594.99   1
  -1   7  12 42219.0 2595.66  -2
 -10  -7  -1 42219.0 2595.66   1
   0   7  12 3251.08 1033.65  -2
 -10  -7  -2 3251.08 1033.65   1
   1   7  12 26331.2 2209.38  -2
 -10  -7  -3 26331.2 2209.38   1
 -10  -7  -4 27459.8 2036.42   1
  -2  -7 -12 34653.4 3083.41  -2
  10   7   4 34653.4 3083.41   1
 -10  -7  -5 906.681 917.205   1
 -10  -7  -6 7063.41 1170.75   1
 -10  -7  -7 14932.7 1620.02   1
  10   7   8 3989.21 1046.34   1
 -10  -7  -9-75.1801 1099.36   1
   2  -8 -12 5222.86 2245.68  -2
  10   8   0 5222.86 2245.68   1
  -1   8  12 16774.5 1858.67  -2
 -10  -8  -1 16774.5 1858.67   1
   0   8  12 14520.1 1462.93  -2
 -10  -8  -2 14520.1 1462.93   1
 -10  -8  -3 1422.37 1055.15   1
  10   8   4 17489.7 1794.15   1
 -10  -8  -5 19484.1 1853.92   1
  10   8   6 1591.95 795.856   1
  10   8   7 2814.32 815.789   1
  10   8   8 12177.9 2161.67   1
  10   9   2 15142.7 1781.30   1
  10   9   3 11587.1 2331.27   1
  10   9   4-308.848 1745.33   1
  10   9   5 36904.2 3502.53   1
  10   9   6 13418.9 2409.97   1
  -4  -9 -13 6585.69 2364.74  -2
  10   9   7 6585.69 2364.74   1
  -5  -9 -13 32527.3 3885.33  -2
  10   9   8 32527.3 3885.33   1
  11  -5   2 16183.8 2650.53   1
  11  -4   1 1048.56 1013.17   1
 -11   4  -2 4520.89 1729.81   1
  -1   4 -12 3606.00 2118.46  -2
  11  -4   2 3606.00 2118.46   1
  -2   4 -12 14273.9 1977.12  -2
  11  -4   3 14273.9 1977.12   1
  -3   4 -12 813.219 1464.47  -2
  11  -4   4 813.219 1464.47   1
  -4   4 -12 8186.47 2498.09  -2
  11  -4   5 8186.47 2498.09   1
 -11   3   2 8496.86 1931.38   1
  11  -3  -1 107.720 955.706   1
  11  -3   0 7960.40 1359.32   1
 -11   3  -1 10112.3 2038.26   1
   0   3 -12 10375.1 1668.54  -2
  11  -3   1 10375.1 1668.54   1
   1  -3  12 9209.75 1474.55  -2
 -11   3  -2 9209.75 1474.55   1
  -2   3 -12 2204.88 1084.31  -2
  11  -3   3 2204.88 1084.31   1
  -3   3 -12 8328.18 1272.30  -2
  11  -3   4 8328.18 1272.30   1
 -11   3  -5 8418.48 1195.40   1
  11  -3   6 92.3421 851.818   1
 -11   2   4-652.975 1585.06   1
 -11   2   3 7736.20 1778.99   1
 -11   2   2 17723.5 1863.80   1
  11  -2  -1 4043.62 1073.48   1
 -11   2   0 1189.93 1142.06   1
   1   2 -12 1583.11 1913.21  -2
  11  -2   0 1583.11 1913.21   1
   0   2 -12 32521.3 2428.99  -2
  11  -2   1 32521.3 2428.99   1
  -1   2 -12 17717.4 1881.41  -2
  11  -2   2 17717.4 1881.41   1
  11  -2   3 2166.93 1258.59   1
   2  -2  12 12326.4 1691.23  -2
 -11   2  -3 12326.4 1691.23   1
 -11   2  -4 18120.3 1457.63   1
 -11   2  -5 21289.0 1605.19   1
  11  -2   6 9835.52 1183.67   1
  11  -2   7 6930.25 1031.45   1
 -11   2  -8 18856.7 2745.05   1
 -11   1   4 306.527 1391.82   1
 -11   1   3 12384.4 1518.85   1
  11  -1  -2 33818.5 2388.32   1
   2   1 -12 18531.4 2001.83  -2
  11  -1  -1 18531.4 2001.83   1
   1   1 -12 6493.26 1554.11  -2
  11  -1   0 6493.26 1554.11   1
   0   1 -12 43087.0 2692.41  -2
  11  -1   1 43087.0 2692.41   1
  -1   1 -12 36191.4 1981.48  -2
  11  -1   2 36191.4 1981.48   1
  11  -1   3 592.857 819.616   1
  11  -1   4 14013.5 1286.57   1
  11  -1   5 29364.3 1791.19   1
  11  -1   6 13983.6 1311.46   1
  11  -1   7 1075.51 691.624   1
 -11   1  -8 7628.83 966.406   1
   7  -1  13 12935.7 2625.07  -2
 -11   1  -9 12935.7 2625.07   1
  11   0  -3 10923.6 1476.59   1
   3   0 -12 36674.5 2674.06  -2
  11   0  -2 36674.5 2674.06   1
   2   0 -12 19735.5 2063.82  -2
  11   0  -1 19735.5 2063.82   1
   1   0 -12 10057.1 1343.48  -2
  11   0   0 10057.1 1343.48   1
  11   0   1 6800.55 1260.32   1
   0   0 -12 5142.06 1920.71  -2
  11   0   1 5142.06 1920.71   1
  11   0   2 56810.9 2365.03   1
  11   0   3 13947.6 1292.25   1
  11   0   4 144.178 646.575   1
  11   0   5 10515.6 1130.40   1
 -11   0  -6 17899.9 1475.37   1
  11   0   7 8330.93 1059.08   1
  -5   0 -13 14785.3 2593.77  -2
  11   0   7 14785.3 2593.77   1
  -6   0 -13 6906.14 1054.50  -2
  11   0   8 6906.14 1054.50   1
   7   0  13 10683.7 2021.45  -2
 -11   0  -9 10683.7 2021.45   1
   4  -1 -12 3827.58 2581.59  -2
  11   1  -3 3827.58 2581.59   1
   3  -1 -12 18692.9 2436.93  -2
  11   1  -2 18692.9 2436.93   1
  -2   1  12 39998.6 2220.16  -2
 -11  -1   1 39998.6 2220.16   1
  11   1   0 12256.8 1284.29   1
 -11  -1  -1 2068.23 755.107   1
 -11  -1  -2 14251.8 1281.21   1
  11   1   3 34954.3 1841.93   1
  11   1   4 18043.9 1381.04   1
  11   1   5-21.7450 739.210   1
 -11  -1  -6 32271.3 2209.74   1
  -4  -1 -13 36524.7 3542.92  -2
  11   1   6 36524.7 3542.92   1
   5   1  13 36475.8 2269.43  -2
 -11  -1  -7 36475.8 2269.43   1
   6   1  13 13960.6 1541.93  -2
 -11  -1  -8 13960.6 1541.93   1
  -7  -1 -13 17857.8 1541.70  -2
  11   1   9 17857.8 1541.70   1
   4  -2 -12 43720.0 5059.70  -2
  11   2  -3 43720.0 5059.70   1
  -3   2  12 6895.00 1312.15  -2
 -11  -2   2 6895.00 1312.15   1
  11   2  -1 30948.2 1825.77   1
  11   2   0 51866.5 2278.05   1
  11   2   1 7769.20 989.151   1
  11   2   2 1439.83 703.749   1
  11   2   3 74500.8 2606.11   1
 -11  -2  -4 38283.4 2450.92   1
 -11  -2  -5 1304.28 1323.37   1
  -3  -2 -13 11693.3 2451.63  -2
  11   2   5 11693.3 2451.63   1
  -4  -2 -13 36584.1 2382.62  -2
  11   2   6 36584.1 2382.62   1
  -5  -2 -13 51814.7 3080.41  -2
  11   2   7 51814.7 3080.41   1
  -6  -2 -13 26324.2 1849.10  -2
  11   2   8 26324.2 1849.10   1
  11   2   9 5803.71 1050.59   1
  -7  -2 -13 16493.5 2013.88  -2
  11   2   9 16493.5 2013.88   1
 -11  -2 -10 34820.1 3414.61   1
   4  -3 -12 40568.4 3682.06  -2
  11   3  -3 40568.4 3682.06   1
 -11  -3   2 6492.84 1087.02   1
 -11  -3   1 11545.8 1223.09   1
  11   3   0 61675.5 2424.33   1
  11   3   1 26120.6 1640.21   1
  11   3   2 109.159 715.832   1
 -11  -3  -3 50092.1 2725.27   1
   2   3  13 56471.4 3028.49  -2
 -11  -3  -4 56471.4 3028.49   1
   3   3  13 13024.9 2021.77  -2
 -11  -3  -5 13024.9 2021.77   1
  -4  -3 -13 28941.9 2219.61  -2
  11   3   6 28941.9 2219.61   1
  11   3   7 64962.6 4302.04   1
   5   3  13 64924.4 3332.18  -2
 -11  -3  -7 64924.4 3332.18   1
  11   3   8 16952.0 1718.18   1
  -6  -3 -13 14167.3 2585.46  -2
  11   3   8 14167.3 2585.46   1
 -11  -3  -9 1958.93 800.119   1
 -11  -3 -10 11767.3 2157.23   1
  11   4  -2 12265.2 2180.12   1
  11   4  -1 5170.04 969.365   1
 -11  -4   0 24690.2 1615.37   1
 -11  -4  -1 17235.1 1650.78   1
 -11  -4  -2 1547.13 1326.98   1
   0  -4 -13 6699.54 2125.48  -2
  11   4   2 6699.54 2125.48   1
   1   4  13 10988.6 1625.46  -2
 -11  -4  -3 10988.6 1625.46   1
   2   4  13 33364.4 3017.55  -2
 -11  -4  -4 33364.4 3017.55   1
   3   4  13 29470.1 2835.47  -2
 -11  -4  -5 29470.1 2835.47   1
  11   4   6-34.4709 1318.96   1
   4   4  13 5574.02 1350.91  -2
 -11  -4  -6 5574.02 1350.91   1
  11   4   7 19682.9 1832.70   1
  -5  -4 -13 27016.0 3126.96  -2
  11   4   7 27016.0 3126.96   1
  11   4   8 32428.0 1925.99   1
  11   4   9 15185.5 1699.68   1
  11   5  -2 7415.82 1894.38   1
  11   5  -1 917.106 1067.67   1
 -11  -5   0 2425.22 1386.25   1
 -11  -5  -1 20066.2 2580.69   1
   1  -5 -13 16115.3 2645.26  -2
  11   5   1 16115.3 2645.26   1
   0   5  13 5416.07 1362.81  -2
 -11  -5  -2 5416.07 1362.81   1
   1   5  13 6365.46 1606.77  -2
 -11  -5  -3 6365.46 1606.77   1
   2   5  13 10591.1 1727.30  -2
 -11  -5  -4 10591.1 1727.30   1
 -11  -5  -5 21256.4 2598.75   1
  -3  -5 -13 23988.9 2986.21  -2
  11   5   5 23988.9 2986.21   1
  11   5   6 29559.0 2200.53   1
 -11  -5  -7 2920.54 783.832   1
  11   5   8 34821.3 1986.18   1
  11   5   9 24559.8 2097.90   1
 -11  -6   0 2202.73 1395.14   1
  -1   6  13 13416.2 2315.77  -2
 -11  -6  -1 13416.2 2315.77   1
   0   6  13 32439.1 4356.95  -2
 -11  -6  -2 32439.1 4356.95   1
  -1  -6 -13 11730.5 1771.55  -2
  11   6   3 11730.5 1771.55   1
 -11  -6  -4 2311.01 1304.15   1
  -2  -6 -13 9019.71 2172.39  -2
  11   6   4 9019.71 2172.39   1
 -11  -6  -5 18910.3 1792.94   1
  11   6   6 19879.1 1863.32   1
 -11  -6  -7 2830.46 1084.64   1
  11   6   8 12219.7 1575.00   1
  11   6   9 28910.3 3250.83   1
  -1   7  13 5872.04 1555.83  -2
 -11  -7  -1 5872.04 1555.83   1
   0   7  13 31939.8 3346.78  -2
 -11  -7  -2 31939.8 3346.78   1
 -11  -7  -3 24261.1 2888.96   1
 -11  -7  -4 149.677 988.566   1
 -11  -7  -5 18491.2 1802.77   1
  11   7   6 21514.3 2694.22   1
  11   7   7 3308.77 1557.99   1
  11   8   6 3531.17 1585.67   1
  -1   2 -13 5198.27 2056.14  -2
  12  -2   2 5198.27 2056.14   1
  12  -2   5 2765.31 1529.35   1
   0   1 -13 22128.0 2941.26  -2
  12  -1   1 22128.0 2941.26   1
  12  -1   2 1206.14 1529.73   1
  12  -1   3 12099.4 2167.69   1
  12  -1   5 3293.79 1476.99   1
  12  -1   6 7341.38 1718.24   1
 -12   0   0-1099.38 1535.47   1
   1   0 -13-556.117 1918.77  -2
  12   0   0-556.117 1918.77   1
  12   0   1 8204.96 1139.84   1
  12   0   2 4098.82 911.635   1
  12   0   3 251.168 828.214   1
  12   0   4 826.544 818.033   1
 -12   0  -5 6220.56 1316.47   1
  12   0   6 2463.96 1434.04   1
  -5   0 -14 1942.26 2089.72  -2
  12   0   7 1942.26 2089.72   1
  12   1  -1 7748.96 1405.15   1
  12   1   0 520.381 851.343   1
  12   1   1-687.418 865.611   1
  12   1   2 10071.2 1212.71   1
  12   1   3 8154.60 1128.20   1
 -12  -1  -4 646.099 1126.08   1
 -12  -1  -5 2975.43 1491.01   1
  -4  -1 -14 15733.2 3070.29  -2
  12   1   6 15733.2 3070.29   1
  -5  -1 -14 16796.7 3328.20  -2
  12   1   7 16796.7 3328.20   1
  12   2  -1 29738.4 2392.88   1
  12   2   0 15553.6 1400.26   1
  12   2   1 2407.02 857.662   1
  12   2   2 23846.5 1677.86   1
  12   2   3 33852.3 2430.63   1
 -12  -2  -4 1322.27 1321.45   1
  -2  -2 -14 5168.16 2011.56  -2
  12   2   4 5168.16 2011.56   1
  -3  -2 -14 10471.2 1889.69  -2
  12   2   5 10471.2 1889.69   1
   4   2  14 23964.8 2869.88  -2
 -12  -2  -6 23964.8 2869.88   1
  -5  -2 -14 11576.8 2476.97  -2
  12   2   7 11576.8 2476.97   1
  12   3  -1 24435.4 1725.65   1
  12   3   0 34402.8 1970.35   1
 -12  -3  -1 3359.65 1122.31   1
 -12  -3  -2 6982.19 1262.18   1
  -1  -3 -14 53008.8 3068.59  -2
  12   3   3 53008.8 3068.59   1
   2   3  14 30495.4 2976.84  -2
 -12  -3  -4 30495.4 2976.84   1
  -3  -3 -14 10525.9 2113.82  -2
  12   3   5 10525.9 2113.82   1
   4   3  14 25392.0 2366.19  -2
 -12  -3  -6 25392.0 2366.19   1
  12   3   7 6866.93 1671.42   1
  12   3   8 1295.70 1460.14   1
 -12  -4   0 33493.0 2435.68   1
 -12  -4  -1 10478.0 2196.09   1
   1  -4 -14 13004.7 2738.66  -2
  12   4   1 13004.7 2738.66   1
   0  -4 -14 4060.65 2058.47  -2
  12   4   2 4060.65 2058.47   1
   1   4  14 8863.79 1981.31  -2
 -12  -4  -3 8863.79 1981.31   1
  -2  -4 -14 32834.4 3011.27  -2
  12   4   4 32834.4 3011.27   1
   3   4  14 16564.7 1986.37  -2
 -12  -4  -5 16564.7 1986.37   1
  12   4   8 20408.8 2730.29   1
   0  -5 -14 14010.7 3358.26  -2
  12   5   2 14010.7 3358.26   1
  -1  -5 -14 12455.7 2860.54  -2
  12   5   3 12455.7 2860.54   1
  -2  -5 -14 18265.6 2885.93  -2
  12   5   4 18265.6 2885.93   1
  12   5   5 34748.7 3530.79   1
  -1  -6 -14 13432.4 2652.63  -2
  12   6   3 13432.4 2652.63   1
  12   6   4 15364.9 2362.61   1
   0   0  -2 4548.67 200.786   2
   0   0  -3 97394.9 1043.26   2
   0   0  -4 67697.6 827.865   2
   0   0  -5 10096.0 383.040   2
   0   0  -6 21093.0 573.559   2
   0   0  -7 35980.7 797.221   2
   0   0  -8 16549.7 755.138   2
   0   0  12 1184.03 888.159   2
   0   0 -13 1060.71 768.590   2
   0  -1   9 10176.1 1042.66   2
   0   1  -8 10117.3 663.015   2
   0   1  -7 36387.9 1084.00   2
   0   1  -6 30975.0 577.857   2
   0   1  -5 1114.70 153.134   2
   0   1  -4 79527.1 1421.23   2
   0   1  -3 100675. 1421.64   2
   0   1  -2 19012.6 687.225   2
   0  -1  -2 7771.22 247.206   2
   0  -1  -3 38383.7 545.633   2
   0  -1  -4 74879.1 854.986   2
   0  -1  -5 20521.4 473.184   2
   0  -1  -6 485.423 176.232   2
   0   1   7 13278.5 634.252   2
   0   1  11 4922.25 766.250   2
   0   1  12 16935.5 1349.18   2
   0  -1 -13 2058.55 741.019   2
   0  -1 -14 80.9983 1570.36   2
   0  -2  11 3431.88 1448.41   2
   0   2 -10 6293.97 822.830   2
   0   2  -9 1629.84 441.793   2
   0   2  -8 2364.66 483.365   2
   0   2  -7 10000.4 660.440   2
   0   2  -6 12021.9 776.901   2
   0   2  -5 6905.98 560.545   2
   0   2  -4 18895.0 807.936   2
   0   2  -1 5100.06 280.127   2
   0   2   0 7697.26 248.577   2
   0   2   1 78640.9 537.615   2
   0  -2  -2 3240.88 167.393   2
   0  -2  -3 8149.31 259.122   2
   0  -2  -4 5230.16 254.929   2
   0  -2  -5 30850.8 596.596   2
   0   2   6 20508.7 675.317   2
   0  -2 -10 2687.74 608.030   2
   0   2  11 2455.23 629.592   2
   0  -2 -12 17770.2 1311.41   2
   0  -2 -13 11021.4 1196.67   2
   0  -2 -14-71.2013 1521.74   2
   0  -3  12-849.315 1442.93   2
   0   3 -11 1084.89 958.546   2
   0   3 -10 5570.56 855.278   2
   0   3  -9 28.8040 487.466   2
   0   3  -8 763.370 440.594   2
   0   3  -7 3463.19 562.999   2
   0   3  -6 3535.99 542.277   2
   0   3  -2 33957.5 738.622   2
   0   3  -1 8916.50 465.365   2
   0  -3   0 230.543 163.241   2
   0  -3  -1 29416.9 399.858   2
   0  -3  -2 50044.4 555.332   2
   0  -3  -3 10081.3 292.628   2
   0   3   4 10120.9 352.759   2
   0   3   5 52107.1 1261.44   2
   0  -3  -8 27139.0 1667.93   2
   0  -3  -9 38684.4 990.577   2
   0  -3 -10 10959.5 929.338   2
   0  -3 -11 3585.73 685.692   2
   0  -3 -12 11173.7 1110.71   2
   0   3  13 13999.7 1306.00   2
   0  -3 -14-590.239 1485.84   2
   0   4 -11 3095.38 968.596   2
   0   4 -10 103.869 735.041   2
   0   4  -9 4024.86 657.860   2
   0  -4   8 11633.4 1007.66   2
   0   4  -7 1825.79 621.921   2
   0   4  -3 2010.96 197.269   2
   0   4  -2 22616.4 796.986   2
   0   4  -1 60512.4 1010.14   2
   0  -4   0 5639.19 304.378   2
   0   4   1 11905.9 322.859   2
   0  -4  -2 84480.7 791.980   2
   0  -4  -3 17396.7 403.843   2
   0  -4  -4 6796.92 549.501   2
   0  -4  -7 4641.62 529.637   2
   0  -4  -8 2835.19 383.644   2
   0  -4  -9 18936.8 829.497   2
   0  -4 -10 11344.9 717.049   2
   0  -4 -11 266.410 586.903   2
   0   4  12 3026.06 923.334   2
   0   4  13 8359.39 1845.39   2
   0   5 -10 3189.98 1094.33   2
   0   5  -9 1094.47 635.816   2
   0  -5   8 9865.99 1783.63   2
   0   5  -4 12126.0 868.493   2
   0   5  -3 1781.44 331.943   2
   0   5  -2 7205.98 455.437   2
   0  -5   1 22836.7 644.762   2
   0  -5   0 1622.70 235.004   2
   0   5   1 5251.78 248.562   2
   0   5   2 16008.0 387.734   2
   0   5   3 23746.9 1473.52   2
   0   5   6 14980.1 533.929   2
   0   5   7-18.6491 298.248   2
   0  -5  -8 1867.26 349.732   2
   0  -5  -9 3632.28 461.260   2
   0   5  10 6201.57 618.428   2
   0   5  11 3530.22 602.207   2
   0   5  12 252.993 1183.22   2
   0   6 -10 3042.65 1110.77   2
   0   6  -5 357.716 686.937   2
   0   6  -4 419.904 456.883   2
   0  -6   3 7524.69 508.080   2
   0   6  -2 517.656 254.082   2
   0   6  -1 447.140 235.409   2
   0   6   0 5602.61 366.749   2
   0   6   1 1799.90 208.994   2
   0  -6  -4 7589.73 689.576   2
   0  -6  -5 4782.33 297.100   2
   0   6   6 2681.60 282.361   2
   0   6   7 7646.34 488.134   2
   0   6   8 6114.88 515.376   2
   0   6   9 383.269 362.082   2
   0   6  10 3690.48 619.261   2
   0   6  11 7360.74 1548.87   2
   0   7 -10 835.654 1155.63   2
   0  -7   6 2505.71 1214.12   2
   0  -7   5 3102.57 804.569   2
   0  -7   4-369.534 688.000   2
   0   7  -3 3509.68 584.796   2
   0  -7   2 11663.7 720.907   2
   0  -7   1 3643.61 487.151   2
   0   7   0 6965.28 861.154   2
   0  -7  -3 196.458 306.735   2
   0  -7  -4 13844.9 530.798   2
   0   7   5 18746.1 620.963   2
   0  -7  -6 896.042 281.700   2
   0   7   7 17167.5 806.810   2
   0   7   8 5740.79 642.612   2
   0   7   9 4729.97 749.370   2
   0  -8   7-976.751 1535.34   2
   0   8  -6 4626.00 837.427   2
   0   8  -5 10141.9 1035.63   2
   0   8  -4 1744.47 672.781   2
   0   8  -3 4386.63 738.043   2
   0   8  -2 29452.8 1494.25   2
   0   8   2 15768.3 860.775   2
   0  -8  -3-27.0201 337.575   2
   0  -8  -4 3224.66 394.491   2
   0  -8  -5 11159.7 614.584   2
   0  -8  -6 5659.50 639.354   2
   0   8   7 1796.49 489.119   2
   0   8   8 5945.79 712.384   2
   0   9  -7 532.889 1637.15   2
   0   9  -6 8289.95 1011.91   2
   0   9  -5 10295.7 1103.36   2
   0   9  -4 3445.76 791.166   2
   0   9  -3 499.699 859.900   2
   0  -9  -1 1911.09 426.622   2
   0  -9  -2 7533.19 574.685   2
   0  -9  -3 1532.73 379.727   2
   0  -9  -4 1180.55 386.687   2
   0   9   5 450.586 413.150   2
   0  -9  -6 1300.76 545.903   2
   0   9   7 1738.99 779.450   2
   0   9  11 2185.86 1161.66   2
   0   9  12 30.5960 881.504   2
   0  10  -5 4189.80 867.550   2
   0 -10   4 3261.36 1438.83   2
   0 -10   0 5617.57 697.065   2
   0 -10  -1 5522.02 573.243   2
   0 -10  -2 130.013 430.636   2
   0  10   3 7488.88 695.003   2
   0 -10  -4 2639.11 524.968   2
   0 -10  -5 511.847 586.476   2
   0 -10  -6 2245.79 1291.39   2
   0  10  10 2243.00 1321.60   2
   0  10  11 3935.04 869.083   2
   0 -11   1 5414.54 1651.48   2
   0  11   0 10008.2 1139.34   2
   0 -11  -1 5067.32 641.797   2
   0 -11  -2 577.276 549.593   2
   0  11   3 14536.5 961.636   2
   0 -11  -4 9850.20 844.430   2
   0  11   9 984.739 1056.02   2
   0  11  10 6954.07 2025.50   2
   0  12  -1 6723.19 1609.23   2
   0  12   0 14571.9 1450.62   2
   0 -12  -1 9908.83 1226.02   2
   0  12   2-336.671 714.393   2
   0  12   3 10320.6 938.259   2
   0  12   8 7860.91 1975.57   2
   1 -12  -4 12420.5 1302.33   2
   1 -12  -3 621.629 746.249   2
   1 -12  -2 4500.16 800.214   2
   1 -12  -1 13635.2 1417.41   2
   1 -12   0 11051.6 1340.00   2
   1 -11  -5 6550.95 881.840   2
   1 -11  -4 32246.4 1378.08   2
  -1  11   3 6693.34 728.691   2
   1 -11  -2 1761.20 639.665   2
   1 -11  -1 10332.1 856.364   2
   1 -11   0 9307.42 1942.89   2
  -1  10  11 9668.97 2098.26   2
  -1  10   7 12136.2 1431.61   2
   1 -10  -6 290.631 703.201   2
   1 -10  -5 801.009 534.124   2
   1 -10  -4 11730.4 844.861   2
   1 -10  -3 8099.72 652.565   2
   1 -10  -2 272.063 453.128   2
   1 -10  -1 3226.84 737.335   2
   1 -10   3 2038.97 1322.07   2
   1 -10   4 4362.31 1115.87   2
   1 -10   5 6723.88 1291.30   2
  -1   9   8 2648.79 643.394   2
  -1   9   7 10437.5 911.261   2
   1  -9  -6 6292.73 839.905   2
   1  -9  -5-88.1000 415.262   2
   1  -9  -4 355.107 386.529   2
   1  -9  -3 16545.9 801.680   2
  -1   9   2 9824.68 921.006   2
   1  -9   2 9561.63 1211.20   2
  -1   9  -3 44.3194 699.567   2
  -1   9  -4 14622.5 1260.96   2
  -1   9  -5 19313.5 1418.57   2
   1  -9   6-42.6367 967.642   2
  -1   8   9 7321.53 904.191   2
  -1   8   8 1302.78 554.878   2
   1  -8  -7 4001.17 533.339   2
  -1   8   6 19071.6 908.034   2
   1  -8  -5 6190.23 562.759   2
   1  -8  -4 154.125 348.573   2
  -1   8   3 19566.0 1134.98   2
   1  -8   0 6487.38 1187.97   2
  -1   8  -1 36202.3 1320.59   2
  -1   8  -2 14092.9 1078.71   2
  -1   8  -3-144.100 616.667   2
  -1   8  -4 15136.8 1175.09   2
  -1   8  -5 20795.4 1386.71   2
   1  -8   6 7247.27 1802.55   2
  -1   7  11 2269.09 1291.77   2
  -1   7  10 7082.43 917.389   2
  -1   7   9 11224.5 1051.13   2
   1  -7  -8 10783.5 715.101   2
  -1   7   7 1349.90 364.263   2
   1  -7  -6 32093.2 948.642   2
   1  -7  -5 25486.6 877.830   2
  -1   7   4 445.813 529.308   2
  -1   7   1 9838.01 601.029   2
   1  -7   0 4362.15 518.297   2
  -1   7  -1 32334.1 1144.26   2
  -1   7  -2 19652.7 916.693   2
  -1   7  -3 2512.60 556.028   2
  -1   7  -4 4677.52 725.104   2
  -1   7  -5 10409.9 969.930   2
  -1   6  12 6008.60 1633.30   2
  -1   6  11 2449.45 718.706   2
   1  -6 -10 1644.22 513.405   2
   1  -6  -9 9501.64 661.493   2
   1  -6  -8 5189.95 461.136   2
  -1   6   7 137.954 279.556   2
  -1   6   6 4464.28 356.953   2
  -1   6   5 17553.3 1193.02   2
   1  -6  -2 19826.7 573.518   2
   1  -6  -1 6734.73 354.897   2
   1  -6   0 997.275 305.102   2
  -1   6  -1 1374.44 330.332   2
  -1   6  -2 17068.7 772.571   2
  -1   6  -3 3274.16 410.726   2
  -1   6  -4 1010.84 467.535   2
   1  -6   8 1271.33 1229.78   2
   1  -6   9 3991.91 898.472   2
  -1   6 -10 7378.94 1331.98   2
  -1   6 -11 1846.79 1602.57   2
  -1   5  13 698.062 1319.96   2
  -1   5  12 169.811 853.661   2
   1  -5 -11 2068.87 509.638   2
   1  -5 -10 51.1351 443.553   2
   1  -5  -9 1308.39 370.161   2
  -1   5   8 311.536 303.373   2
   1  -5  -7 1474.07 316.150   2
   1  -5  -3 4704.20 251.934   2
   1  -5  -2 1103.93 199.800   2
   1  -5  -1 16675.5 482.554   2
   1  -5   0 20877.0 773.931   2
  -1   5  -1 1799.01 221.691   2
  -1   5  -2 16921.1 696.433   2
   1  -5   3 22477.9 651.263   2
   1  -5   7 30930.4 2650.75   2
   1  -5   8 1521.32 798.586   2
   1  -5   9 6053.62 923.033   2
   1  -5  10 22065.7 1982.17   2
  -1   5 -11 7404.34 1106.51   2
  -1   4  13 2011.77 1016.12   2
  -1   4  12 266.430 685.657   2
   1  -4 -11 2054.98 645.291   2
   1  -4 -10 6839.20 620.985   2
   1  -4  -9 3691.53 480.150   2
   1  -4  -8 1090.87 457.379   2
  -1   4   5 2393.19 430.075   2
   1  -4  -4 16057.5 501.655   2
   1  -4  -3 49927.4 717.587   2
   1  -4  -2 10715.8 315.511   2
   1  -4  -1 12576.5 388.011   2
   1  -4   0 45507.6 993.501   2
  -1   4  -1 40014.4 705.307   2
  -1   4  -2-0.24306 226.030   2
   1  -4   6 4634.69 785.362   2
  -1   4  -7 19443.6 1154.96   2
  -1   4  -8 5566.87 672.620   2
   1  -4   9 1151.30 657.264   2
   1  -4  10 7364.31 1244.13   2
  -1   4 -11 9796.48 1142.23   2
   1  -3 -13 7204.94 1080.33   2
   1  -3 -12 5639.97 876.073   2
   1  -3 -11-148.251 664.021   2
   1  -3 -10 11960.9 980.411   2
  -1   3   6 32339.1 1937.43   2
  -1   3   5 2956.70 307.803   2
  -1   3   4 5434.10 316.864   2
   1  -3  -3 14354.4 417.149   2
   1  -3  -2 12582.6 321.472   2
   1  -3  -1 1323.91 187.865   2
   1  -3   0 4959.03 389.911   2
  -1   3  -1 12103.0 576.810   2
  -1   3  -4 7685.31 363.900   2
  -1   3  -5 1315.90 297.025   2
  -1   3  -6 1623.54 335.136   2
  -1   3  -7 4150.35 456.326   2
  -1   3  -8 1755.95 485.727   2
  -1   3  -9 964.894 479.012   2
   1  -3  10 181.491 804.495   2
   1  -3  11 2234.67 1266.48   2
   1  -2 -14 400.443 1644.27   2
   1  -2 -13 10371.6 1186.28   2
   1  -2 -12 2412.40 733.199   2
   1  -2 -11 135.308 615.170   2
   1  -2  -7 464.722 328.208   2
   1  -2  -6 10091.4 461.623   2
   1  -2  -5 2167.85 242.856   2
  -1   2   4 1720.64 275.362   2
   1  -2  -3 4017.37 281.682   2
  -1   2   2 25607.2 526.775   2
   1  -2  -1 108.981 148.440   2
  -1   2   0 2376.32 222.251   2
  -1   2  -3 23349.1 382.884   2
  -1   2  -4 2555.83 247.181   2
  -1   2  -5 4266.96 480.902   2
  -1   2  -6 4152.21 446.987   2
  -1   2  -7 957.629 361.611   2
  -1   2  -8 3181.76 499.711   2
  -1   2  -9 4887.76 588.158   2
   1  -1 -13 3368.57 869.186   2
   1  -1 -12 5904.87 917.403   2
   1  -1  -8 5384.99 616.474   2
   1  -1  -7 3638.70 334.774   2
   1  -1  -6 338.396 192.173   2
   1  -1  -5 15358.0 513.200   2
   1  -1  -4 32545.3 640.304   2
   1  -1  -3 19570.6 431.444   2
  -1   1   2 89.8902 191.127   2
  -1   1   1 85845.7 700.623   2
  -1   1  -1 13783.3 320.811   2
   1  -1   2 5399.07 307.197   2
  -1   1  -3 27769.7 593.072   2
   1  -1   4 2079.62 287.056   2
  -1   1  -5 5496.08 412.316   2
  -1   1  -6 20374.1 765.853   2
  -1   1  -7 4235.01 451.570   2
  -1   1  -8 4003.62 484.631   2
  -1   1 -13 3367.86 858.362   2
  -1   0  13-60.5920 1005.68   2
  -1   0   9 3891.98 1194.27   2
   1   0  -8 32760.1 1043.92   2
   1   0  -7 26258.1 874.300   2
   1   0  -6 1162.12 249.826   2
   1   0  -5 32039.4 745.156   2
   1   0  -4 40240.2 848.625   2
   1   0  -3 41798.6 956.229   2
  -1   0  -2 57144.2 480.202   2
  -1   0  -3 84910.3 725.050   2
  -1   0  -4 3534.51 221.329   2
  -1   0  -5 14371.6 420.377   2
  -1   0  -6 26465.5 599.281   2
  -1   0  -7 5667.27 340.084   2
  -1   0 -11 1927.41 595.954   2
  -1   0 -12-39.1345 741.966   2
  -1   0 -13 2845.35 830.487   2
  -1   0 -14 1028.72 1542.68   2
  -1  -1  10 21728.2 2337.53   2
   1   1  -9 52.2976 407.273   2
   1   1  -8 29532.1 1074.09   2
   1   1  -7 41656.6 1172.44   2
   1   1  -6 16634.3 711.009   2
   1   1  -5 16203.0 679.935   2
   1   1  -4 67892.6 1210.12   2
   1   1  -1 24059.6 380.372   2
  -1  -1  -2 8370.27 191.663   2
  -1  -1  -3 27950.9 449.496   2
  -1  -1  -4 33936.3 445.758   2
  -1  -1  -5 7367.81 266.292   2
  -1  -1  -6 4225.72 256.135   2
  -1  -1 -10 279.129 438.429   2
  -1  -1 -11 4780.21 624.639   2
  -1  -1 -12 2765.50 730.327   2
  -1  -1 -13 13.5629 777.987   2
  -1  -1 -14 839.736 1483.92   2
  -1  -2  12 293.255 1383.80   2
   1   2 -11 12091.3 1500.73   2
   1   2 -10 11980.0 1355.48   2
   1   2  -9 2481.80 491.164   2
   1   2  -8 3366.51 503.222   2
   1   2  -7 15862.9 955.288   2
   1   2  -6 12778.1 810.357   2
   1   2  -2 26935.6 773.796   2
   1   2  -1 1032.31 160.236   2
   1   2   0 46647.2 490.730   2
  -1  -2  -1 34424.8 517.283   2
  -1  -2  -2 20106.5 290.887   2
  -1  -2  -3 735.352 135.577   2
  -1  -2  -4 53431.9 732.994   2
  -1  -2  -5 46626.6 835.843   2
  -1  -2  -8 24754.9 1771.32   2
  -1  -2  -9 8292.85 656.244   2
  -1  -2 -10 27.0869 425.392   2
  -1  -2 -11 7533.38 834.288   2
  -1  -2 -12 9492.08 1042.02   2
  -1  -2 -13 981.272 798.203   2
   1   2  14 3073.53 1133.73   2
  -1  -3  12-855.095 1047.19   2
   1   3 -11 3271.44 963.646   2
   1   3 -10 5319.71 1045.64   2
   1   3  -9 2314.28 527.881   2
   1   3  -8 5.31370 520.836   2
   1   3  -7 8513.55 809.563   2
   1   3  -3 20397.7 454.677   2
   1   3  -2 62896.1 1043.65   2
   1   3  -1 15078.5 455.221   2
   1   3   0 9267.06 350.333   2
   1   3   1 131442. 1073.27   2
   1   3   2 136007. 947.576   2
   1   3   3 2968.72 187.736   2
   1   3   4 29490.0 500.501   2
  -1  -3  -7 3387.49 429.212   2
  -1  -3  -8 47951.6 1011.82   2
  -1  -3  -9 23921.7 781.305   2
  -1  -3 -10 70.8265 424.299   2
  -1  -3 -11 5094.01 737.534   2
  -1  -3 -12 15632.0 1206.40   2
   1   3  13 4158.06 1116.90   2
   1   4 -11-795.792 977.864   2
   1   4 -10 7101.77 1274.07   2
   1   4  -9 8652.33 833.140   2
   1   4  -8 2979.32 649.776   2
   1   4  -4 255.266 506.853   2
   1   4  -3 25373.1 781.767   2
   1   4  -2 81057.3 1174.92   2
   1   4  -1 50986.7 890.144   2
   1   4   0 2364.22 279.128   2
   1   4   1 54080.4 878.940   2
   1   4   2 83882.5 878.682   2
  -1  -4  -3 7528.07 304.366   2
  -1  -4  -6 12209.6 589.884   2
  -1  -4  -7 2011.29 274.237   2
  -1  -4  -8 12556.0 562.386   2
  -1  -4  -9 21913.2 765.638   2
  -1  -4 -10 3192.25 396.827   2
   1   4  11 403.388 722.636   2
   1   4  12 7633.15 1209.98   2
   1   5 -10 2674.54 982.618   2
  -1  -5   9 21855.9 2615.16   2
   1   5  -5 21364.7 1471.96   2
   1   5  -4 12263.3 661.025   2
   1   5  -3 16840.3 636.229   2
   1   5  -2 37318.6 977.533   2
   1   5  -1 32917.8 888.544   2
   1   5   0 363.279 234.344   2
   1   5   1 13308.0 508.055   2
  -1  -5  -2 27150.3 923.224   2
   1   5   4 275.906 399.617   2
  -1  -5  -5 19036.2 519.427   2
  -1  -5  -6 8952.96 425.129   2
  -1  -5  -7 10302.4 555.627   2
  -1  -5  -8-13.7489 289.696   2
  -1  -5  -9 13391.9 703.171   2
   1   5  10 14000.2 875.986   2
   1   5  11 4474.96 930.742   2
   1   6 -10 647.960 1517.13   2
   1   6  -6 2432.87 550.151   2
   1   6  -5 8376.18 731.955   2
   1   6  -4 11616.4 873.202   2
   1   6  -3 112.793 283.361   2
   1   6  -2 2220.05 338.884   2
   1   6  -1 8329.92 527.100   2
   1   6   0 9832.27 499.223   2
   1   6   3 24239.1 1015.24   2
  -1  -6  -4 12260.2 462.119   2
  -1  -6  -5 174.625 193.569   2
   1   6   6 25692.5 705.828   2
   1   6   7 12121.9 572.333   2
   1   6   8 6260.86 600.640   2
   1   6   9 2599.52 489.435   2
   1   6  10 28240.3 2582.58   2
  -1  -7   7 1542.44 817.020   2
  -1  -7   6 2783.48 801.112   2
   1   7  -5 260.251 804.003   2
   1   7  -4 2581.00 587.683   2
   1   7  -3 13946.7 937.466   2
  -1  -7   2 85.6663 327.877   2
   1   7  -1 8075.51 582.954   2
  -1  -7  -2 1974.63 841.086   2
   1   7   3 23041.2 751.108   2
  -1  -7  -4 26284.7 711.271   2
   1   7   5 573.858 237.261   2
  -1  -7  -6 25796.5 936.374   2
   1   7   7 30966.3 1064.72   2
   1   7   8 10830.7 725.970   2
   1   7   9 2272.71 1122.89   2
   1   7  13 5584.88 1635.96   2
   1   8  -8 606.451 1095.14   2
  -1  -8   7 3463.66 963.083   2
  -1  -8   6 4101.54 917.859   2
   1   8  -5 707.661 801.643   2
   1   8  -4 2963.00 915.618   2
   1   8  -3 17837.5 1547.95   2
   1   8   2 3816.23 455.677   2
   1   8   3 15343.5 691.217   2
  -1  -8  -4 27256.7 879.729   2
   1   8   5 6114.36 551.659   2
  -1  -8  -6 2324.34 477.320   2
   1   8   7 22722.8 1023.76   2
   1   8  12 5857.87 1153.02   2
   1   8  13 446.003 1228.56   2
   1   9  -7 5438.98 1623.85   2
   1   9  -6 4800.01 911.851   2
   1   9  -5-87.2415 773.187   2
  -1  -9   4 4170.71 1413.43   2
  -1  -9   0 4820.73 858.204   2
   1   9   1 9154.06 764.373   2
  -1  -9  -2 1502.45 374.373   2
   1   9   3 95.5013 416.443   2
  -1  -9  -4 5285.79 564.605   2
  -1  -9  -5 2663.83 498.619   2
  -1  -9  -6 1040.89 770.947   2
   1   9  10 983.639 1269.29   2
   1   9  11 1583.83 768.768   2
   1   9  12 4269.49 946.618   2
  -1 -10   1 1466.80 1279.76   2
   1  10   0 1290.60 548.683   2
   1  10   1 111.446 550.936   2
   1  10   2 6738.65 667.843   2
   1  10   3 2402.32 502.470   2
  -1 -10  -4 1873.46 490.867   2
  -1 -10  -5 3200.53 914.267   2
   1  10   9 5155.38 1076.34   2
   1  10  10 2808.03 807.082   2
   1  10  11 212.422 801.423   2
   1  10  12 4436.43 2006.21   2
   1  11  -2 1243.99 956.811   2
   1  11  -1 6613.91 1011.74   2
   1  11   0 4885.12 911.831   2
   1  11   1 253.423 562.633   2
   1  11   2 1832.58 576.699   2
  -1 -11  -3 2951.62 561.439   2
   1  11   8-699.574 825.015   2
   1  11   9 7246.53 950.725   2
   1  11  10 2847.40 1129.74   2
   1  12  -1 4097.55 1533.66   2
   1  12   0 8717.80 1151.99   2
  -1 -12  -1-493.638 715.874   2
   1  12   2 4748.43 833.771   2
  -1 -12  -7 2032.63 879.018   2
   1  12   8-244.840 1433.72   2
   2 -12  -5 8507.05 1450.56   2
   2 -12  -4 111.884 863.620   2
   2 -12  -3 1853.62 759.460   2
  -2  12   2 4713.82 873.430   2
  -2  12   1 3398.83 934.621   2
  -2  12   0-1177.35 1486.39   2
   2 -11  -7-960.365 1486.43   2
   2 -11  -6 1388.37 787.729   2
   2 -11  -5 11335.0 1231.21   2
   2 -11  -4 5279.21 901.295   2
  -2  11   3 679.522 678.982   2
   2 -11  -2 6054.60 756.127   2
   2 -11  -1 3916.51 983.915   2
   2 -10  -8 6776.13 1720.59   2
  -2  10   7 4054.71 675.225   2
  -2  10   6 262.633 599.528   2
   2 -10  -5 2089.67 738.024   2
   2 -10  -4 8001.91 817.510   2
   2 -10  -3 910.775 440.069   2
  -2  10   2 656.685 586.729   2
   2 -10   2 842.275 1302.58   2
  -2  10  -3 1895.73 837.497   2
  -2  10  -4 3835.42 1243.91   2
   2 -10   5-715.858 1062.12   2
  -2   9   9 293.392 930.839   2
  -2   9   8 2968.75 639.350   2
  -2   9   7 7001.76 790.871   2
   2  -9  -6 2026.69 504.393   2
   2  -9  -5 2766.72 557.535   2
   2  -9  -4 3889.46 594.556   2
   2  -9  -3 14591.2 1119.26   2
   2  -9   1 13163.3 1059.57   2
   2  -9   2 3063.05 719.977   2
  -2   9  -3 5694.92 884.692   2
  -2   9  -4 10591.4 1090.83   2
  -2   9  -5 3204.79 1028.67   2
   2  -9   6 1260.63 1368.72   2
  -2   8  10 8745.72 1073.52   2
  -2   8   9 7611.30 986.338   2
  -2   8   8 843.723 478.475   2
  -2   8   7 12969.9 828.860   2
  -2   8   6 18266.3 918.652   2
   2  -8  -5 1228.29 497.263   2
   2  -8  -4 4570.64 914.714   2
  -2   8   1 1517.46 532.237   2
   2  -8   0 24124.4 889.182   2
   2  -8   1 20071.6 889.947   2
   2  -8   2 6452.17 811.650   2
   2  -8   3 2713.77 658.118   2
  -2   8  -4 15570.1 1192.02   2
   2  -8   5 10001.4 1159.91   2
  -2   7  12 3213.33 1510.78   2
  -2   7  11 3263.61 841.110   2
  -2   7  10 14132.7 1033.44   2
   2  -7  -9 22543.3 1050.66   2
  -2   7   8 838.470 446.925   2
  -2   7   7 17752.6 800.165   2
  -2   7   6 42137.5 1127.50   2
  -2   7   5 7362.83 1248.00   2
   2  -7  -2 23905.1 890.293   2
   2  -7  -1 1453.84 260.088   2
   2  -7   0 2944.79 320.766   2
   2  -7   1 23919.3 868.104   2
   2  -7   2 8477.88 645.113   2
   2  -7   3 1867.09 521.279   2
  -2   7  -4 4824.78 697.347   2
  -2   7  -9 5091.54 1036.60   2
  -2   6  13 11378.7 2202.59   2
  -2   6  12 4975.44 1185.04   2
   2  -6 -11 18.4581 574.291   2
   2  -6 -10 16540.5 956.684   2
   2  -6  -9 10977.7 766.090   2
  -2   6   8 3362.22 481.240   2
  -2   6   7 3937.96 497.793   2
  -2   6   6 24486.4 1950.35   2
   2  -6  -3 8570.72 488.095   2
   2  -6  -2 13634.3 522.178   2
   2  -6  -1 7482.41 393.382   2
   2  -6   0 986.788 264.994   2
   2  -6   1 11496.8 673.787   2
  -2   6  -2 3753.98 435.561   2
   2  -6   3 8392.69 498.552   2
   2  -6   7 2541.36 1123.79   2
  -2   6  -8 1234.47 704.287   2
  -2   6  -9 6807.37 880.235   2
  -2   6 -10 9083.05 1216.26   2
  -2   6 -11-770.069 1761.90   2
  -2   5  13 5429.11 1701.86   2
   2  -5 -12 3974.07 1001.86   2
   2  -5 -11 1196.87 590.516   2
   2  -5 -10 5630.63 565.969   2
   2  -5  -9 6998.46 564.296   2
  -2   5   8 11460.1 794.947   2
  -2   5   4 19668.3 567.127   2
   2  -5  -3 90.3123 113.084   2
   2  -5  -2 16791.5 562.635   2
   2  -5  -1 48354.1 903.593   2
  -2   5   0 11259.9 338.718   2
   2  -5   1 2933.27 378.128   2
   2  -5   2 52924.7 1224.63   2
   2  -5   6 37279.6 1741.56   2
   2  -5   7 20754.6 1576.77   2
   2  -5   8 21.1768 660.905   2
  -2   5  -9 12422.9 1006.89   2
   2  -5  10 15121.2 1316.74   2
   2  -5  11 1539.77 866.663   2
   2  -4 -13 359.565 858.520   2
   2  -4 -12 3876.32 800.185   2
   2  -4 -11 6072.64 861.372   2
   2  -4 -10 4244.14 514.094   2
   2  -4  -9 6004.63 761.426   2
  -2   4   5 21098.8 646.532   2
  -2   4   4 60480.6 966.327   2
   2  -4  -3 7764.21 357.410   2
   2  -4  -2 8892.67 365.746   2
   2  -4  -1 62906.9 939.413   2
   2  -4   0 52729.7 941.806   2
  -2   4  -1 5106.10 485.313   2
  -2   4  -2 117512. 3176.51   2
   2  -4   4 10593.9 508.396   2
   2  -4   5 4283.76 369.618   2
   2  -4   6 34474.6 1274.39   2
  -2   4  -7 21093.7 1467.89   2
  -2   4  -8 727.344 501.762   2
  -2   4  -9 6457.36 734.204   2
  -2   4 -10 9917.39 1106.11   2
  -2   4 -11 8096.79 1119.91   2
   2  -3 -13 1213.06 837.236   2
   2  -3 -12 2449.01 784.331   2
   2  -3 -11 7603.32 929.514   2
  -2   3   6 2571.06 409.017   2
  -2   3   5 16980.6 729.132   2
  -2   3   4 35906.1 834.506   2
   2  -3  -3 35368.4 772.023   2
   2  -3  -2 19886.5 470.515   2
   2  -3  -1 56275.0 685.698   2
   2  -3   0 51045.3 805.962   2
  -2   3  -1 13209.0 969.971   2
   2  -3   3 62378.9 966.118   2
  -2   3  -4 29133.2 607.746   2
  -2   3  -5 812.574 221.919   2
  -2   3  -6 10406.2 523.646   2
   2  -3   7 16648.0 819.618   2
   2  -3   8 13101.6 719.559   2
  -2   3  -9-215.723 480.826   2
   2  -3  10 3812.09 1211.82   2
   2  -2 -13 1133.48 826.751   2
   2  -2 -12 277.667 837.833   2
   2  -2  -7 2906.72 424.343   2
  -2   2   6 3689.27 425.833   2
  -2   2   5 922.413 294.879   2
  -2   2   4 4511.60 373.665   2
   2  -2  -3 33132.1 796.478   2
  -2   2   2 232.360 175.431   2
   2  -2  -1 5897.06 273.977   2
  -2   2   0 22550.1 564.360   2
   2  -2   1 2557.37 225.458   2
   2  -2   2 27521.1 510.588   2
  -2   2  -3 8213.44 317.390   2
  -2   2  -4 12429.7 456.503   2
  -2   2  -5 21772.1 630.424   2
   2  -2   6 3673.43 423.889   2
  -2   2  -7 9840.30 590.051   2
  -2   2  -8 18511.9 829.329   2
  -2   2 -12 8659.12 1819.54   2
  -2   2 -13 2469.14 1702.43   2
   2  -1 -13 86.4953 845.039   2
  -2   1   9 877.372 850.635   2
   2  -1  -8 219.557 354.847   2
   2  -1  -7-158.170 427.914   2
   2  -1  -6 1738.47 271.372   2
   2  -1  -5 768.653 167.060   2
  -2   1   4 19.0363 96.1835   2
  -2   1   3 100.001 221.562   2
  -2   1   2 73826.1 1605.25   2
  -2   1   0 1580.51 141.361   2
   2  -1   1 35662.1 423.488   2
   2  -1   2 14114.7 306.997   2
  -2   1  -3 2000.33 162.413   2
  -2   1  -4 27423.5 645.353   2
  -2   1  -5 29614.1 659.793   2
  -2   1  -6 5927.24 408.091   2
  -2   1  -7 5916.65 452.032   2
  -2   1 -11 14294.9 1910.73   2
  -2   1 -12 15539.7 1120.40   2
  -2   1 -13 1639.66 860.985   2
   2   0 -10-162.496 746.701   2
   2   0  -9 6002.81 942.548   2
   2   0  -8 6858.18 626.517   2
   2   0  -7 256.105 272.602   2
   2   0  -6 9587.92 473.631   2
   2   0  -5 29120.5 787.183   2
   2   0  -4 4047.20 311.474   2
   2   0   0 2041.08 166.568   2
   2   0   1 66141.2 554.482   2
  -2   0  -2 51395.5 599.702   2
  -2   0  -3 6206.64 294.183   2
  -2   0  -4 21874.2 432.755   2
  -2   0  -5 33486.5 609.867   2
  -2   0  -6 4401.95 311.638   2
   2   0  10 4336.27 826.408   2
  -2   0 -11 2330.20 532.845   2
  -2   0 -12 6105.45 797.717   2
  -2   0 -13 4184.20 841.877   2
  -2   0 -14 512.379 1486.93   2
   2   1 -11 9017.19 1391.34   2
   2   1 -10 741.425 808.551   2
   2   1  -9 7427.10 801.082   2
   2   1  -8 22386.2 1173.17   2
   2   1  -7 7190.85 510.545   2
   2   1  -6 2226.82 323.105   2
   2   1  -5 26463.2 888.414   2
  -2  -1   1 64265.5 755.104   2
   2   1   0-10.3565 106.086   2
  -2  -1  -1 3278.02 163.296   2
  -2  -1  -2 3798.06 216.333   2
   2   1   3 1709.39 141.574   2
  -2  -1  -4 116.222 126.944   2
  -2  -1  -5 10802.0 360.526   2
  -2  -1  -9 79.2430 399.262   2
  -2  -1 -10 5214.71 588.194   2
  -2  -1 -11 1108.10 502.695   2
  -2  -1 -12 1037.24 563.819   2
  -2  -1 -13 3637.58 871.055   2
   2   2 -12 5778.00 1230.82   2
   2   2 -11 5102.11 1111.12   2
   2   2 -10 5121.61 1032.83   2
   2   2  -9 245.436 580.114   2
   2   2  -8 6974.13 625.324   2
   2   2  -7 11924.0 891.447   2
  -2  -2   3 13413.6 602.427   2
   2   2  -2 14756.9 400.979   2
   2   2  -1 6249.64 289.870   2
   2   2   0 395.964 120.948   2
   2   2   1 23784.2 408.529   2
  -2  -2  -2 739.898 167.951   2
  -2  -2  -3 17206.3 390.822   2
  -2  -2  -4 2999.40 194.927   2
  -2  -2  -7 18172.7 1317.29   2
  -2  -2  -8 4769.66 426.068   2
  -2  -2  -9 1853.82 404.202   2
  -2  -2 -10 3213.02 498.161   2
  -2  -2 -11 9887.77 793.845   2
  -2  -2 -12 432.841 648.827   2
   2   2  13 2993.32 1103.67   2
   2   2  14 5800.43 1826.92   2
   2   3 -11 3202.84 1034.50   2
   2   3 -10 8027.53 1235.14   2
   2   3  -9 2894.27 658.288   2
   2   3  -8 419.025 571.262   2
   2   3  -4 1194.19 755.177   2
   2   3  -3 24433.6 811.420   2
   2   3  -2 31345.0 745.071   2
   2   3  -1 3890.16 254.674   2
   2   3   0 28913.8 518.068   2
   2   3   1 46026.9 541.759   2
  -2  -3  -2 13423.0 431.000   2
  -2  -3  -3 21435.5 479.659   2
  -2  -3  -6 1349.57 238.541   2
  -2  -3  -7 20577.4 625.296   2
  -2  -3  -8 22537.0 695.153   2
  -2  -3  -9 545.415 293.556   2
  -2  -3 -10 3016.42 480.573   2
  -2  -3 -11 10320.5 800.565   2
   2   3  12 1199.82 806.228   2
   2   4 -11 2972.43 1052.62   2
   2   4 -10 8908.94 1284.11   2
   2   4  -9 12789.9 1176.19   2
  -2  -4   5 10761.5 1416.50   2
   2   4  -4 20.6418 356.153   2
   2   4  -3 30737.8 986.243   2
   2   4  -2 37957.0 857.605   2
   2   4  -1 3835.50 271.023   2
   2   4   0 46490.4 691.948   2
  -2  -4  -1 48056.2 871.620   2
  -2  -4  -2 32558.0 716.417   2
  -2  -4  -5 7036.85 261.212   2
  -2  -4  -6 4640.22 296.395   2
  -2  -4  -7 3797.95 325.356   2
  -2  -4  -8 14763.6 587.591   2
  -2  -4  -9 3071.61 359.734   2
  -2  -4 -10 266.334 430.726   2
  -2  -4 -11 859.638 535.285   2
  -2  -5  10 12526.2 1249.07   2
  -2  -5   6 19322.6 1462.35   2
   2   5  -5 20560.1 1006.32   2
   2   5  -4 1313.57 341.870   2
   2   5  -3 15666.1 642.975   2
   2   5  -2 27546.0 802.129   2
   2   5  -1 17874.5 629.655   2
  -2  -5   0 300.378 264.509   2
   2   5   3 8476.61 696.837   2
  -2  -5  -4 4450.19 252.407   2
   2   5   5 8016.80 328.320   2
  -2  -5  -6 20333.2 569.108   2
  -2  -5  -7 4462.70 389.080   2
   2   5   8 208.686 376.626   2
   2   5   9 8970.45 606.207   2
  -2  -5 -10 6180.60 738.043   2
   2   5  14 2843.99 1407.54   2
  -2  -6   7 272.213 644.296   2
   2   6  -6 5517.40 687.496   2
   2   6  -5 21329.8 1096.29   2
   2   6  -4 3310.96 511.690   2
   2   6  -3 241.511 280.742   2
   2   6  -2 9228.19 533.593   2
   2   6  -1 15302.6 711.746   2
  -2  -6  -2 18137.9 848.490   2
   2   6   3 44745.6 801.256   2
   2   6   4 13711.2 466.138   2
   2   6   5 4972.91 302.941   2
   2   6   6 13196.7 610.100   2
   2   6   7 19815.5 768.336   2
  -2  -6  -8 733.488 419.325   2
   2   6   9 8684.38 1520.43   2
   2   6  13 6670.82 1789.28   2
  -2  -6 -14 5264.43 1692.75   2
  -2  -7   8 4569.02 1407.35   2
   2   7  -7 1636.10 597.582   2
   2   7  -6-62.3180 572.018   2
   2   7  -5 6619.41 821.744   2
   2   7  -4 29763.6 1436.89   2
   2   7  -3 4084.49 639.558   2
  -2  -7   2 6087.38 683.144   2
  -2  -7  -1 2064.45 668.665   2
   2   7   2 12576.4 619.574   2
   2   7   3 31513.2 824.421   2
   2   7   4 16588.3 568.200   2
   2   7   5 2884.50 347.963   2
  -2  -7  -6 23272.2 907.683   2
   2   7   7 29618.6 967.967   2
   2   7   8 370.146 936.040   2
   2   7  12 1888.22 1027.20   2
   2   7  13 4336.23 1055.06   2
  -2  -7 -14 3511.92 1557.70   2
   2   8  -8 13234.8 2228.29   2
  -2  -8   7 8618.15 1360.21   2
  -2  -8   6 161.097 896.869   2
   2   8  -5 4021.17 920.127   2
   2   8  -4 21795.0 1760.83   2
  -2  -8  -1 1468.13 440.008   2
   2   8   2 9728.59 738.314   2
   2   8   3 31612.6 1208.75   2
   2   8   4 9590.25 578.955   2
  -2  -8  -5 1322.50 339.675   2
  -2  -8  -6 15986.4 819.074   2
   2   8  11 10894.9 1086.68   2
   2   8  12 1020.04 889.029   2
   2   8  13 1112.54 1479.10   2
  -2  -9   6 1103.30 1082.98   2
  -2  -9   5 5041.60 1510.71   2
  -2  -9   1 4099.64 1035.04   2
   2   9   0 11036.1 833.555   2
  -2  -9  -1 7197.70 697.401   2
   2   9   2-25.3054 479.052   2
   2   9   3 12403.5 777.025   2
   2   9   4 16872.6 893.087   2
   2   9   5 4627.98 567.183   2
   2   9   9 1985.50 1230.95   2
   2   9  10-88.7204 707.913   2
   2   9  11 7614.98 995.899   2
   2   9  12 18096.4 1833.72   2
  -2  -9 -13 480.372 1717.25   2
  -2 -10   2 1648.26 1278.24   2
  -2 -10   1 386.207 665.648   2
   2  10   0 3063.08 592.200   2
   2  10   1 7552.53 766.058   2
   2  10   2 4506.94 652.582   2
   2  10   3 2476.09 507.855   2
   2  10   4 8731.03 753.377   2
   2  10   8 20892.1 1462.76   2
  -2 -10  -9 13358.4 1120.44   2
   2  10  10 389.807 838.645   2
   2  10  11 3906.65 936.843   2
   2  11  -3 1594.28 1071.53   2
   2  11  -2 5309.61 957.115   2
   2  11  -1 5622.58 972.009   2
   2  11   0-284.318 759.275   2
   2  11   1 8582.46 880.011   2
   2  11   2 7227.03 850.725   2
  -2 -11  -7 700.230 957.965   2
   2  11   8 10305.5 894.583   2
   2  11   9 14409.3 1161.39   2
   2  11  10 884.453 1070.71   2
   2  11  11 3713.96 1727.40   2
   2  12   0 745.192 903.796   2
   2  12   1 7805.26 1453.94   2
  -2 -12  -6 2832.16 746.419   2
  -2 -12  -7-325.146 689.514   2
   2  12   8 813.518 829.819   2
   3 -12  -4 4242.42 1629.42   2
   3 -12  -3 8284.71 1461.42   2
   3 -12  -2 3655.92 1219.11   2
   3 -11  -8 3474.03 1648.56   2
   3 -11  -7 2070.61 1564.82   2
   3 -11  -6 11107.4 1271.04   2
   3 -11  -5 1918.57 861.844   2
   3 -11  -4 1960.32 828.230   2
   3 -11  -3 11231.8 1041.87   2
   3 -11  -2 4352.49 727.097   2
   3 -10  -8 1735.85 819.109   2
   3 -10  -7 635.568 758.522   2
   3 -10  -6 942.690 811.069   2
   3 -10  -5 4021.72 670.876   2
   3 -10  -4 1143.74 603.981   2
   3 -10  -3 1839.83 818.857   2
   3 -10   1 856.241 1230.15   2
   3 -10   2 2632.77 818.961   2
   3 -10   3 1146.54 822.481   2
  -3  10  -4 1814.63 1076.38   2
   3 -10   5 64.7285 1426.23   2
   3  -9  -9-30.2745 991.908   2
   3  -9  -8 1340.11 1049.94   2
   3  -9  -7 575.692 607.562   2
   3  -9  -6 1550.06 592.585   2
   3  -9  -5 1091.69 553.264   2
   3  -9  -4 1705.62 591.455   2
   3  -9   0 2640.00 528.546   2
   3  -9   1-4.74722 502.738   2
  -3   9  -2 5005.92 736.988   2
   3  -9   3 8379.12 1024.30   2
   3  -9   4 1288.68 934.152   2
  -3   9  -5 4353.94 1066.64   2
   3  -9   6 6110.53 1797.23   2
   3  -8 -11 1751.34 1167.04   2
   3  -8 -10 6297.51 1253.67   2
   3  -8  -9 628.154 744.802   2
   3  -8  -8 3240.52 761.388   2
   3  -8  -7 10646.3 920.420   2
   3  -8  -6 2926.47 514.986   2
  -3   8   5 892.548 660.871   2
   3  -8  -1 11746.0 772.750   2
   3  -8   0 14390.9 833.946   2
   3  -8   1 2060.10 451.602   2
   3  -8   2 4486.14 651.381   2
   3  -8   3 17128.1 1238.57   2
   3  -8   4 10551.8 1032.10   2
   3  -7 -11 5429.36 1001.23   2
   3  -7 -10 12739.6 1077.99   2
   3  -7  -9 5903.06 751.373   2
  -3   7   8 322.535 450.389   2
  -3   7   7 12995.6 793.216   2
   3  -7  -3 10769.0 1486.43   2
   3  -7  -2 2037.68 339.559   2
   3  -7  -1 366.660 272.524   2
   3  -7   0 9718.54 498.628   2
   3  -7   1 2228.00 411.187   2
  -3   7  -2 508.206 385.917   2
  -3   7  -3 391.471 531.996   2
  -3   7  -8 1093.98 998.846   2
  -3   7  -9 148.056 761.871   2
   3  -6 -11 2434.65 694.674   2
   3  -6 -10 6494.81 801.453   2
  -3   6   9 4290.56 560.504   2
   3  -6  -8-189.884 431.756   2
  -3   6   4 116.932 302.195   2
   3  -6  -3 3123.33 435.044   2
   3  -6  -2 8215.74 588.809   2
  -3   6   1 4481.56 368.944   2
   3  -6   0 1862.90 321.745   2
   3  -6   1 2962.61 355.776   2
   3  -6   2 6731.46 556.978   2
   3  -6   6 5299.72 956.843   2
   3  -6   7 121.643 650.525   2
  -3   6  -8 3473.80 681.109   2
   3  -6   9 5038.13 811.750   2
   3  -6  10-40.2150 870.156   2
   3  -5 -13 7090.86 1903.69   2
   3  -5 -12 4198.18 1510.42   2
   3  -5 -11 477.681 739.072   2
   3  -5 -10 3408.91 561.868   2
   3  -5  -9 11765.0 786.742   2
  -3   5   5 15330.9 696.674   2
  -3   5   4 8021.55 507.634   2
   3  -5  -3 468.739 206.444   2
   3  -5  -2 20463.4 501.263   2
   3  -5  -1 36935.4 954.637   2
   3  -5   0 14005.7 572.058   2
   3  -5   1 16286.6 610.451   2
  -3   5  -2 18461.4 858.587   2
   3  -5   5 10992.4 637.688   2
   3  -5   6 11696.9 947.567   2
   3  -5   7 1358.95 583.559   2
  -3   5  -8 3405.66 610.560   2
   3  -5   9 6936.15 808.769   2
   3  -5  10 1965.43 827.890   2
   3  -5  11-500.756 907.756   2
   3  -4 -13 1506.29 1621.37   2
   3  -4 -12 11399.9 1470.25   2
   3  -4 -11 5170.36 716.485   2
   3  -4 -10 1080.14 582.403   2
  -3   4   6 17135.1 836.603   2
  -3   4   5 42510.6 1188.90   2
  -3   4   4 32037.5 867.598   2
   3  -4  -3 94.8380 143.109   2
   3  -4  -2 26052.8 658.773   2
   3  -4  -1 48560.8 783.733   2
   3  -4   0 22333.2 784.102   2
  -3   4  -1 15949.3 622.186   2
  -3   4  -3 22692.3 1347.48   2
   3  -4   4 290.354 234.452   2
  -3   4  -5 15572.9 576.627   2
   3  -4   6 13521.2 777.916   2
   3  -4   7 2000.82 418.662   2
  -3   4  -8 1668.27 514.794   2
   3  -4   9 4305.21 666.656   2
   3  -4  10 3025.00 812.615   2
   3  -3 -13 939.001 895.455   2
  -3   3  12 16878.5 1376.40   2
  -3   3   7 18676.2 927.525   2
  -3   3   6 2444.90 414.097   2
  -3   3   5 43646.2 1172.24   2
  -3   3   4 80580.1 1456.18   2
  -3   3   3 3014.90 287.585   2
   3  -3  -2 22288.8 526.517   2
   3  -3  -1 42629.1 757.355   2
   3  -3   2 30188.7 482.133   2
   3  -3   3 37321.6 725.856   2
   3  -3   4 6404.83 347.211   2
  -3   3  -5 22.0122 192.255   2
  -3   3  -6 10891.2 446.706   2
   3  -3   7 16718.8 776.811   2
   3  -3   8 3456.65 462.747   2
   3  -3   9 2178.72 1065.98   2
  -3   3 -13 218.822 1546.28   2
  -3   2  13 642.117 1069.29   2
  -3   2   9 4876.01 1325.91   2
   3  -2  -8 15474.0 1054.42   2
   3  -2  -7 15639.1 971.025   2
  -3   2   6 6392.78 543.595   2
  -3   2   5 4807.32 449.341   2
  -3   2   4 19062.0 714.200   2
  -3   2   3 28287.8 775.547   2
  -3   2   2 670.639 146.574   2
  -3   2  -1 34090.5 551.732   2
   3  -2   2 204.369 162.015   2
   3  -2   3 13638.6 389.950   2
  -3   2  -4 44259.9 701.179   2
  -3   2  -5 17355.8 475.302   2
  -3   2  -6 3324.31 256.492   2
  -3   2  -7 21389.4 703.951   2
   3  -2   8 50754.7 3046.97   2
  -3   2 -11 11547.9 1863.16   2
   3  -2  12 5115.25 907.063   2
  -3   2 -13 549.521 842.898   2
  -3   1  10 3700.03 1242.53   2
   3  -1  -9 1333.99 567.647   2
   3  -1  -8 1080.02 421.582   2
   3  -1  -7 7326.29 714.928   2
   3  -1  -6 7696.22 680.748   2
  -3   1   5 244.632 366.630   2
  -3   1   4 4582.54 455.782   2
  -3   1   0 39238.7 485.112   2
   3  -1   1 86769.9 620.797   2
   3  -1   2 15476.9 373.879   2
  -3   1  -3 29473.8 469.256   2
  -3   1  -4 107620. 851.085   2
  -3   1  -5 37949.8 595.787   2
  -3   1  -6 200.226 221.120   2
  -3   1 -10 6434.62 1311.35   2
   3  -1  11 18466.1 1331.54   2
  -3   1 -12 8950.69 1040.27   2
  -3   1 -13 1472.43 816.909   2
   3   0 -11 580.697 920.489   2
   3   0 -10 5803.86 1087.24   2
   3   0  -9 4946.30 622.496   2
   3   0  -8 18.9988 426.542   2
   3   0  -7 9350.39 685.906   2
   3   0  -6 15815.5 944.375   2
   3   0  -5 10937.5 472.137   2
  -3   0   1 1079.10 148.918   2
   3   0   0 63507.3 754.643   2
   3   0   1 150499. 947.939   2
  -3   0  -2 22730.3 437.879   2
   3   0   3 4348.11 287.416   2
  -3   0  -4 56751.1 1067.26   2
  -3   0  -5 55198.0 1147.70   2
  -3   0  -6 2154.63 593.745   2
  -3   0  -9 15515.7 879.776   2
  -3   0 -10 389.173 469.745   2
  -3   0 -11 9096.73 825.429   2
  -3   0 -12 7575.84 978.789   2
  -3   0 -13 3814.36 816.269   2
   3   1 -12 2824.43 1100.75   2
   3   1 -11 294.099 966.289   2
   3   1 -10 5550.49 1078.41   2
   3   1  -9 9427.27 907.141   2
   3   1  -8 1451.05 480.602   2
   3   1  -7 13246.3 818.128   2
   3   1  -6 21570.8 662.153   2
  -3  -1   2 75097.7 1039.57   2
   3   1  -1 594.781 231.072   2
  -3  -1   0 19471.7 346.620   2
  -3  -1  -1 51597.0 569.425   2
  -3  -1  -2 49724.2 620.750   2
  -3  -1  -3 38.0943 155.777   2
  -3  -1  -4 4471.45 268.094   2
  -3  -1  -5 28872.9 1626.43   2
  -3  -1  -8 4316.08 383.532   2
  -3  -1  -9 14459.1 828.200   2
  -3  -1 -10 9845.11 760.091   2
  -3  -1 -11 43.2103 515.196   2
  -3  -1 -12 7153.32 796.991   2
  -3  -1 -13 12896.7 1247.70   2
  -3  -2  12 3538.76 1407.63   2
   3   2 -11 1270.42 943.201   2
   3   2 -10 645.700 929.057   2
   3   2  -9 4519.71 737.447   2
   3   2  -8 1670.81 557.135   2
   3   2  -3 3621.55 301.117   2
  -3  -2   2 20237.7 571.004   2
   3   2  -1 10848.2 394.490   2
   3   2   0 5686.44 251.901   2
  -3  -2  -1 969.104 143.669   2
  -3  -2  -2 28868.2 462.564   2
  -3  -2  -3 2871.23 168.536   2
  -3  -2  -6 29754.6 968.612   2
  -3  -2  -7 14285.4 491.790   2
  -3  -2  -8 2112.25 316.909   2
  -3  -2  -9 7777.51 619.739   2
  -3  -2 -10 18293.1 955.723   2
  -3  -2 -11 3303.37 574.963   2
  -3  -2 -12 7412.48 907.630   2
   3   2  13 16473.1 2372.01   2
   3   3 -11 759.242 1110.87   2
  -3  -3  10 702.333 951.815   2
   3   3  -9-72.9864 639.376   2
   3   3  -4 12656.6 622.463   2
   3   3  -3 13855.7 472.783   2
   3   3  -2 1167.51 207.968   2
   3   3  -1 33502.9 648.338   2
   3   3   0 11704.7 317.306   2
  -3  -3  -1 78.9538 135.707   2
   3   3   2 9724.72 284.508   2
  -3  -3  -5 1780.52 168.966   2
  -3  -3  -6 32172.0 634.119   2
  -3  -3  -7 20157.5 597.115   2
  -3  -3  -8 433.756 283.556   2
  -3  -3  -9 22348.0 822.214   2
  -3  -3 -10 20565.4 1216.30   2
  -3  -3 -11 4216.38 701.299   2
   3   4 -10 7124.35 1088.63   2
  -3  -4   6 12931.0 1211.13   2
   3   4  -5 487.635 435.111   2
   3   4  -4 6126.34 493.301   2
   3   4  -3 16192.6 680.140   2
   3   4  -2 2530.60 323.316   2
   3   4  -1 15562.3 504.223   2
   3   4   0 40961.5 622.956   2
   3   4   1 5057.21 474.608   2
   3   4   4 562.202 171.707   2
  -3  -4  -5 406.387 159.962   2
  -3  -4  -6 25374.7 552.071   2
  -3  -4  -7 20641.8 600.887   2
  -3  -4  -8 2560.86 368.794   2
  -3  -4  -9 3364.55 500.532   2
  -3  -4 -10 8495.57 1028.67   2
  -3  -5   7 4780.87 884.326   2
   3   5  -6 18052.0 1073.19   2
   3   5  -5 351.687 405.976   2
   3   5  -4 3688.73 505.319   2
   3   5  -3 5859.00 540.440   2
   3   5  -2 2498.58 294.023   2
   3   5  -1 376.390 222.463   2
  -3  -5   0 6846.14 465.372   2
  -3  -5  -2 3001.57 759.533   2
  -3  -5  -3 3144.40 207.403   2
  -3  -5  -4 13928.4 516.906   2
  -3  -5  -5 3598.14 292.726   2
   3   5   6-45.1585 271.844   2
   3   5   7 2375.44 350.991   2
  -3  -5  -8 3876.48 434.044   2
  -3  -5  -9 4038.78 579.234   2
   3   5  13 2081.07 1198.09   2
   3   5  14 1249.20 1090.39   2
  -3  -6   8 1540.71 910.591   2
   3   6  -7-113.987 612.816   2
   3   6  -6 1912.58 545.147   2
   3   6  -5 9709.09 801.469   2
   3   6  -4 681.743 456.885   2
   3   6  -3 1126.85 415.944   2
   3   6  -2 4201.44 517.637   2
  -3  -6  -2 12815.7 598.913   2
   3   6   3 15218.3 478.568   2
   3   6   4 937.384 257.063   2
   3   6   5 9076.86 476.805   2
  -3  -6  -6 28860.6 956.720   2
   3   6   7 405.558 335.686   2
   3   6   8 7482.43 909.873   2
   3   6  12 5853.91 1607.94   2
   3   6  13 4872.10 1007.45   2
  -3  -6 -14-313.400 1451.12   2
  -3  -7   9 2932.53 1747.17   2
   3   7  -8 4825.15 844.878   2
   3   7  -7 955.324 637.780   2
   3   7  -6-311.470 577.696   2
   3   7  -5 17132.7 1062.81   2
   3   7  -4 11565.7 891.084   2
  -3  -7   3 3760.70 1129.39   2
   3   7   1 1968.30 393.512   2
   3   7   2 24160.7 865.828   2
   3   7   3 13259.9 604.688   2
  -3  -7  -4 1341.29 306.558   2
   3   7   5 4644.18 407.470   2
  -3  -7  -6 14795.8 748.053   2
   3   7   7 3988.53 791.815   2
   3   7  11 1529.91 734.940   2
   3   7  12 2495.67 797.946   2
   3   7  13 580.739 1021.88   2
  -3  -7 -14-922.968 1630.67   2
  -3  -8   7 2730.23 1036.47   2
   3   8  -6 837.828 924.030   2
  -3  -8   5 6266.39 1109.44   2
  -3  -8   1 32080.9 1586.35   2
   3   8   0 6719.53 625.857   2
   3   8   1 324.471 362.688   2
   3   8   2 19884.9 849.516   2
   3   8   3 9734.11 625.320   2
  -3  -8  -4-92.5590 335.834   2
   3   8   5 5036.59 465.994   2
   3   8  10 1934.59 667.703   2
   3   8  11 1721.42 700.949   2
   3   8  12 360.046 774.372   2
  -3  -9   6-429.704 1332.39   2
   3   9  -1 8258.19 788.869   2
  -3  -9   0 7905.32 742.234   2
  -3  -9  -1 1689.99 492.180   2
  -3  -9  -2 102.395 471.213   2
   3   9   3 11553.1 863.682   2
   3   9   4 10699.6 967.338   2
   3   9   8 4533.51 672.447   2
   3   9   9 449.909 604.856   2
   3   9  10 1103.96 743.060   2
   3   9  11 13633.4 1579.48   2
   3   9  12 3157.90 1074.06   2
  -3  -9 -13 45.1706 1666.64   2
  -3 -10   3 18607.9 2649.27   2
  -3 -10   2 3282.28 834.343   2
   3  10  -1 196.650 661.769   2
  -3 -10   0 14089.6 1009.39   2
  -3 -10  -1 5496.35 716.708   2
  -3 -10  -2 10045.0 873.614   2
  -3 -10  -3 2084.96 666.232   2
  -3 -10  -7 9151.27 976.706   2
   3  10   8 21294.7 1153.45   2
   3  10   9 2751.94 640.754   2
   3  10  10 1905.46 767.559   2
   3  10  11 7705.96 1409.47   2
   3  11  -3 6029.92 1790.20   2
  -3 -11   2 13224.0 1376.55   2
  -3 -11   1 2809.13 845.959   2
   3  11   0 6947.54 1011.44   2
   3  11   1 20680.9 1447.65   2
  -3 -11  -6 1353.90 663.031   2
  -3 -11  -7 6524.86 866.835   2
   3  11   8 13800.3 1022.52   2
   3  11   9 8589.87 877.960   2
   3  11  10-233.629 861.075   2
   3  12   0 1741.49 1050.12   2
  -3 -12  -5 11044.8 1515.29   2
  -3 -12  -6 1352.20 766.848   2
  -3 -12  -7 144.633 739.735   2
   3  12   8 4244.77 1767.07   2
   4 -11  -5-877.015 1086.12   2
   4 -11  -4 11160.4 1064.64   2
   4 -11  -3 13797.0 1638.11   2
   4 -11   1 8024.00 2143.14   2
   4 -11   2 1739.02 1556.49   2
   4 -10  -7 3339.89 1087.95   2
   4 -10  -6 5382.21 803.979   2
   4 -10  -5 1276.87 666.649   2
   4 -10  -4 1698.51 944.562   2
   4 -10   0 357.450 747.722   2
   4 -10   1 4825.50 812.118   2
   4 -10   2 4929.53 951.774   2
  -4  10  -3-368.381 788.406   2
   4 -10   4 507.501 1050.15   2
   4  -9  -9 1956.25 1697.19   2
   4  -9  -8 344.793 817.771   2
   4  -9  -7 622.935 659.046   2
   4  -9  -6 5890.68 766.335   2
   4  -9  -5 3621.72 1318.47   2
   4  -9  -1 7816.80 882.164   2
   4  -9   0 31.3677 508.398   2
   4  -9   1 9726.94 897.468   2
   4  -9   2 14436.3 1093.35   2
   4  -9   3 7044.30 977.126   2
   4  -9   4 5724.58 969.099   2
   4  -9   5 11510.1 2044.77   2
   4  -8 -10-329.869 1012.45   2
   4  -8  -9 3050.61 845.786   2
   4  -8  -8 11135.0 1179.42   2
   4  -8  -7 1031.51 735.305   2
   4  -8  -2 13186.6 917.317   2
   4  -8  -1 19134.4 1056.06   2
   4  -8   0 2244.71 475.645   2
   4  -8   1 3693.69 534.551   2
   4  -8   2 19758.7 996.577   2
   4  -8   3 16282.5 1072.31   2
   4  -8   8 1913.41 1530.52   2
   4  -7 -11 6471.21 1056.46   2
   4  -7 -10 1733.49 685.303   2
   4  -7  -9 1568.67 662.376   2
   4  -7  -8 6297.74 784.413   2
   4  -7  -4 15797.4 1291.58   2
   4  -7  -3 107.594 425.060   2
   4  -7  -2 2497.78 481.946   2
   4  -7  -1 22575.0 1030.28   2
   4  -7   0 672.954 369.537   2
   4  -7   1 1368.63 468.712   2
   4  -7   2 8503.22 571.517   2
   4  -7   3 9892.05 1636.96   2
  -4   7  -7 6184.17 998.143   2
   4  -7   8-265.529 812.002   2
   4  -7   9 1906.46 1155.05   2
   4  -6 -12 185.438 1700.36   2
   4  -6 -11 641.046 873.850   2
   4  -6 -10 4712.18 768.167   2
   4  -6  -9 232.604 594.813   2
   4  -6  -5 183.361 806.523   2
   4  -6  -4 1846.46 435.215   2
   4  -6  -3 2796.10 365.091   2
   4  -6  -2 807.681 386.725   2
   4  -6  -1 1731.44 384.396   2
   4  -6   0 4400.87 490.292   2
  -4   6  -1 2909.79 458.567   2
   4  -6   2 1943.07 864.707   2
   4  -6   5 5050.09 1323.31   2
   4  -6   6-170.059 633.953   2
  -4   6  -7 7844.84 833.360   2
   4  -6   8 9409.06 943.434   2
   4  -6   9-200.886 692.692   2
  -4   6 -10 2244.66 961.788   2
   4  -5 -12 175.721 1516.71   2
   4  -5 -11-258.490 1014.63   2
   4  -5 -10 1898.60 763.019   2
   4  -5  -6 2703.39 447.180   2
   4  -5  -5 2631.39 355.556   2
  -4   5   4 1018.91 238.498   2
   4  -5  -3 1818.12 315.443   2
   4  -5  -2 4580.28 474.389   2
   4  -5  -1 8935.49 597.061   2
   4  -5   0 11245.6 654.400   2
   4  -5   4 8939.53 605.806   2
   4  -5   5 12081.1 647.374   2
   4  -5   6 309.929 448.026   2
  -4   5  -7 7021.28 735.661   2
  -4   5  -8 7597.52 794.780   2
   4  -5   9 1598.83 637.839   2
  -4   5 -10 966.116 818.875   2
   4  -4 -12 8748.56 1974.92   2
   4  -4 -11 23.8580 1005.65   2
  -4   4   7 88.6463 395.507   2
   4  -4  -6 9391.29 665.869   2
   4  -4  -5 8784.81 537.198   2
  -4   4   4 441.606 241.542   2
  -4   4   3 11892.7 467.710   2
  -4   4   2 18915.7 540.579   2
   4  -4  -1 7187.32 388.063   2
  -4   4  -2 12781.2 736.370   2
  -4   4  -3 98.7133 208.153   2
   4  -4   4 11991.2 505.109   2
  -4   4  -5 6835.95 509.003   2
   4  -4   6 1475.24 377.247   2
  -4   4  -7 3428.17 467.875   2
  -4   4  -8 4014.69 523.318   2
   4  -4   9 1044.79 695.470   2
   4  -3  -8 10159.2 898.792   2
  -4   3   7 510.259 399.816   2
  -4   3   6 11928.3 729.037   2
  -4   3   5 34419.4 1089.65   2
  -4   3   4 1975.03 290.854   2
  -4   3   3 1134.32 175.451   2
  -4   3   2 18294.2 509.101   2
  -4   3  -1 14250.1 512.416   2
   4  -3   2 2996.26 283.373   2
   4  -3   3 5281.01 304.587   2
  -4   3  -4 317.391 185.785   2
  -4   3  -5 550.292 201.504   2
   4  -3   6 2710.31 335.613   2
   4  -3   7 1181.86 387.589   2
  -4   3  -8 994.619 536.338   2
  -4   3 -11 3572.47 1382.33   2
  -4   3 -12 885.336 796.927   2
  -4   2  10 318.634 1231.28   2
   4  -2  -9 3513.46 721.593   2
   4  -2  -8 15381.2 1069.49   2
  -4   2   7 7595.10 763.142   2
   4  -2  -6-3.41729 395.593   2
  -4   2   5 11447.3 677.650   2
  -4   2   4 17002.9 643.502   2
   4  -2  -3 8889.73 1145.00   2
   4  -2   0 35671.6 605.108   2
  -4   2  -1 4657.48 246.349   2
   4  -2   2 61.4449 146.935   2
   4  -2   3 21327.0 532.264   2
   4  -2   4 16396.9 453.974   2
  -4   2  -5 86.6859 131.097   2
  -4   2  -6 1022.21 269.233   2
  -4   2  -7 25090.1 1302.53   2
  -4   2 -10 10261.7 1867.78   2
   4  -2  11 1566.44 737.220   2
   4  -2  12 1009.87 772.079   2
   4  -2  13 5000.69 958.619   2
  -4   1  11 10378.4 1959.84   2
   4  -1 -10 5083.79 857.697   2
   4  -1  -9-96.7673 582.601   2
   4  -1  -8 6463.84 761.595   2
   4  -1  -7 16860.3 1055.15   2
   4  -1  -6 17027.8 975.751   2
  -4   1   5 338.883 393.954   2
  -4   1   2 11411.6 541.585   2
   4  -1  -1 7587.44 338.224   2
   4  -1   0 62645.3 608.512   2
  -4   1  -1 57384.8 652.688   2
   4  -1   2 702.074 139.049   2
   4  -1   3 20260.2 469.877   2
  -4   1  -4 42459.8 912.528   2
  -4   1  -5 2856.70 323.649   2
  -4   1  -6 9520.52 804.995   2
   4  -1   9 963.638 575.606   2
   4  -1  10 12737.4 1043.75   2
   4  -1  11 3837.32 758.387   2
   4  -1  12 733.677 594.328   2
  -4   1 -13 1194.38 873.951   2
  -4   1 -14 2197.70 1571.98   2
  -4   0  12-754.781 1413.86   2
   4   0 -11 4425.83 983.216   2
   4   0 -10 18743.1 1378.46   2
   4   0  -9 3630.27 604.586   2
   4   0  -8 3091.41 541.312   2
   4   0  -7 23114.2 1229.50   2
   4   0  -6 23731.9 1152.28   2
  -4   0   2 32007.0 720.105   2
  -4   0   1 2062.06 236.259   2
  -4   0   0 47258.9 830.704   2
  -4   0  -1 51690.0 801.524   2
   4   0   2 95.9543 149.158   2
  -4   0  -3 26137.9 468.741   2
  -4   0  -4 47093.4 936.503   2
   4   0   8 19254.7 1100.36   2
   4   0   9 1377.86 566.350   2
  -4   0 -10 1935.61 592.113   2
   4   0  11 5863.48 884.026   2
   4   0  12 1992.46 726.012   2
   4   0  13 609.199 827.893   2
  -4   0 -14 862.066 1487.92   2
  -4  -1  12 478.914 1491.42   2
   4   1 -11 3644.39 1110.54   2
  -4  -1  10 18488.1 1689.91   2
   4   1  -9 9751.73 850.119   2
   4   1  -8 2346.59 534.438   2
   4   1  -7 24815.6 1124.09   2
   4   1  -3 57516.0 1079.43   2
   4   1  -2 5502.08 354.128   2
   4   1  -1 109.042 246.367   2
  -4  -1   0 14502.4 359.486   2
  -4  -1  -1 57609.8 635.157   2
  -4  -1  -2 29676.6 546.320   2
  -4  -1  -3 274.475 165.115   2
   4   1   4 15410.6 506.187   2
  -4  -1  -6 5446.05 887.186   2
   4   1   7 484.610 424.847   2
   4   1   8 12793.6 890.889   2
   4   1   9 15424.5 1051.83   2
   4   1  10 9221.10 903.123   2
  -4  -1 -11 792.369 603.887   2
   4   1  12 9215.01 1006.50   2
   4   1  13 5783.34 1140.16   2
   4   2 -11 4154.12 962.192   2
   4   2 -10 7216.94 1017.45   2
   4   2  -9 9166.68 1002.74   2
   4   2  -4 904.445 279.405   2
   4   2  -3 17870.9 634.048   2
  -4  -2   2 29756.0 862.530   2
   4   2  -1 12711.9 461.663   2
  -4  -2   0 160.606 150.054   2
  -4  -2  -1 11159.6 325.629   2
  -4  -2  -2 35472.1 662.970   2
  -4  -2  -5 48269.1 897.187   2
   4   2   6 68571.5 1003.33   2
  -4  -2  -7 5528.12 485.744   2
  -4  -2  -8 2915.10 413.651   2
   4   2   9 34362.6 1481.02   2
   4   2  10 15586.5 1104.11   2
   4   2  11-228.164 593.501   2
  -4  -2 -12 10866.3 1288.68   2
  -4  -3  11-1328.37 1450.26   2
   4   3 -10 1066.52 757.527   2
  -4  -3   6 7033.90 1305.40   2
   4   3  -5 11128.5 672.499   2
   4   3  -4 10601.4 616.972   2
   4   3  -3 1037.00 253.236   2
   4   3  -2 50213.0 911.073   2
   4   3  -1 41628.1 841.798   2
   4   3   0 5655.19 295.782   2
   4   3   1 20326.5 560.336   2
   4   3   4 1352.21 172.029   2
  -4  -3  -5 20256.0 439.070   2
  -4  -3  -6 51451.7 938.239   2
  -4  -3  -7 11501.3 529.526   2
  -4  -3  -8 2794.20 421.130   2
  -4  -3  -9 30912.2 1152.51   2
  -4  -3 -10 12577.9 1028.08   2
   4   3  11 1409.90 1006.86   2
  -4  -4   7 6173.67 981.658   2
   4   4  -6 4200.62 556.442   2
   4   4  -5 24527.3 979.076   2
   4   4  -4 12422.1 772.610   2
   4   4  -3 1149.41 343.287   2
   4   4  -2 15640.8 550.915   2
   4   4  -1 51116.6 915.854   2
   4   4   0 31653.1 1279.40   2
  -4  -4  -3 28110.4 763.307   2
  -4  -4  -4 3955.24 279.911   2
  -4  -4  -5 26823.9 586.612   2
  -4  -4  -6 25053.9 580.626   2
  -4  -4  -7 5968.14 401.403   2
   4   4   8 332.229 386.382   2
  -4  -4  -9 5651.67 605.922   2
  -4  -4 -13 4701.19 1345.62   2
   4   4  14 8584.10 2006.21   2
  -4  -5   8 7533.88 1249.64   2
   4   5  -7 10124.2 907.371   2
   4   5  -6-149.408 541.181   2
   4   5  -5 11459.5 836.978   2
   4   5  -4 15882.7 792.270   2
   4   5  -3 820.985 341.574   2
   4   5  -2 4501.74 420.873   2
   4   5   2 4959.48 284.497   2
   4   5   3 17796.9 545.928   2
  -4  -5  -4 10743.8 480.335   2
   4   5   5 224.647 207.568   2
   4   5   6 13627.0 588.304   2
  -4  -5  -7 21887.3 758.438   2
  -4  -5  -8 4829.67 474.482   2
   4   5  12 4757.97 1018.20   2
   4   5  13 318.130 736.370   2
   4   5  14 20909.1 1999.61   2
   4   6  -9 1032.58 862.034   2
   4   6  -8 146.258 694.631   2
   4   6  -7-46.1567 627.462   2
   4   6  -6 2277.24 609.614   2
   4   6  -5 14.0045 516.533   2
   4   6  -4 5726.37 658.152   2
  -4  -6   3 7434.03 1290.92   2
   4   6   1 11114.6 566.565   2
   4   6   2 771.494 349.516   2
   4   6   3 3526.55 356.910   2
  -4  -6  -4 9829.40 507.481   2
   4   6   5 31242.0 845.049   2
  -4  -6  -6 139.556 338.766   2
   4   6   7 19389.8 930.292   2
   4   6  11 25285.3 2633.90   2
   4   6  12 8655.65 1319.07   2
   4   6  13-311.974 947.416   2
  -4  -6 -14 4651.40 1710.03   2
   4   7  -8 1060.32 729.425   2
   4   7  -7 132.254 667.269   2
   4   7  -6 1824.19 621.342   2
   4   7  -5 6440.05 781.037   2
  -4  -7   1 3397.84 942.573   2
  -4  -7   0 599.135 422.020   2
  -4  -7  -1 21230.0 948.191   2
  -4  -7  -2 10632.7 696.712   2
  -4  -7  -3 1273.52 328.176   2
  -4  -7  -4 11227.7 582.048   2
   4   7   5 11304.1 597.798   2
   4   7   6 1092.22 628.686   2
   4   7  10 952.629 812.399   2
   4   7  11 13951.2 1195.34   2
   4   7  12 7799.59 1054.38   2
   4   7  13-262.994 1092.27   2
  -4  -7 -14 648.679 1751.95   2
   4   8  -7-59.7629 900.589   2
   4   8  -6 3392.65 809.355   2
  -4  -8   2 4601.35 1191.38   2
   4   8  -1 1063.59 457.680   2
   4   8   0-99.9132 417.966   2
   4   8   1 5066.87 573.977   2
   4   8   2 9402.45 647.264   2
   4   8   3 132.459 383.046   2
   4   8   4 10511.2 614.350   2
   4   8   5 4844.95 969.550   2
   4   8   8 5139.19 1323.19   2
   4   8   9 946.708 440.955   2
   4   8  10 588.281 689.875   2
   4   8  11 922.253 754.940   2
   4   8  12 3205.95 805.105   2
  -4  -8 -13 1621.81 1524.28   2
   4   9  -2 3727.77 887.075   2
   4   9  -1 2577.13 612.769   2
   4   9   0 784.911 598.876   2
   4   9   1 262.931 509.035   2
   4   9   2 320.698 496.684   2
  -4  -9  -3 2411.57 596.027   2
   4   9   7 3410.06 1162.03   2
   4   9   8 431.793 440.054   2
   4   9   9 1237.13 481.943   2
   4   9  10 4660.10 810.665   2
   4   9  11 179.110 804.334   2
   4   9  12-460.037 1107.74   2
  -4 -10   4 1507.82 1318.82   2
  -4 -10   3 4732.92 1140.25   2
  -4 -10   2-486.624 940.580   2
  -4 -10   1 3269.62 787.875   2
  -4 -10   0 3554.43 611.366   2
  -4 -10  -1 3271.50 688.304   2
  -4 -10  -2 329.353 649.180   2
  -4 -10  -6 1473.98 717.508   2
  -4 -10  -7 9045.30 894.707   2
   4  10   8 3157.52 618.663   2
   4  10   9 923.275 602.767   2
   4  10  10 6920.72 1054.97   2
   4  10  11 6033.36 1348.49   2
  -4 -11   2 6239.85 989.131   2
   4  11  -1 737.883 855.501   2
  -4 -11   0 16661.1 1445.41   2
  -4 -11  -5 2017.97 759.480   2
  -4 -11  -6 1267.38 656.990   2
  -4 -11  -7 4882.21 788.576   2
   4  11   8 3149.61 633.458   2
   4  11   9 88.8999 630.924   2
   4  11  10 2873.99 1518.14   2
  -4 -12  -4 5196.26 1190.94   2
  -4 -12  -5 2600.04 720.875   2
  -4 -12  -6-38.2103 753.196   2
  -4 -12  -7 1877.87 763.409   2
   4  12   8 1686.91 1674.29   2
   4  12   9-31.8194 1608.92   2
   5 -10  -7 3415.66 1698.45   2
   5 -10  -6 3521.59 1575.92   2
   5 -10  -5-480.025 1396.43   2
   5 -10  -1 1009.45 1191.61   2
   5 -10   0 3260.82 748.647   2
   5 -10   1 5943.79 1867.65   2
   5 -10   2 3250.38 1470.60   2
   5 -10   3 1260.65 1624.23   2
   5  -9  -9 4399.03 1677.02   2
   5  -9  -8 1865.02 1484.80   2
   5  -9  -7 3927.58 910.185   2
  -5   9   6 6050.82 1757.78   2
   5  -9  -2 11127.0 1280.13   2
   5  -9  -1 4708.13 773.665   2
   5  -9   0 352.354 598.601   2
   5  -9   1 11981.3 980.059   2
   5  -9   2 23250.9 1894.10   2
   5  -9   3 252.427 806.416   2
   5  -9   4 3639.59 1470.94   2
   5  -8  -9 6383.94 1263.24   2
   5  -8  -8 3282.78 869.212   2
  -5   8   3 9239.19 1225.74   2
   5  -8  -2 26027.3 1443.16   2
   5  -8  -1 8672.05 935.450   2
   5  -8   0 514.648 640.789   2
   5  -8   1 11896.1 811.013   2
   5  -8   2 22182.6 1071.52   2
   5  -8   3 3225.23 972.280   2
  -5   8  -6 4902.83 1830.20   2
   5  -8   7 701.074 1415.40   2
   5  -7 -10 3782.58 916.893   2
   5  -7  -9 13058.9 1140.58   2
   5  -7  -5 19330.8 2301.66   2
   5  -7  -4 7323.83 720.890   2
   5  -7  -3 3178.60 572.998   2
   5  -7  -2 34166.7 1313.20   2
   5  -7  -1 16018.1 920.681   2
   5  -7   0 906.873 480.590   2
   5  -7   1 5128.56 552.453   2
   5  -7   2 11414.0 1602.44   2
  -5   7  -6 9712.82 1136.54   2
  -5   7  -7 4694.54 904.126   2
  -5   7  -8-273.599 865.916   2
  -5   7  -9 4053.15 1194.11   2
   5  -6 -11 2771.51 1714.27   2
   5  -6 -10-106.706 712.539   2
   5  -6  -5 8521.85 911.969   2
   5  -6  -4 14584.0 892.816   2
   5  -6  -3 1940.26 472.738   2
   5  -6  -2 586.228 439.338   2
   5  -6  -1 14877.3 836.797   2
   5  -6   0 11127.8 737.171   2
   5  -6   1 983.135 808.260   2
   5  -6   4 9902.71 898.925   2
   5  -6   5-76.7264 638.147   2
  -5   6  -6 12060.6 1117.20   2
   5  -6   7 18434.6 1164.40   2
  -5   6  -8 2308.10 720.679   2
  -5   6  -9 273.037 694.598   2
   5  -6  10 20126.5 1935.31   2
   5  -5 -11 292.790 1025.81   2
   5  -5  -7 7364.88 887.347   2
   5  -5  -6 2076.98 633.428   2
   5  -5  -5 57.6047 548.742   2
   5  -5  -4 6143.17 581.949   2
   5  -5  -3 14344.6 800.845   2
   5  -5  -2 3266.86 467.430   2
   5  -5  -1 11168.5 701.478   2
   5  -5   3 27184.6 1023.29   2
   5  -5   4 21313.2 1009.98   2
  -5   5  -5 1962.19 413.870   2
  -5   5  -6 12972.1 894.527   2
   5  -5   7 26982.4 1288.08   2
   5  -5   8 10967.7 954.097   2
  -5   5  -9-454.451 977.860   2
   5  -5  10 9659.55 2080.01   2
   5  -4  -8 1419.82 657.326   2
   5  -4  -7 5245.34 672.914   2
   5  -4  -6 8087.05 734.336   2
   5  -4  -5 71.0239 386.811   2
   5  -4  -4 5057.01 530.862   2
   5  -4  -3 19647.5 726.972   2
  -5   4   2 3368.33 306.298   2
   5  -4   1 13161.7 1153.84   2
   5  -4   2 118.094 290.758   2
   5  -4   3 23177.9 798.845   2
   5  -4   4 27184.1 851.057   2
  -5   4  -5 6015.53 459.310   2
  -5   4  -6 1502.79 368.409   2
   5  -4   7 20267.1 930.222   2
  -5   4  -8 11084.8 873.907   2
  -5   4 -12 6308.58 2052.69   2
   5  -3  -9 3669.49 824.286   2
   5  -3  -8 181.362 656.753   2
   5  -3  -7 5322.61 771.081   2
   5  -3  -6 9298.25 759.923   2
   5  -3  -5-85.0092 418.911   2
   5  -3  -4 4570.26 517.224   2
   5  -3  -3 8394.16 1249.18   2
   5  -3   0 22419.9 690.686   2
  -5   3  -1 6821.36 318.577   2
   5  -3   2 939.766 215.364   2
   5  -3   3 632.519 193.533   2
   5  -3   4 17341.4 559.938   2
  -5   3  -5 5496.77 458.021   2
  -5   3  -6 2485.72 363.329   2
  -5   3  -7 1418.90 410.563   2
   5  -3  11 2114.96 780.114   2
  -5   3 -12 6984.66 1099.08   2
   5  -2 -10 949.831 775.022   2
   5  -2  -9 1225.81 759.454   2
   5  -2  -8 312.070 664.777   2
   5  -2  -7 181.602 578.284   2
   5  -2  -6 1978.35 549.189   2
  -5   2   5 6447.18 553.049   2
   5  -2  -4 1005.64 803.760   2
   5  -2  -1 2367.97 309.084   2
   5  -2   0 163.733 148.830   2
   5  -2   1 6281.10 290.201   2
   5  -2   2 10632.2 323.630   2
   5  -2   3 10048.1 349.165   2
   5  -2   4 179.860 173.454   2
  -5   2  -5 3815.95 389.406   2
  -5   2  -6 16597.4 911.236   2
  -5   2  -9 10039.4 1740.51   2
   5  -2  10 4333.48 680.770   2
   5  -2  11-230.862 588.374   2
  -5   2 -12 6030.90 956.029   2
   5  -1 -11 5243.31 1075.08   2
   5  -1 -10 729.538 786.749   2
   5  -1  -9-95.6197 717.453   2
   5  -1  -8 2500.21 720.447   2
   5  -1  -7 7752.98 703.847   2
  -5   1   6 2854.75 472.972   2
  -5   1   2 2257.75 232.947   2
  -5   1   1 32963.2 774.470   2
   5  -1   0 18418.0 608.205   2
   5  -1   1 672.788 215.803   2
   5  -1   2 15128.3 355.375   2
   5  -1   3 10638.7 427.765   2
   5  -1   4 3158.08 289.551   2
   5  -1   5 15407.7 939.860   2
  -5   1  -8 1648.21 426.686   2
   5  -1   9 10850.7 812.942   2
   5  -1  10 4472.41 652.998   2
   5  -1  11 1447.88 590.066   2
  -5   1 -12 6881.64 858.816   2
  -5   1 -13 4207.21 978.308   2
   5   0 -11 8217.59 1503.94   2
   5   0 -10 11316.7 1225.19   2
   5   0  -9-127.417 488.891   2
   5   0  -8 5643.90 610.220   2
   5   0  -7 13383.5 892.317   2
  -5   0   3 9419.69 488.529   2
   5   0  -2 152.377 300.995   2
  -5   0   1 14097.3 343.406   2
  -5   0   0 25162.1 693.448   2
   5   0   1 3257.33 190.837   2
   5   0   2 18357.5 458.350   2
  -5   0  -3 20955.3 453.989   2
   5   0   4 2054.67 647.783   2
  -5   0  -7 4166.86 458.173   2
   5   0   8 1002.02 435.954   2
  -5   0  -9 4825.94 684.263   2
   5   0  10 2729.27 634.384   2
   5   0  11 539.035 681.278   2
   5   0  12 224.009 797.067   2
  -5   0 -13 899.540 846.779   2
   5   1 -10 9874.73 1043.10   2
   5   1  -9 904.187 501.057   2
   5   1  -8 3964.25 642.184   2
   5   1  -4 22827.0 802.648   2
  -5  -1   3 10477.8 523.372   2
   5   1  -2 974.772 316.585   2
  -5  -1   1 460.253 164.076   2
  -5  -1   0 7549.61 416.806   2
  -5  -1  -1 10390.2 399.877   2
  -5  -1  -2 5895.83 296.854   2
  -5  -1  -5 5468.64 505.515   2
  -5  -1  -6 1416.29 327.841   2
   5   1   7 2696.20 418.368   2
   5   1   8 5224.69 669.766   2
   5   1   9 661.905 524.577   2
   5   1  10 345.775 617.902   2
  -5  -1 -11 5993.17 874.968   2
   5   1  12 3053.09 990.906   2
   5   2 -10 4199.76 907.395   2
   5   2  -9 4952.77 1560.02   2
   5   2  -5 8932.69 700.715   2
   5   2  -4 1147.87 306.950   2
   5   2  -3 22245.7 883.770   2
  -5  -2   2 20492.4 667.580   2
  -5  -2   1 6010.01 359.978   2
  -5  -2   0 464.761 182.526   2
  -5  -2  -1 9993.63 430.049   2
  -5  -2  -4 6590.86 380.074   2
  -5  -2  -5 32570.3 601.800   2
   5   2   6 11363.9 561.836   2
  -5  -2  -7 157.372 297.871   2
   5   2   8 29910.2 1338.09   2
   5   2   9 14197.1 1042.16   2
   5   2  10 190.246 603.281   2
   5   2  11 2580.26 1145.44   2
   5   3 -10 6381.07 1326.30   2
  -5  -3   7 56.2146 909.233   2
   5   3  -6 9226.22 717.245   2
   5   3  -5 15318.1 817.625   2
   5   3  -4 12611.1 803.517   2
   5   3  -3 4582.64 405.047   2
   5   3  -2 38032.6 922.053   2
   5   3  -1 40683.1 903.232   2
  -5  -3  -3 16595.0 592.944   2
  -5  -3  -4 11750.1 368.170   2
  -5  -3  -5 26590.1 527.663   2
  -5  -3  -6 22145.0 631.452   2
  -5  -3  -7 1402.75 309.232   2
  -5  -3  -8 5431.61 561.462   2
  -5  -3  -9 18607.3 957.599   2
   5   3  10 2996.10 1155.58   2
  -5  -3 -13 1515.09 1362.42   2
  -5  -3 -14 431.671 1052.84   2
  -5  -4   8 20696.4 1804.31   2
   5   4  -7 204.041 527.197   2
   5   4  -6 12299.9 823.491   2
   5   4  -5 26592.1 1209.73   2
   5   4  -4 4942.57 510.402   2
   5   4  -3 48.6266 333.358   2
   5   4  -2 24055.3 724.158   2
   5   4   2 26989.6 572.711   2
   5   4   3 29812.5 628.961   2
  -5  -4  -4 1492.88 277.148   2
  -5  -4  -5 16247.9 548.190   2
  -5  -4  -6 6879.57 361.952   2
   5   4   7 1020.60 315.326   2
  -5  -4  -8 496.296 397.922   2
  -5  -4 -12-386.470 1057.69   2
  -5  -4 -13 6022.16 1173.89   2
  -5  -4 -14 627.499 910.789   2
  -5  -5   9 7326.26 1351.91   2
   5   5  -8 14648.1 1175.91   2
   5   5  -7 2085.97 606.153   2
   5   5  -6 2556.30 631.299   2
   5   5  -5 23785.9 1047.72   2
   5   5  -4 9372.59 669.508   2
   5   5  -3 1244.05 388.103   2
   5   5   1 905.965 220.119   2
   5   5   2 17927.0 486.752   2
   5   5   3 9015.55 452.172   2
  -5  -5  -4 20538.0 681.852   2
  -5  -5  -5 2123.00 279.671   2
  -5  -5  -6 18470.5 642.625   2
  -5  -5  -7 17979.5 703.975   2
  -5  -5 -11 7531.94 864.012   2
   5   5  12 2298.46 727.713   2
   5   5  13 5615.29 914.588   2
  -5  -5 -14 5996.89 1672.19   2
   5   6  -8 3220.87 760.343   2
   5   6  -7 4828.92 782.687   2
   5   6  -6 417.479 600.890   2
   5   6  -5 3785.79 652.414   2
   5   6  -4 14157.2 1384.96   2
   5   6   0 33914.8 1010.78   2
   5   6   1 10149.6 567.514   2
  -5  -6  -2 5671.79 449.668   2
  -5  -6  -3 13792.2 679.703   2
  -5  -6  -4 41760.4 1017.82   2
  -5  -6  -5 7172.96 442.923   2
  -5  -6  -6 7771.32 880.599   2
  -5  -6 -10 17154.4 1511.36   2
  -5  -6 -11 18018.5 1142.09   2
  -5  -6 -12 2007.79 743.649   2
   5   6  13 1742.09 778.591   2
  -5  -6 -14 8160.03 1937.43   2
  -5  -7   8 884.827 1569.73   2
   5   7  -7 5938.70 832.892   2
   5   7  -6 2510.43 630.455   2
   5   7  -1 575.756 455.725   2
  -5  -7   0 32095.0 1241.28   2
  -5  -7  -1 39183.2 1320.12   2
  -5  -7  -2 1024.23 440.738   2
  -5  -7  -3 30162.2 1039.04   2
  -5  -7  -4 24437.8 872.783   2
   5   7   5 14988.7 1396.99   2
   5   7   9-95.5695 617.627   2
   5   7  10 6512.40 868.585   2
   5   7  11 16970.8 1298.58   2
   5   7  12 6210.07 951.957   2
   5   7  13 529.702 1038.06   2
  -5  -8   7 3634.32 1895.93   2
  -5  -8   2 3763.27 715.705   2
  -5  -8   1 753.112 602.602   2
  -5  -8   0 11030.5 832.153   2
  -5  -8  -1 16243.3 957.954   2
   5   8   2 5727.58 627.000   2
  -5  -8  -3 7846.81 642.200   2
   5   8   7 8057.08 1444.03   2
   5   8   8 8333.19 640.443   2
   5   8   9 6939.62 783.388   2
   5   8  10 672.630 627.420   2
   5   8  11 1731.37 749.042   2
   5   8  12 7136.54 1026.55   2
  -5  -8 -13 2294.79 1543.62   2
   5   9  -3 4618.35 1049.15   2
   5   9  -2 6178.11 1060.34   2
   5   9  -1-4.53006 642.161   2
   5   9   0 800.712 512.461   2
   5   9   1 2928.29 553.273   2
   5   9   2 1845.10 503.029   2
   5   9   6 5884.58 1326.20   2
  -5  -9  -7 315.899 473.801   2
   5   9   8 4767.62 570.738   2
   5   9   9 14111.2 960.706   2
   5   9  10 1417.61 671.821   2
   5   9  11 562.148 778.970   2
  -5 -10   4 3411.97 1576.34   2
   5  10  -3-758.500 1013.11   2
   5  10  -2 1771.40 910.201   2
   5  10  -1 2346.84 916.901   2
   5  10   0 1071.33 620.317   2
   5  10   1 1729.32 679.644   2
  -5 -10  -5 6462.28 1111.28   2
  -5 -10  -6 11386.0 869.289   2
  -5 -10  -7 3297.61 593.746   2
   5  10   8 1037.46 529.223   2
   5  10   9 10558.1 922.858   2
   5  10  10 18600.3 1535.55   2
  -5 -11   2-51.8467 1703.52   2
  -5 -11   1 7664.18 1135.08   2
  -5 -11  -4 3895.48 1056.65   2
  -5 -11  -5 2889.87 712.687   2
  -5 -11  -6 8093.24 930.925   2
  -5 -11  -7 3660.08 689.728   2
   5  11   8 133.539 610.518   2
   5  11   9 3670.73 703.993   2
  -5 -12  -3 368.439 986.122   2
  -5 -12  -4 1012.27 704.733   2
  -5 -12  -5-982.703 740.355   2
  -5 -12  -6 3031.19 863.381   2
  -5 -12  -7 1523.75 1007.95   2
   6 -10  -2 141.118 1369.28   2
   6 -10  -1 487.922 724.224   2
   6 -10   0 2109.93 1103.91   2
   6  -9  -7 2309.40 1640.58   2
   6  -9  -3 3922.20 821.868   2
   6  -9  -2 7050.44 1001.90   2
   6  -9  -1 828.192 742.193   2
   6  -9   0 1585.61 687.854   2
   6  -9   1 10221.4 1397.19   2
   6  -9   2 213.824 1375.94   2
  -6   8   4-26.6727 924.167   2
   6  -8  -3 5382.84 1054.77   2
   6  -8  -2 4267.58 946.278   2
   6  -8  -1 671.428 830.653   2
  -6   8   0 3277.01 773.019   2
  -6   8  -1 6367.23 910.265   2
  -6   8  -2 2869.79 1160.26   2
  -6   8  -5 4312.69 1547.93   2
  -6   8  -6 168.841 1588.26   2
   6  -7  -5 8164.81 964.853   2
   6  -7  -4-329.572 645.680   2
   6  -7  -3 11104.0 1042.42   2
   6  -7  -2 5389.18 785.799   2
   6  -7  -1 3264.78 658.630   2
   6  -7   0 406.195 535.716   2
  -6   7  -4 205.091 1340.47   2
  -6   7  -5 3158.73 1062.32   2
  -6   7  -6 4395.30 1125.73   2
  -6   7  -7 1133.92 1632.02   2
   6  -6  -6 4458.66 766.932   2
   6  -6  -5 9579.67 1002.65   2
   6  -6  -4 6149.25 829.892   2
   6  -6  -3-292.210 590.118   2
   6  -6  -2 9927.60 924.776   2
   6  -6  -1 11312.1 967.283   2
  -6   6  -3 17042.9 1196.04   2
  -6   6  -4 4140.94 769.244   2
  -6   6  -5 702.168 937.725   2
   6  -6   6 11174.0 1134.11   2
  -6   6  -7 3101.57 969.677   2
  -6   6  -8 2221.40 1176.60   2
   6  -5  -8 12445.7 1213.69   2
   6  -5  -7 6082.42 876.481   2
   6  -5  -6-16.3997 665.391   2
   6  -5  -5 7731.31 874.874   2
   6  -5  -4 25468.8 1407.12   2
   6  -5  -3 16200.9 1112.73   2
   6  -5  -2 7034.09 793.183   2
  -6   5  -2 10253.2 765.371   2
  -6   5  -3 31389.3 1480.35   2
   6  -5   4 9856.26 775.848   2
   6  -5   5 58.4130 491.900   2
   6  -5   6 15028.3 1433.12   2
   6  -5   7 15274.6 1531.62   2
  -6   5  -8 481.426 918.235   2
   6  -4  -9 841.103 757.475   2
   6  -4  -8 12406.7 1152.28   2
   6  -4  -7 19942.5 1345.57   2
   6  -4  -6 2407.17 543.257   2
   6  -4  -5 4969.08 621.380   2
   6  -4  -4 22143.6 1039.16   2
   6  -4  -3 21024.3 1213.58   2
  -6   4  -1 11039.2 711.841   2
  -6   4  -2 2119.26 438.986   2
   6  -4   3 22407.5 969.328   2
   6  -4   4 16350.1 869.474   2
   6  -4   5 240.652 431.525   2
  -6   4  -6 6623.48 780.003   2
   6  -4   7 15586.8 1444.91   2
   6  -3 -10 4535.93 1020.56   2
   6  -3  -9 242.152 777.043   2
   6  -3  -8 4279.05 776.829   2
   6  -3  -7 18387.9 1300.36   2
   6  -3  -6 3418.43 702.338   2
   6  -3  -5 2637.24 590.654   2
   6  -3  -4 16722.4 1364.72   2
  -6   3   1 12074.8 869.845   2
   6  -3   0 8122.56 460.240   2
  -6   3  -1 9952.47 458.957   2
   6  -3   2 638.236 274.942   2
   6  -3   3 8922.95 522.655   2
  -6   3  -4 19379.6 760.995   2
  -6   3  -5 12198.6 660.975   2
  -6   3  -6 57.3494 396.825   2
  -6   3  -9 2903.49 1299.20   2
  -6   3 -10 382.167 607.346   2
  -6   3 -11 8974.48 1073.27   2
   6  -3  12 12793.4 1668.47   2
   6  -2 -10 6292.40 1049.63   2
   6  -2  -9-157.020 800.244   2
   6  -2  -8 939.029 710.092   2
   6  -2  -7 4936.45 694.081   2
   6  -2  -6 11291.2 864.965   2
  -6   2   2 11810.2 1494.83   2
  -6   2   1 668.059 249.887   2
   6  -2   0 11289.4 506.358   2
  -6   2  -1 19210.3 606.895   2
  -6   2  -2 10595.7 467.648   2
  -6   2  -3 722.807 212.416   2
   6  -2   4 8800.37 421.689   2
   6  -2   5 45212.5 1392.79   2
  -6   2  -8 28672.3 1727.87   2
   6  -2   9 20236.1 1125.47   2
  -6   2 -10 3726.57 625.783   2
  -6   2 -11 9240.66 949.336   2
  -6   2 -12 12527.5 1302.68   2
   6  -1 -10 3105.39 911.034   2
   6  -1  -9 4159.54 871.032   2
   6  -1  -8 929.493 728.840   2
   6  -1  -7 713.211 666.116   2
  -6   1   3 5736.10 685.071   2
   6  -1  -2 15811.3 810.240   2
  -6   1   1 22439.5 716.913   2
   6  -1   0 2067.38 310.100   2
  -6   1  -1 28103.7 803.633   2
  -6   1  -2 33757.3 896.709   2
   6  -1   3 2270.87 207.297   2
   6  -1   4 16366.4 880.474   2
  -6   1  -7 149.669 410.069   2
  -6   1  -8 15563.0 817.809   2
  -6   1  -9 20108.6 957.030   2
   6  -1  10 4051.66 653.316   2
  -6   1 -11 2541.77 610.911   2
   6  -1  12 10104.1 975.981   2
   6  -1  13 4832.77 1155.46   2
   6   0 -10 147.017 884.156   2
   6   0  -9 5396.23 831.294   2
   6   0  -8 7275.74 983.776   2
   6   0  -4 4684.85 581.671   2
   6   0  -3 5928.29 585.100   2
   6   0  -2 11335.4 696.942   2
  -6   0   1 11982.3 543.484   2
  -6   0   0 363.738 267.773   2
  -6   0  -1 18159.6 614.023   2
   6   0   2 42235.0 698.401   2
  -6   0  -3 3278.84 829.767   2
  -6   0  -6 22254.2 751.636   2
  -6   0  -7 536.257 343.285   2
  -6   0  -8 4604.27 495.665   2
  -6   0  -9 5447.98 561.131   2
  -6   0 -10 2841.94 591.234   2
  -6   0 -11 462.880 557.636   2
  -6   0 -12 3783.88 710.838   2
   6   1 -10 778.140 989.471   2
   6   1  -9 228.637 836.890   2
   6   1  -5 11418.5 674.636   2
   6   1  -4 5404.52 473.242   2
   6   1  -3 202.393 389.194   2
   6   1  -2 14300.5 749.076   2
   6   1  -1 6031.26 504.315   2
  -6  -1   0 154.641 254.487   2
  -6  -1  -1 2341.41 295.423   2
   6   1   4 1468.93 375.633   2
   6   1   5 2081.12 237.615   2
  -6  -1  -6 6128.92 423.642   2
  -6  -1  -7 10396.9 632.881   2
  -6  -1  -8 144.755 368.572   2
  -6  -1  -9 5271.26 758.931   2
  -6  -1 -10 6552.31 837.193   2
   6   1  11 3318.24 941.655   2
   6   2  -6 1544.88 453.585   2
   6   2  -5 800.241 444.918   2
   6   2  -4 2662.56 500.040   2
   6   2  -3 6622.60 481.377   2
   6   2  -2 384.992 246.330   2
  -6  -2   1 3861.25 319.487   2
   6   2   0 12381.8 892.761   2
  -6  -2  -3 9235.34 682.998   2
  -6  -2  -4 11296.4 452.078   2
  -6  -2  -5 2090.08 249.759   2
   6   2   6 31.6980 222.443   2
  -6  -2  -7 32524.3 1180.13   2
  -6  -2  -8 13689.0 980.592   2
  -6  -2  -9 353.881 542.338   2
   6   2  10 12004.8 1229.76   2
  -6  -2 -14 7681.46 1958.70   2
   6   3  -7 1897.27 554.505   2
   6   3  -6 6425.18 654.614   2
   6   3  -5 3522.75 602.790   2
   6   3  -4 143.202 365.438   2
  -6  -3   3 8639.44 554.830   2
   6   3  -2 27450.9 845.572   2
   6   3  -1 3210.79 918.126   2
   6   3   2 16435.9 850.750   2
  -6  -3  -3 4330.89 296.625   2
  -6  -3  -4 27588.2 663.574   2
  -6  -3  -5 4370.83 305.021   2
  -6  -3  -6 450.290 299.897   2
  -6  -3  -7 4594.79 458.266   2
  -6  -3  -8 9463.64 837.598   2
  -6  -3 -12 1128.02 1294.20   2
   6   3  13 594.556 900.266   2
  -6  -3 -14 4738.37 1662.69   2
   6   4  -8 3168.53 750.975   2
   6   4  -7 674.471 676.602   2
   6   4  -6 11214.7 966.406   2
   6   4  -5 10459.1 747.308   2
   6   4  -4 207.465 414.495   2
   6   4  -3 5321.89 503.012   2
   6   4   1 4724.69 492.009   2
   6   4   2 6071.92 351.280   2
  -6  -4  -3 555.966 238.676   2
  -6  -4  -4 5595.38 387.161   2
   6   4   5 5843.33 365.316   2
   6   4   6 64.3326 305.009   2
   6   4   7 557.836 350.133   2
  -6  -4 -11-92.4110 803.830   2
  -6  -4 -12 2540.10 794.341   2
  -6  -4 -13 294.244 805.513   2
  -6  -4 -14-653.423 1501.87   2
   6   5  -8 3367.19 911.680   2
   6   5  -7-8.02655 826.183   2
   6   5  -6 4605.33 747.465   2
   6   5  -5 9738.96 770.275   2
   6   5  -4 2235.43 468.713   2
   6   5   0 227.852 314.154   2
   6   5   1 2248.11 268.516   2
  -6  -5  -2 26.2347 262.017   2
   6   5   3 6546.44 375.786   2
  -6  -5  -4 1977.85 342.679   2
  -6  -5  -5 2756.79 338.053   2
  -6  -5  -6 4180.45 368.898   2
  -6  -5 -10 6218.17 1034.17   2
  -6  -5 -11 788.436 687.590   2
   6   5  12 1689.18 760.113   2
  -6  -5 -13 3553.47 914.469   2
  -6  -5 -14 642.914 1447.89   2
   6   6  -7 971.007 874.368   2
   6   6  -6-511.728 780.560   2
   6   6  -5 2920.18 947.376   2
   6   6  -1 14510.2 844.607   2
  -6  -6   0 13396.2 948.364   2
  -6  -6  -1 628.898 427.796   2
  -6  -6  -2 5199.30 466.397   2
  -6  -6  -3 16465.8 685.213   2
  -6  -6  -4 7452.05 561.170   2
  -6  -6  -5 571.261 310.802   2
  -6  -6  -9 3073.62 557.516   2
  -6  -6 -10 12623.3 972.153   2
  -6  -6 -11 5003.68 711.942   2
   6   6  12 571.218 691.310   2
   6   6  13 7554.39 1060.12   2
  -6  -6 -14 3630.55 1620.45   2
   6   7  -7 12352.9 2377.02   2
   6   7  -2 899.836 529.090   2
  -6  -7   1 10913.0 942.033   2
  -6  -7   0 32332.9 1492.86   2
  -6  -7  -1 7188.20 752.551   2
  -6  -7  -2 10381.4 753.741   2
  -6  -7  -3 22882.8 1054.27   2
   6   7   4 24086.8 1982.92   2
   6   7   8 2327.25 546.105   2
   6   7   9 1103.30 536.113   2
   6   7  10 3845.06 759.262   2
   6   7  11 4914.14 839.757   2
   6   7  12 689.918 759.517   2
   6   7  13 1404.88 1020.07   2
   6   8  -3 17724.6 1360.08   2
  -6  -8   2-72.1300 720.634   2
  -6  -8   1 4366.38 776.631   2
  -6  -8   0 23295.6 1354.49   2
   6   8   1 11498.7 868.290   2
  -6  -8  -2 168.788 482.016   2
   6   8   3 10189.0 1607.34   2
   6   8   6 381.138 914.884   2
  -6  -8  -7 5354.93 599.605   2
   6   8   8 8408.22 756.444   2
   6   8   9-100.010 603.209   2
   6   8  10 39.8745 573.760   2
   6   8  11 1701.12 720.683   2
   6   8  12 5154.37 1182.70   2
  -6  -9   4 4190.65 1136.51   2
   6   9  -3 7840.31 1055.40   2
   6   9  -2 2118.00 795.785   2
   6   9  -1-257.712 673.333   2
   6   9   0 5988.11 883.586   2
   6   9   1 9985.05 863.674   2
  -6  -9  -6 4135.04 584.497   2
  -6  -9  -7 1281.30 514.271   2
   6   9   8 11105.5 831.036   2
   6   9   9 9980.24 871.957   2
   6   9  10 378.951 655.033   2
   6   9  11 3637.56 1121.34   2
  -6 -10   3 3667.97 1563.44   2
   6  10  -2 9518.77 1439.51   2
   6  10  -1 3927.43 1039.57   2
   6  10   0 750.041 1382.23   2
  -6 -10  -4 5685.34 1572.83   2
  -6 -10  -5 22714.9 1323.08   2
  -6 -10  -6 12045.5 907.689   2
  -6 -10  -7 175.724 557.656   2
   6  10   8 7805.87 826.837   2
   6  10   9 28258.8 1399.40   2
   6  10  10 3264.27 1656.36   2
  -6 -11  -3 4825.78 911.246   2
  -6 -11  -4 165.943 794.285   2
  -6 -11  -5 12277.0 1110.04   2
  -6 -11  -6 9588.72 1001.63   2
  -6 -11  -7 592.193 673.868   2
   6  11   8 2797.49 934.794   2
  -6 -11  -9 14261.0 2421.43   2
   6  12   2 7816.84 1395.02   2
  -6 -12  -3 2228.97 1116.87   2
  -6 -12  -4-881.710 1053.14   2
  -6 -12  -5 3594.42 1093.23   2
  -6 -12  -6 2928.53 1152.27   2
  -7  10   2 3138.28 1595.75   2
   7  -9  -4 4226.10 1628.64   2
   7  -9  -3 2379.45 1021.08   2
   7  -9  -2-651.782 800.311   2
   7  -9  -1 3629.54 909.687   2
   7  -9   0 8055.36 1480.75   2
   7  -9   1 527.605 1027.55   2
   7  -8  -5 1137.31 1019.96   2
   7  -8  -4 6105.57 1145.39   2
   7  -8  -3 2800.13 897.707   2
  -7   8   2 792.002 761.598   2
   7  -8  -1 2885.78 748.061   2
   7  -8   0 5542.21 1135.84   2
  -7   8  -4 1612.12 1579.12   2
  -7   8  -5-179.695 1690.45   2
   7  -7  -6 4388.93 853.038   2
   7  -7  -5-218.689 748.967   2
   7  -7  -4 4118.37 781.256   2
   7  -7  -3 1441.28 688.656   2
   7  -7  -2-136.844 574.135   2
   7  -7  -1-53.4488 577.849   2
  -7   7  -3 250.886 796.462   2
  -7   7  -4 295.863 1064.06   2
  -7   7  -5 1294.58 1083.69   2
   7  -7   6 328.859 1153.58   2
   7  -6  -7 546.548 720.659   2
   7  -6  -6 1012.67 751.499   2
   7  -6  -5 2411.52 688.167   2
   7  -6  -4 863.500 619.224   2
   7  -6  -3 2013.95 642.868   2
   7  -6  -2 548.691 542.545   2
  -7   6  -2 3535.08 851.064   2
   7  -6   3 461.501 693.388   2
  -7   6  -4 871.245 717.739   2
  -7   6  -5 4663.84 1186.83   2
   7  -6   6 4495.84 1160.84   2
   7  -6   7-576.635 1199.28   2
   7  -6   8 5691.95 1314.16   2
   7  -5  -9 5443.46 1779.17   2
   7  -5  -8 6336.29 1247.56   2
   7  -5  -7 2154.26 920.318   2
   7  -5  -6 327.505 702.444   2
   7  -5  -5 8529.59 972.877   2
   7  -5  -4 12404.7 1092.86   2
   7  -5  -3 517.512 529.387   2
  -7   5  -1 3833.88 583.876   2
  -7   5  -2 12820.3 1055.20   2
   7  -5   3 6081.68 817.738   2
  -7   5  -4-100.279 639.316   2
   7  -5   5 3143.32 685.324   2
   7  -5   6 7241.03 1237.54   2
   7  -5   7-519.038 993.844   2
   7  -4  -9 1130.00 1010.39   2
   7  -4  -8 20150.4 1546.62   2
   7  -4  -7 7791.38 1245.45   2
   7  -4  -6-120.944 849.537   2
   7  -4  -5 7142.07 944.672   2
   7  -4  -4 11513.6 901.781   2
   7  -4   0 7305.11 675.820   2
   7  -4   1 564.365 382.985   2
  -7   4  -2 8323.14 833.542   2
   7  -4   3 9454.87 903.510   2
   7  -4   4 95.2506 598.525   2
  -7   4  -5 3318.71 673.436   2
  -7   4  -6 3012.63 735.493   2
  -7   4 -10 255.729 1638.30   2
  -7   3  10 2412.13 1625.36   2
   7  -3  -9 657.746 811.621   2
   7  -3  -8 7265.75 916.112   2
   7  -3  -7 12332.0 1010.53   2
   7  -3  -6 203.847 588.490   2
   7  -3  -5 3118.44 810.246   2
   7  -3  -2 189.515 956.430   2
   7  -3  -1 8912.57 608.762   2
   7  -3   0 7346.77 539.380   2
   7  -3   1 4584.16 404.992   2
   7  -3   2-20.2252 355.577   2
   7  -3   3 3361.71 615.742   2
   7  -3   4 17784.6 1105.32   2
   7  -3   5 1931.61 703.570   2
  -7   3  -9 917.126 882.822   2
   7  -3  10 3217.30 928.485   2
  -7   3 -11 2304.92 1565.96   2
  -7   2  10 5348.63 1824.96   2
   7  -2  -9 835.092 828.450   2
   7  -2  -8 1954.21 754.537   2
   7  -2  -7 10194.0 929.718   2
  -7   2   3 15968.8 1898.10   2
   7  -2  -2 20207.6 982.198   2
   7  -2  -1 219.350 413.547   2
   7  -2   0 16188.7 708.724   2
   7  -2   1 19106.2 779.639   2
  -7   2  -2 8161.43 527.787   2
  -7   2  -3 529.616 395.072   2
  -7   2  -4 24889.5 1430.81   2
  -7   2  -7 7000.49 1097.05   2
  -7   2  -8 20496.1 1135.09   2
  -7   2  -9 7681.92 981.361   2
  -7   2 -10 3134.19 784.820   2
  -7   2 -11 13003.7 1261.83   2
  -7   2 -12 3962.25 1143.07   2
   7  -1  -9 3767.66 889.075   2
   7  -1  -8 325.588 769.049   2
  -7   1   4 3160.77 839.180   2
   7  -1  -3 17729.8 978.472   2
   7  -1  -2 29539.7 1172.63   2
   7  -1  -1 9910.01 705.340   2
  -7   1   0 11924.1 611.352   2
   7  -1   1 46400.8 1154.74   2
  -7   1  -2 27890.3 897.247   2
  -7   1  -3 1068.24 698.376   2
   7  -1   6 1900.46 441.473   2
  -7   1  -7 4326.67 550.337   2
  -7   1  -8 14761.7 835.905   2
  -7   1  -9 13311.8 835.452   2
  -7   1 -10 1276.27 582.129   2
   7  -1  11 4778.84 814.607   2
   7  -1  12 9614.93 1020.41   2
   7  -1  13 1021.28 1642.26   2
   7   0  -9 11751.2 1104.75   2
   7   0  -5 12298.1 907.601   2
   7   0  -4 1084.86 490.036   2
   7   0  -3 23180.3 1088.77   2
   7   0  -2 22312.0 1024.31   2
   7   0  -1 9843.44 682.012   2
  -7   0   0 1143.78 321.514   2
  -7   0  -1 21090.1 884.212   2
  -7   0  -5 24612.9 934.034   2
  -7   0  -6 9410.79 548.635   2
   7   0   7 689.166 329.793   2
   7   0   8 3663.34 454.240   2
  -7   0  -9 4590.26 573.038   2
  -7   0 -10 3907.96 651.007   2
  -7   0 -11 251.634 632.885   2
   7   1  -6 10652.2 1063.54   2
   7   1  -5 14303.0 1154.30   2
   7   1  -4 2809.17 520.679   2
   7   1  -3 6253.00 639.857   2
   7   1  -2 21241.1 987.606   2
   7   1  -1 3167.90 448.664   2
   7   1   0 37.4909 537.780   2
  -7  -1  -4 761.726 243.483   2
  -7  -1  -5 1114.48 291.542   2
  -7  -1  -6 30055.3 885.087   2
  -7  -1  -7 6577.73 558.283   2
  -7  -1  -8 2052.69 418.954   2
   7   1   9 11309.2 772.899   2
   7   1  10 13426.6 1127.93   2
   7   2  -7 1408.64 656.670   2
   7   2  -6 1016.22 557.278   2
   7   2  -5 7607.18 919.401   2
   7   2  -4 2268.26 640.053   2
   7   2  -3 1668.29 459.984   2
   7   2  -2 5082.78 569.661   2
   7   2  -1 20313.3 1886.93   2
  -7  -2  -3 34738.8 794.495   2
  -7  -2  -4 4129.70 333.239   2
  -7  -2  -5 1714.18 269.164   2
  -7  -2  -6 25520.1 948.522   2
  -7  -2  -7 34639.7 1134.57   2
  -7  -2  -8 2195.39 422.986   2
  -7  -2  -9 9046.13 796.005   2
  -7  -2 -13 12002.3 1485.60   2
   7   3  -8 2607.62 723.488   2
   7   3  -7 6104.82 870.013   2
   7   3  -6 1421.29 630.263   2
   7   3  -5 982.434 595.965   2
   7   3  -4 8422.07 927.735   2
   7   3  -3 8556.07 713.042   2
   7   3   1 15076.3 1560.93   2
  -7  -3  -2 7670.79 498.445   2
  -7  -3  -3 45284.8 1022.88   2
  -7  -3  -4 27294.1 847.814   2
  -7  -3  -5 2359.44 326.132   2
  -7  -3  -6 14548.1 667.249   2
  -7  -3  -7 31055.5 967.511   2
   7   3   8 7906.89 1299.64   2
  -7  -3 -11 9950.70 1892.62   2
  -7  -3 -12 55.6658 778.876   2
  -7  -3 -13 3918.22 860.614   2
   7   4  -8 157.522 933.719   2
   7   4  -7 4929.05 798.275   2
   7   4  -6 2798.27 665.513   2
   7   4  -5 369.945 590.251   2
   7   4  -4 11043.7 911.573   2
   7   4   1 3479.36 486.288   2
  -7  -4  -2 176.196 346.516   2
  -7  -4  -3 11747.4 655.006   2
  -7  -4  -4 17392.4 821.328   2
  -7  -4  -5 1766.08 353.826   2
  -7  -4  -6 3197.76 442.068   2
  -7  -4 -10 942.269 1165.87   2
  -7  -4 -11 12079.1 1130.50   2
  -7  -4 -12 973.629 751.302   2
  -7  -4 -13 294.773 797.885   2
   7   5  -7 1344.35 916.935   2
   7   5  -6 1063.16 777.170   2
   7   5  -5 738.628 607.334   2
  -7  -5   1 63.8542 433.920   2
   7   5   0 5538.05 506.238   2
   7   5   1 21.6405 409.197   2
   7   5   2 3990.89 429.148   2
  -7  -5  -3 134.848 268.304   2
  -7  -5  -4 1350.93 293.145   2
  -7  -5  -5 4561.45 493.006   2
  -7  -5  -9 8675.79 1095.71   2
  -7  -5 -10 760.991 550.960   2
   7   5  11 6513.61 932.958   2
  -7  -5 -12 7688.78 1023.41   2
   7   5  13 2125.96 822.499   2
   7   6  -6 976.571 1494.38   2
   7   6  -2 1947.19 646.359   2
  -7  -6   1 4843.83 959.955   2
  -7  -6   0 1393.25 700.878   2
  -7  -6  -1 956.392 689.843   2
  -7  -6  -2 7351.03 718.758   2
  -7  -6  -3 3415.26 451.424   2
   7   6   4 228.188 476.536   2
   7   6   8 7074.49 726.469   2
  -7  -6  -9 11676.2 805.322   2
  -7  -6 -10 3017.02 642.979   2
   7   6  11 1016.76 636.302   2
  -7  -6 -12 22208.0 1579.04   2
  -7  -6 -13 3874.74 1014.09   2
  -7  -7   3 2336.28 874.000   2
   7   7  -2 3400.52 894.412   2
  -7  -7   1 11215.7 1318.55   2
  -7  -7   0 5515.41 1017.23   2
  -7  -7  -1 2885.51 800.906   2
  -7  -7  -2 3907.78 663.381   2
   7   7   3 7816.25 1466.74   2
   7   7   7 1460.33 523.845   2
   7   7   8 3464.52 623.979   2
   7   7   9 5417.84 715.984   2
   7   7  10 3146.66 639.431   2
   7   7  11 620.432 708.947   2
   7   7  12 5554.66 999.672   2
   7   8  -4 7762.62 1242.05   2
  -7  -8   3 4285.84 1150.09   2
   7   8  -2-744.774 940.447   2
   7   8  -1 5448.79 1106.45   2
  -7  -8   0 4037.53 993.533   2
  -7  -8  -1 363.393 626.895   2
  -7  -8  -6 180.233 458.653   2
   7   8   7 3131.04 527.153   2
   7   8   8 879.912 479.904   2
   7   8   9-71.1678 628.075   2
   7   8  10 645.138 643.476   2
   7   8  11 1452.52 947.791   2
  -7  -9   3 1032.99 1409.68   2
   7   9  -2 633.865 971.231   2
   7   9  -1 583.261 960.191   2
   7   9   0 1351.90 916.702   2
  -7  -9  -1 4095.75 1436.62   2
  -7  -9  -5 2027.74 585.458   2
  -7  -9  -6-49.6589 492.690   2
  -7  -9  -7 3433.86 682.897   2
   7   9   8 6257.36 695.763   2
   7   9   9 376.630 650.565   2
   7   9  10-513.985 980.710   2
   7  10  -1 2247.38 1390.38   2
   7  10   3 283.001 896.433   2
  -7 -10  -4 10735.2 1006.48   2
  -7 -10  -5 13926.9 1113.33   2
  -7 -10  -6 1905.87 648.475   2
  -7 -10  -7 1593.55 693.506   2
   7  10   8 20547.7 1354.67   2
   7  10   9 1811.42 787.240   2
   7  11   2 10312.1 1451.66   2
  -7 -11  -3 1198.97 724.726   2
  -7 -11  -4 3996.54 858.451   2
  -7 -11  -5 10897.9 1052.48   2
  -7 -11  -6 3518.39 707.684   2
  -7 -11  -7 141.733 1010.78   2
  -8   8   4 8910.08 1951.25   2
   8  -8  -3 567.257 867.731   2
   8  -8  -2 3201.49 839.248   2
   8  -8  -1 10447.3 1532.57   2
  -8   8  -4 2171.21 2096.69   2
   8  -7  -6 473.673 1473.90   2
   8  -7  -5 4813.16 823.087   2
   8  -7  -4 6704.20 884.501   2
   8  -7  -3 614.444 723.755   2
   8  -7  -2 1004.99 661.695   2
  -8   7  -2 526.334 1260.75   2
   8  -7   3 4175.93 714.785   2
   8  -7   4 5495.47 910.252   2
   8  -7   5-859.056 1060.80   2
  -8   7  -6 1341.33 1503.95   2
   8  -6  -7 1352.77 1524.43   2
   8  -6  -6-154.309 741.979   2
   8  -6  -5 344.359 656.504   2
   8  -6  -4 4794.67 772.693   2
   8  -6  -3 2122.63 662.916   2
   8  -6   1 7175.82 1172.53   2
   8  -6   2 654.965 656.215   2
   8  -6   3 2293.84 677.574   2
  -8   6  -4 7157.35 940.587   2
   8  -6   5 7749.73 1000.00   2
   8  -6   6 1217.40 1120.98   2
  -8   6  -7 6015.52 1806.24   2
   8  -5  -7 1291.63 922.903   2
   8  -5  -6 3288.81 904.521   2
   8  -5  -5 2188.26 837.923   2
   8  -5  -4 387.626 624.889   2
  -8   5   0 1696.69 629.011   2
  -8   5  -1 12620.5 1120.14   2
   8  -5   2 6040.35 700.539   2
   8  -5   3 804.663 663.408   2
   8  -5   4 11403.4 1086.76   2
   8  -5   5 7268.16 940.590   2
  -8   5  -6 122.476 818.909   2
  -8   4   8 5519.17 1769.02   2
   8  -4  -7-146.679 845.584   2
   8  -4  -6 3240.64 911.294   2
   8  -4  -5 6792.53 1028.84   2
   8  -4  -1 404.606 520.485   2
   8  -4   0 1051.88 507.622   2
   8  -4   1 3343.51 705.280   2
   8  -4   2 4369.91 621.399   2
   8  -4   3 267.377 570.790   2
   8  -4   4 5483.83 816.036   2
   8  -4   5 7775.61 935.998   2
  -8   4  -9-296.171 1366.57   2
   8  -4  10 3867.73 1676.63   2
   8  -3  -8 3863.65 1228.74   2
   8  -3  -7 1105.82 822.690   2
   8  -3  -2 1878.41 675.790   2
   8  -3  -1 2040.85 620.008   2
   8  -3   0 633.555 598.223   2
   8  -3   1 1359.65 588.860   2
   8  -3   2 48.5464 464.233   2
   8  -3   3 953.984 569.584   2
  -8   3  -7 1181.65 1285.05   2
   8  -3   8 1231.72 704.553   2
   8  -3   9 7737.27 1089.58   2
   8  -3  10 3424.82 899.973   2
   8  -3  11 1028.37 1605.40   2
  -8   2   9-1182.89 1582.91   2
   8  -2  -8 1781.59 882.340   2
   8  -2  -3 8647.38 792.683   2
   8  -2  -2 794.096 481.748   2
   8  -2  -1 1976.54 451.012   2
   8  -2   0 7645.99 683.400   2
   8  -2   1 1612.04 459.030   2
   8  -2   2 925.237 386.088   2
  -8   2  -3 6106.61 1229.32   2
  -8   2  -6 4970.60 790.243   2
  -8   2  -7 5172.11 627.322   2
  -8   2  -8 4884.95 640.056   2
  -8   2  -9 3004.58 632.628   2
  -8   2 -10 10290.7 1177.93   2
  -8   2 -11 4775.55 1284.61   2
  -8   1   5 1387.00 834.432   2
   8  -1  -4 3385.13 607.282   2
   8  -1  -3 11555.4 882.020   2
   8  -1  -2 7125.94 686.956   2
   8  -1  -1-0.77026 475.887   2
   8  -1   0 22591.5 1060.37   2
  -8   1  -1 18647.5 828.318   2
   8  -1   5 3157.61 644.590   2
  -8   1  -6 4481.02 548.536   2
  -8   1  -7 5738.09 618.088   2
   8  -1   8 1650.47 512.338   2
  -8   1  -9 708.775 562.507   2
  -8   1 -10 2046.92 785.673   2
  -8   1 -11 3579.33 903.852   2
   8   0  -6 13174.5 1243.57   2
   8   0  -5 4976.56 722.782   2
   8   0  -4 2112.46 563.766   2
   8   0  -3 17025.5 1022.63   2
   8   0  -2 8471.08 731.299   2
   8   0  -1 232.062 445.222   2
   8   0   0 4558.96 653.180   2
  -8   0  -4 3372.95 485.165   2
   8   0   5 7529.12 607.916   2
  -8   0  -6 1225.18 438.173   2
   8   0   7 1788.00 453.939   2
  -8   0  -8 351.081 552.381   2
  -8   0  -9 899.380 602.871   2
  -8   0 -10 501.411 573.841   2
   8   1  -7 3000.32 830.749   2
   8   1  -6 7573.44 957.216   2
   8   1  -5 5206.46 836.303   2
   8   1  -4 454.856 518.163   2
   8   1  -3 5945.95 677.477   2
   8   1  -2 11309.7 807.032   2
   8   1  -1 5185.70 856.400   2
   8   1   3 1786.32 357.169   2
  -8  -1  -4 1150.31 346.560   2
  -8  -1  -5 5182.27 527.275   2
  -8  -1  -6 12475.2 864.021   2
  -8  -1  -7 2454.05 516.071   2
  -8  -1  -8 734.425 564.564   2
  -8  -1  -9 8329.02 988.541   2
   8   2  -8 3503.77 1052.25   2
   8   2  -7-326.297 706.056   2
   8   2  -6 7760.46 1014.46   2
   8   2  -5 7864.99 976.043   2
   8   2  -4 5503.57 804.583   2
  -8  -2   3 170.884 483.260   2
   8   2  -2 10982.5 1670.33   2
  -8  -2  -2 24785.5 848.505   2
  -8  -2  -3 17464.8 673.355   2
  -8  -2  -4 1057.61 399.057   2
  -8  -2  -5 5603.83 586.403   2
  -8  -2  -6 16424.9 972.062   2
  -8  -2  -7 8911.45 787.960   2
  -8  -2  -8 1939.51 1115.20   2
  -8  -2 -12 3316.80 821.251   2
   8   2  13 10547.9 2047.47   2
   8   3  -7 4213.03 789.576   2
   8   3  -6 817.497 666.773   2
   8   3  -5 16578.3 1154.02   2
   8   3  -4 21235.2 1392.25   2
  -8  -3  -1 45.1114 430.441   2
  -8  -3  -2 22491.2 1000.70   2
  -8  -3  -3 32293.3 1007.06   2
  -8  -3  -4 1941.46 428.102   2
  -8  -3  -5 5168.18 493.854   2
  -8  -3  -6 27557.0 1048.59   2
  -8  -3 -10 10246.0 1954.51   2
  -8  -3 -11 2023.91 748.677   2
  -8  -3 -12 456.801 679.642   2
   8   3  13 4885.72 1615.40   2
   8   4  -7 11555.0 1254.54   2
   8   4  -6 1085.52 702.185   2
   8   4  -5 9135.41 941.581   2
   8   4   0 13635.2 853.147   2
  -8  -4  -1 1090.14 527.725   2
  -8  -4  -2 8211.45 671.723   2
  -8  -4  -3 22444.9 943.504   2
   8   4   4 9153.95 581.093   2
  -8  -4  -5 112.020 376.914   2
  -8  -4  -9 266.966 684.234   2
  -8  -4 -10 10538.3 959.322   2
  -8  -4 -11 3353.56 808.763   2
  -8  -4 -12 2820.26 848.640   2
   8   4  13-268.287 1427.63   2
   8   5  -6 1941.48 886.858   2
   8   5  -2 928.552 542.779   2
   8   5  -1 3088.79 700.614   2
   8   5   0 5110.98 638.591   2
  -8  -5  -1 8288.26 826.223   2
  -8  -5  -2 97.9322 428.551   2
  -8  -5  -3 6705.81 583.965   2
   8   5   4 16130.1 1056.77   2
  -8  -5  -8 17667.3 1488.48   2
   8   5   9 4275.63 780.471   2
   8   5  10 1545.63 725.421   2
  -8  -5 -11 15447.6 1361.32   2
  -8  -5 -12 5853.34 987.105   2
   8   5  13 488.124 1482.77   2
  -8  -6   3 5675.21 1114.94   2
  -8  -6   2 2899.30 895.899   2
  -8  -6   1 0.65863 823.624   2
  -8  -6   0 6453.69 1093.01   2
  -8  -6  -1 10682.7 988.121   2
  -8  -6  -2 7829.31 865.317   2
   8   6   3 731.043 975.612   2
   8   6   7 10922.0 1213.76   2
   8   6   8 22968.2 1208.17   2
   8   6   9 13592.5 965.652   2
   8   6  10-154.145 651.049   2
  -8  -6 -11 22058.2 1561.10   2
  -8  -6 -12 11172.5 1213.35   2
  -8  -7   4 54.5433 1116.40   2
  -8  -7   3 4913.64 1155.43   2
  -8  -7   2 11789.5 1468.91   2
  -8  -7   1 2811.81 905.866   2
  -8  -7   0 3447.99 987.436   2
  -8  -7  -1 14630.2 1466.17   2
   8   7   2 15565.5 2017.01   2
   8   7   6 9194.80 814.643   2
   8   7   7 1866.56 496.558   2
   8   7   8 8811.98 886.749   2
   8   7   9 8852.73 874.772   2
   8   7  10 738.812 644.564   2
   8   7  11 3759.96 843.373   2
   8   7  12 15351.9 2454.56   2
   8   8  -3 367.105 1201.26   2
   8   8  -2 5753.20 1184.49   2
  -8  -8   1 2508.40 1055.10   2
  -8  -8   0 409.067 973.140   2
  -8  -8  -5 3554.93 637.041   2
  -8  -8  -6 2354.51 699.663   2
   8   8   7 255.404 574.497   2
   8   8   8 925.050 600.611   2
   8   8   9 2342.70 620.998   2
   8   8  10 2023.77 768.310   2
  -8  -9   2 1220.60 1533.56   2
   8   9  -1 1962.05 1068.56   2
   8   9   4 1627.47 859.605   2
   8   9   5 932.026 729.760   2
  -8  -9  -6 2392.59 745.251   2
   8   9   7 5759.44 808.590   2
   8   9   8 736.374 645.978   2
   8   9   9 1913.03 992.634   2
  -8 -10   1 2595.60 1604.43   2
   8  10   2 1368.75 1412.97   2
   8  10   3 4436.52 853.318   2
   8  10   4 4260.17 935.151   2
   8  10   5 321.939 786.362   2
  -8 -10  -6 2266.10 1167.24   2
  -8 -10  -7 13592.3 1670.99   2
   8  10   8 2630.59 1123.22   2
   8  11   4 5408.03 1746.98   2
   8  11   5 2068.07 1559.99   2
   9  -7  -4 5169.52 1185.31   2
   9  -7  -3 162.096 1005.36   2
   9  -7   2 4080.51 956.242   2
  -9   7  -3 4498.10 1056.07   2
   9  -7   4 3572.50 1106.58   2
   9  -6  -5 3393.73 1419.51   2
   9  -6  -4 3300.29 921.596   2
  -9   6   0 16847.3 2438.44   2
   9  -6   1 5188.82 962.609   2
   9  -6   2 1312.71 763.238   2
   9  -6   3 8289.54 1086.78   2
   9  -6   4 12847.3 1258.87   2
   9  -6   5 3067.73 819.557   2
  -9   6  -6 1660.45 1673.70   2
   9  -5  -5 175.769 842.826   2
   9  -5  -1 2117.75 958.248   2
   9  -5   0 12721.6 1228.54   2
   9  -5   1 19166.1 1436.98   2
   9  -5   2 1466.32 747.906   2
   9  -5   3 10693.2 1194.51   2
   9  -5   4 22168.9 1523.59   2
  -9   5  -5 3499.25 1004.80   2
  -9   4   7 3429.51 1591.99   2
   9  -4  -6 10976.4 1593.40   2
   9  -4  -2 7243.95 1000.59   2
   9  -4  -1 39.4982 766.434   2
   9  -4   0 10509.3 1101.93   2
   9  -4   1 9622.29 1081.62   2
   9  -4   2 5719.75 894.818   2
   9  -4   3 1484.72 736.554   2
  -9   4  -4 5871.18 1032.86   2
  -9   4  -8 6297.13 1847.72   2
   9  -4   9 2442.47 1663.57   2
  -9   3   7-1168.44 1576.20   2
   9  -3  -3 6401.79 954.524   2
   9  -3  -2 6345.55 924.387   2
   9  -3  -1 288.156 663.854   2
  -9   3   0 4266.21 772.008   2
   9  -3   1 3110.46 678.133   2
   9  -3   2 3454.75 666.455   2
  -9   3  -3 278.322 1019.96   2
  -9   3  -6 2325.72 1070.20   2
  -9   3  -7 3573.86 854.576   2
   9  -3   8 4883.35 907.060   2
   9  -3   9 10499.2 1563.96   2
   9  -2  -4 2024.59 587.544   2
   9  -2  -3 219.745 569.330   2
   9  -2  -2 1953.13 535.406   2
   9  -2  -1 5856.27 702.398   2
   9  -2   0 1575.84 478.869   2
   9  -2   1 3988.21 683.638   2
   9  -2   2 4859.89 1283.79   2
  -9   2  -5 10792.6 1796.46   2
   9  -2   6 10594.7 1041.88   2
  -9   2  -7 2017.60 667.833   2
   9  -2   8 1709.84 612.522   2
  -9   2  -9 18208.5 1429.96   2
  -9   2 -10 11260.9 1600.73   2
   9  -1  -6 17.7851 932.083   2
   9  -1  -5 4790.72 740.680   2
   9  -1  -4 7435.74 849.846   2
   9  -1  -3 2589.38 597.284   2
   9  -1  -2 1452.58 556.258   2
   9  -1  -1 7654.54 761.167   2
   9  -1   0 8410.81 914.978   2
  -9   1  -4 2332.38 594.814   2
  -9   1  -5 7888.24 752.776   2
  -9   1  -6 20258.4 1027.14   2
  -9   1  -7 3090.50 580.832   2
  -9   1  -8-146.327 569.510   2
  -9   1  -9 9096.26 935.413   2
  -9   1 -10 10099.7 1194.17   2
   9   0  -7 6149.03 1391.32   2
   9   0  -6 4911.59 1011.02   2
   9   0  -5 181.771 801.296   2
   9   0  -4 5506.56 767.726   2
   9   0  -3 3431.16 648.151   2
   9   0  -2 125.093 529.798   2
   9   0  -1 5449.81 787.855   2
  -9   0  -3 2880.08 522.995   2
   9   0   4 4212.75 543.420   2
   9   0   5-57.7645 432.694   2
  -9   0  -6 5080.55 665.928   2
  -9   0  -7 6456.20 747.062   2
  -9   0  -8 285.120 609.558   2
  -9   0  -9 92.0322 618.218   2
  -9  -1   7 2277.12 1412.95   2
   9   1  -6 828.089 860.494   2
   9   1  -5 526.238 762.762   2
   9   1  -4 319.431 697.676   2
  -9  -1   3 1420.65 561.448   2
   9   1  -2 2310.01 777.743   2
   9   1   2-137.631 458.995   2
  -9  -1  -3 200.893 373.159   2
  -9  -1  -4 3711.87 516.495   2
  -9  -1  -5 3123.41 573.850   2
  -9  -1  -6 1503.75 534.656   2
  -9  -1  -7 575.174 571.390   2
  -9  -1  -8 5320.55 845.211   2
   9   2  -6 408.733 828.738   2
   9   2  -5 2210.07 805.311   2
   9   2  -4 887.439 700.250   2
   9   2  -3-3.63183 725.589   2
   9   2   1 3986.27 590.639   2
  -9  -2  -2 10683.9 695.347   2
  -9  -2  -3 675.540 450.486   2
  -9  -2  -4 966.270 434.771   2
  -9  -2  -5 9539.17 725.097   2
  -9  -2  -6 4426.99 641.878   2
  -9  -2  -7-148.515 812.876   2
  -9  -2 -11 4399.16 1174.21   2
  -9  -2 -12 4976.36 2009.92   2
   9   3  -6 4932.21 823.554   2
   9   3  -5 8653.88 942.426   2
  -9  -3   0 511.313 501.327   2
  -9  -3  -1 4749.58 729.963   2
  -9  -3  -2 15817.1 1135.14   2
  -9  -3  -3 3286.98 598.918   2
  -9  -3  -4 67.9191 413.328   2
  -9  -3  -5 8542.28 787.959   2
  -9  -3  -9 5045.91 1558.56   2
  -9  -3 -10 689.632 793.737   2
  -9  -3 -11 65.9073 785.841   2
   9   4  -6 1421.00 1151.61   2
  -9  -4   1 9783.08 978.652   2
  -9  -4   0 9054.01 953.292   2
  -9  -4  -1 256.847 612.613   2
   9   4   2 4790.72 743.150   2
   9   4   3 6081.80 659.182   2
   9   4   4 602.082 525.988   2
  -9  -4  -8 1535.59 1275.55   2
  -9  -4  -9 1444.97 840.655   2
  -9  -4 -10 1160.16 796.233   2
  -9  -4 -11 1280.01 854.863   2
  -9  -5   3 4144.55 1086.81   2
   9   5  -2 793.180 913.433   2
  -9  -5   1 871.392 887.982   2
  -9  -5   0 9695.68 1019.09   2
  -9  -5  -1 2994.70 869.235   2
  -9  -5  -2 213.760 791.317   2
   9   5   3 5790.71 1236.96   2
  -9  -5  -7 8924.15 1792.54   2
  -9  -5  -8 4341.23 845.866   2
  -9  -5  -9 163.374 744.228   2
  -9  -5 -10 8160.86 1138.07   2
  -9  -5 -11 4935.88 977.716   2
   9   6  -3 13979.4 1645.92   2
  -9  -6   2 4445.16 1137.61   2
  -9  -6   1 1436.40 905.939   2
   9   6   0 8353.29 1242.67   2
  -9  -6  -1 18359.2 1334.76   2
   9   6   2 68.0065 1110.38   2
   9   6   6 364.780 825.998   2
  -9  -6  -7 17673.3 1306.72   2
   9   6   8 17375.8 1299.50   2
   9   6   9 2753.92 724.143   2
   9   6  10 9612.45 1130.95   2
  -9  -6 -11 8424.69 1005.04   2
   9   6  12 1774.66 1578.16   2
  -9  -7   2 12333.6 1602.32   2
  -9  -7   1-305.354 981.564   2
  -9  -7   0 8073.74 1262.98   2
   9   7   1 24090.3 2641.62   2
  -9  -7  -5 12954.2 1508.04   2
   9   7   6-237.308 517.634   2
   9   7   7 6105.42 742.342   2
   9   7   8 12735.8 1016.14   2
   9   7   9 4117.39 832.706   2
   9   7  10 420.831 791.032   2
   9   7  11 8940.49 1943.36   2
   9   8  -1 1179.25 1038.21   2
  -9  -8  -4 5733.48 1113.63   2
  -9  -8  -5 11806.4 2175.99   2
  -9  -8  -6 2425.79 808.198   2
   9   8   7-256.977 662.692   2
   9   8   8 3368.97 654.399   2
   9   8   9 5285.66 924.323   2
   9   9   3 3884.38 1013.63   2
   9   9   4 342.263 934.674   2
  -9  -9  -5 1832.68 1308.50   2
   9   9   6 15519.3 2252.05   2
   9   9   7 1957.72 763.193   2
   9   9   8 138.749 1404.65   2
   9  10   2 6291.87 1362.19   2
   9  10   3 7073.74 1418.85   2
   9  10   4 236.309 1141.14   2
  -9 -10  -5 873.344 1707.47   2
   9  10   7 3781.09 1426.52   2
  10  -6   0 5563.25 1765.42   2
  10  -6   1 2186.48 1033.05   2
  10  -6   2 4179.50 1064.57   2
 -10   6  -3 4880.23 1145.32   2
 -10   6  -4 339.095 1496.18   2
 -10   5   2 1025.16 1140.45   2
  10  -5  -1 3680.01 906.938   2
  10  -5   0 10808.7 1250.91   2
  10  -5   1 5420.47 1002.68   2
  10  -5   2 1005.63 866.507   2
  10  -5   3 10726.1 1259.58   2
  10  -5   4 6066.69 1050.45   2
  10  -4  -3 10114.5 1231.90   2
  10  -4  -2 3004.23 872.305   2
  10  -4  -1 2320.84 831.183   2
  10  -4   0 5749.58 958.934   2
  10  -4   1 7091.27 1043.97   2
  10  -4   2 246.340 766.894   2
  10  -4   3 3702.31 892.082   2
  10  -4   7 3298.33 905.505   2
  10  -3  -4 884.249 905.018   2
  10  -3  -3 4789.79 948.357   2
  10  -3  -2 3362.43 885.882   2
  10  -3  -1 156.627 729.982   2
  10  -3   0 3258.02 774.180   2
  10  -3   1 8398.64 1035.69   2
  10  -3   6 7279.32 983.543   2
 -10   3  -7 126.765 814.834   2
 -10   3  -8 5500.13 1262.32   2
  10  -2  -5 3465.03 933.441   2
  10  -2  -4 902.085 767.672   2
  10  -2  -3 3483.38 901.217   2
  10  -2  -2 9282.20 1115.12   2
  10  -2  -1 6157.33 952.303   2
  10  -2   0 692.897 732.585   2
 -10   2  -4 4150.73 1310.00   2
  10  -2   5 13511.1 1193.81   2
  10  -2   6 10184.1 1097.75   2
 -10   2  -7 1673.64 923.175   2
 -10   2  -8 4338.22 1157.69   2
 -10   2  -9 14612.6 1692.79   2
 -10   1   6 5952.84 1635.64   2
  10  -1  -5 13694.5 1174.65   2
  10  -1  -4 3596.69 696.876   2
  10  -1  -3 3316.75 719.143   2
  10  -1  -2 17560.4 1163.01   2
  10  -1  -1 12764.7 1188.24   2
 -10   1  -3 9861.59 1299.86   2
 -10   1  -4 1074.21 678.123   2
 -10   1  -5 13303.8 1151.27   2
 -10   1  -6 11848.5 1390.53   2
 -10   1  -7-117.670 956.823   2
 -10   1  -8 4153.17 884.100   2
 -10   1  -9 10078.6 1234.90   2
 -10   0   6 1985.71 1763.51   2
  10   0  -5 10841.6 1243.22   2
  10   0  -4 6363.21 830.060   2
  10   0  -3-1.23242 632.214   2
  10   0  -2 9206.15 1011.18   2
  10   0   2 10064.1 1006.95   2
  10   0   3 10455.9 896.149   2
 -10   0  -4 272.221 537.133   2
 -10   0  -5 4453.64 816.860   2
 -10   0  -6 10979.6 1070.72   2
 -10   0  -7 6037.40 781.280   2
 -10   0  -8 355.979 688.621   2
  10   1  -5 1176.39 870.311   2
  10   1  -4 4159.75 907.295   2
 -10  -1   3 2233.40 816.507   2
  10   1   1 520.294 680.638   2
 -10  -1  -2 151.661 543.233   2
 -10  -1  -3 7771.19 784.050   2
 -10  -1  -4 4546.33 595.554   2
 -10  -1  -5 91.3873 631.462   2
 -10  -1  -6 4160.19 696.646   2
 -10  -1  -7 14657.4 2117.99   2
  10   2  -5-167.844 922.098   2
  10   2   0 4684.09 681.324   2
  10   2   1 3341.90 742.630   2
 -10  -2  -2-133.843 656.955   2
 -10  -2  -3 4107.68 640.767   2
 -10  -2  -4 13774.0 894.189   2
 -10  -2  -5 4980.11 649.649   2
 -10  -2  -6 2959.12 929.449   2
 -10  -2 -10 7455.81 1059.41   2
 -10  -2 -11 12068.6 2542.03   2
 -10  -3   1-469.156 739.704   2
  10   3   0 8477.65 1010.25   2
  10   3   1 9022.51 1002.67   2
 -10  -3  -2 2001.25 684.372   2
 -10  -3  -3 1372.24 687.385   2
 -10  -3  -4 12103.8 962.179   2
 -10  -3  -5 6755.38 1514.52   2
 -10  -3  -8 13357.3 2207.51   2
 -10  -3  -9 1728.04 685.047   2
 -10  -3 -10 1251.99 875.843   2
 -10  -3 -11 3647.87 1572.69   2
  10   4  -2 1807.19 947.544   2
  10   4  -1 1418.82 946.768   2
  10   4   0 1607.18 739.549   2
  10   4   1 3910.14 816.589   2
  10   4   2 1160.87 710.382   2
 -10  -4  -3 236.053 805.664   2
 -10  -4  -7 556.434 1321.21   2
 -10  -4  -8 1591.53 665.786   2
 -10  -4  -9 1496.40 866.171   2
 -10  -4 -10 1017.98 837.269   2
  10   5  -3-551.271 1055.48   2
  10   5  -2 289.671 1033.95   2
  10   5  -1 1689.46 963.331   2
  10   5   0 1526.03 892.126   2
 -10  -5  -1 609.899 874.312   2
 -10  -5  -6 4073.70 946.508   2
 -10  -5  -7 1515.93 932.229   2
 -10  -5  -8 186.682 755.104   2
 -10  -5  -9 5107.61 950.838   2
 -10  -5 -10 1524.90 948.461   2
 -10  -6   2-564.110 1123.49   2
 -10  -6   1 2140.21 943.932   2
 -10  -6   0 12337.1 1528.81   2
  10   6   1 859.813 1409.78   2
 -10  -6  -5 54.7767 889.017   2
 -10  -6  -6 2490.58 729.061   2
 -10  -6  -7 6316.00 1182.68   2
 -10  -6  -8 318.433 957.285   2
 -10  -6  -9 4949.33 1180.16   2
  10   6  10 6535.73 1891.68   2
  10   7  -1 2418.56 1504.01   2
  10   7   0 8899.29 2060.00   2
  10   7   4 5778.84 1197.38   2
 -10  -7  -5-251.678 1377.13   2
 -10  -7  -6 1937.35 804.433   2
 -10  -7  -7 4792.84 1035.58   2
 -10  -7  -8 2210.77 1036.76   2
 -10  -7  -9 561.981 1066.56   2
  10   8   3 258.904 1066.65   2
 -10  -8  -4 4058.57 1799.49   2
 -10  -8  -5 8928.31 2192.90   2
  10   8   6 212.309 1005.12   2
 -10  -8  -7 251.949 995.505   2
  10   9   2 3271.90 1608.98   2
  10   9   3 1934.32 1555.34   2
 -10  -9  -4 850.055 1511.77   2
 -10  -9  -5 8505.01 1948.14   2
  11  -4   0 4668.22 1733.16   2
  11  -4   1 54.6577 1051.57   2
 -11   4  -2 878.265 1017.51   2
  11  -3  -2 2822.67 1693.36   2
  11  -3  -1 209.992 859.006   2
  11  -3   0 1076.36 902.122   2
  11  -3   1 3003.59 1655.65   2
  11  -3   5 2332.98 838.352   2
 -11   3  -6 27.6265 1066.80   2
 -11   3  -7 955.786 1721.72   2
  11  -2  -3 2439.41 1046.17   2
  11  -2  -2 5847.03 1093.41   2
  11  -2  -1 2311.29 820.455   2
  11  -2   0-540.956 1232.26   2
  11  -2   4 5250.69 940.476   2
 -11   2  -5 4868.26 1551.68   2
 -11   2  -6 2923.92 1076.32   2
 -11   2  -7 2350.06 1148.71   2
 -11   1   4 176.114 1657.21   2
  11  -1  -3 3776.73 957.175   2
  11  -1  -2 9468.76 1183.24   2
 -11   1  -2 9598.69 1368.34   2
 -11   1  -3 90.7865 852.488   2
 -11   1  -4 3023.01 1020.32   2
 -11   1  -5 11053.5 2045.20   2
 -11   1  -6 2817.49 902.057   2
 -11   1  -7 320.039 1053.69   2
 -11   1  -8 2289.43 1111.48   2
 -11   0   4 6276.58 1619.38   2
  11   0  -3 3130.48 870.290   2
  11   0   1 2469.73 994.005   2
 -11   0  -2 16052.2 1110.17   2
 -11   0  -3 3803.22 823.729   2
 -11   0  -4-281.337 712.209   2
 -11   0  -5 2965.02 811.522   2
 -11   0  -6 4707.43 1056.58   2
 -11   0  -7 2496.29 1015.69   2
  11   1  -4 9577.57 2075.11   2
 -11  -1   0 5894.65 810.584   2
 -11  -1  -1 824.394 790.552   2
  11   1   2 4600.09 913.283   2
  11   1   3 10280.9 1119.15   2
  11   1   4 4553.47 774.564   2
 -11  -1  -5 252.596 667.285   2
 -11  -1  -6 9800.02 1390.36   2
  11   2  -4 19936.2 2809.52   2
  11   2  -1 9233.72 1123.51   2
  11   2   0 16353.9 1379.37   2
 -11  -2  -1 2115.15 822.505   2
 -11  -2  -2 376.436 794.022   2
 -11  -2  -3 20873.7 1504.01   2
  11   2   4 9739.90 1382.07   2
 -11  -2  -5 1931.48 1354.13   2
 -11  -2  -9 2073.95 959.044   2
  11   3  -2 2292.34 1068.09   2
  11   3  -1 2832.90 874.455   2
 -11  -3   0 16769.0 1411.43   2
 -11  -3  -1 7401.28 1044.57   2
 -11  -3  -2-90.4241 757.128   2
  11   3   3 14751.6 1287.37   2
 -11  -3  -7 14043.6 2327.67   2
 -11  -3  -8 3344.23 775.655   2
 -11  -3  -9 285.814 825.816   2
  11   4  -2 3379.21 1636.85   2
  11   4  -1 1014.26 979.309   2
  11   4   0 6894.54 1000.16   2
  11   4   1 5881.94 1024.51   2
 -11  -4  -2 569.471 1059.64   2
 -11  -4  -7 3794.35 766.358   2
 -11  -4  -8 8568.24 1033.02   2
 -11  -4  -9 4049.09 887.664   2
  11   5   0 396.558 1151.21   2
 -11  -5  -1 3909.22 1400.98   2
  11   5   5 4950.86 1442.42   2
 -11  -5  -6 7445.60 917.366   2
 -11  -5  -7 715.096 836.053   2
 -11  -5  -8 11401.3 1560.76   2
  11   5   9 8568.22 1963.98   2
  11   6   0 586.007 1526.12   2
 -11  -6  -4 1159.97 908.429   2
 -11  -6  -5 5180.51 1764.25   2
 -11  -6  -6 5861.41 1255.07   2
 -11  -6  -7 710.702 1083.28   2
  11   6   8 3616.91 1599.67   2
  11   7   3 5540.04 1677.73   2
 -11  -7  -4-199.533 1729.19   2
 -11  -7  -5 8803.38 2294.00   2
  11   7   8 965.389 1595.27   2
  11   8   3 514.379 1687.58   2
  12  -1   2-399.248 1665.85   2
  12  -1   3 2139.53 1698.81   2
 -12   0   0-244.411 1472.50   2
  12   0   1 2695.19 891.481   2
  12   0   2 846.738 849.211   2
  12   0   3 244.871 868.031   2
  12   0   4 893.069 1054.15   2
  12   0   5 502.711 1627.85   2
 -12  -1   1 3877.15 1067.42   2
  12   1   0-194.346 853.545   2
  12   1   1 64.2043 882.688   2
  12   1   2 3818.86 872.911   2
  12   1   3 2776.54 821.400   2
  12   1   4 1441.17 1056.10   2
 -12  -2   1 10574.7 2051.83   2
 -12  -2   0 5261.87 1050.24   2
  12   2   1 469.047 863.320   2
  12   2   2 7798.49 1072.13   2
  12   2   3 10315.6 1536.89   2
  12   3  -1 8407.26 2234.57   2
  12   3   0 9239.55 1466.28   2
  12   3   1 1197.22 910.891   2
  12   3   2 2246.58 1137.91   2
 -12  -3  -6 2805.57 1615.84   2
 -12  -3  -7 1598.35 911.247   2
 -12  -4  -1 2322.03 1667.25   2
 -12  -4  -2 1733.32 1749.78   2
 -12  -4  -6 2029.11 1587.39   2
  12   4   7 7574.91 1933.26   2
 -12  -5  -4 5609.53 1835.10   2
  12   5   7 3611.95 1656.23   2
 -12  -6  -3-152.786 1174.32   2
;
_shelx_hkl_checksum              77056
_shelx_shelxl_version_number     2014/7
_olex2_submission_special_instructions 'No special instructions were received'
loop_
_space_group_symop_operation_xyz
'x, y, z'
'-x, -y, -z'
loop_
_atom_site_label
_atom_site_type_symbol
_atom_site_fract_x
_atom_site_fract_y
_atom_site_fract_z
_atom_site_U_iso_or_equiv
_atom_site_adp_type
_atom_site_occupancy
_atom_site_site_symmetry_order
_atom_site_calc_flag
_atom_site_refinement_flags_posn
Rh1 Rh 0.61093(3) 0.41233(3) 0.13893(3) 0.00830(8) Uani 1 1 d .
Cl1 Cl 0.63693(10) 0.66914(9) 0.16828(9) 0.01490(17) Uani 1 1 d .
Cl2 Cl 0.32800(9) 0.49105(9) 0.12323(8) 0.01170(15) Uani 1 1 d .
C1 C 0.5852(4) 0.2460(4) 0.3389(3) 0.0122(6) Uani 1 1 d .
C2 C 0.5582(4) 0.1711(4) 0.2335(4) 0.0132(7) Uani 1 1 d .
C3 C 0.6998(4) 0.1756(4) 0.1253(4) 0.0130(7) Uani 1 1 d .
C4 C 0.8186(4) 0.2526(4) 0.1605(4) 0.0121(6) Uani 1 1 d .
C5 C 0.7485(4) 0.2923(4) 0.2951(4) 0.0116(6) Uani 1 1 d .
C6 C 0.4687(5) 0.2632(5) 0.4723(4) 0.0208(8) Uani 1 1 d .
H6A H 0.5073 0.3359 0.5148 0.031 Uiso 1 1 calc GR
H6B H 0.4588 0.1598 0.5398 0.031 Uiso 1 1 calc GR
H6C H 0.3636 0.3052 0.4501 0.031 Uiso 1 1 calc GR
C7 C 0.4074(5) 0.0997(4) 0.2360(4) 0.0205(8) Uani 1 1 d .
H7A H 0.3202 0.1298 0.3100 0.031 Uiso 1 1 calc GR
H7B H 0.4265 -0.0156 0.2566 0.031 Uiso 1 1 calc GR
H7C H 0.3773 0.1385 0.1431 0.031 Uiso 1 1 calc GR
C8 C 0.7207(5) 0.1086(4) -0.0028(4) 0.0200(8) Uani 1 1 d .
H8A H 0.6240 0.1376 -0.0431 0.030 Uiso 1 1 calc GR
H8B H 0.7380 -0.0068 0.0255 0.030 Uiso 1 1 calc GR
H8C H 0.8137 0.1511 -0.0744 0.030 Uiso 1 1 calc GR
C9 C 0.9858(4) 0.2784(4) 0.0756(4) 0.0210(8) Uani 1 1 d .
H9A H 0.9838 0.3118 -0.0261 0.031 Uiso 1 1 calc GR
H9B H 1.0543 0.1798 0.0937 0.031 Uiso 1 1 calc GR
H9C H 1.0288 0.3606 0.1035 0.031 Uiso 1 1 calc GR
C10 C 0.8318(5) 0.3607(4) 0.3793(4) 0.0177(7) Uani 1 1 d .
H10A H 0.7531 0.4261 0.4352 0.021 Uiso 1 1 calc R
H10B H 0.9141 0.4292 0.3140 0.021 Uiso 1 1 calc R
C11 C 0.9121(4) 0.2258(4) 0.4806(4) 0.0153(7) Uani 1 1 d .
H11A H 0.8294 0.1546 0.5407 0.018 Uiso 1 1 calc R
H11B H 0.9926 0.1637 0.4229 0.018 Uiso 1 1 calc R
C12 C 0.9944(5) 0.2814(4) 0.5770(4) 0.0171(7) Uani 1 1 d .
H12A H 1.0745 0.3557 0.5175 0.021 Uiso 1 1 calc R
H12B H 0.9134 0.3391 0.6384 0.021 Uiso 1 1 calc R
C13 C 1.0778(5) 0.1455(4) 0.6705(4) 0.0189(7) Uani 1 1 d .
H13A H 1.1611 0.0905 0.6103 0.028 Uiso 1 1 calc GR
H13B H 0.9990 0.0716 0.7298 0.028 Uiso 1 1 calc GR
H13C H 1.1272 0.1868 0.7318 0.028 Uiso 1 1 calc GR
loop_
_atom_site_aniso_label
_atom_site_aniso_U_11
_atom_site_aniso_U_22
_atom_site_aniso_U_33
_atom_site_aniso_U_23
_atom_site_aniso_U_13
_atom_site_aniso_U_12
Rh1 0.00923(12) 0.00794(12) 0.00835(12) -0.00207(9) -0.00299(8) -0.00052(8)
Cl1 0.0193(4) 0.0107(3) 0.0173(4) -0.0048(3) -0.0067(3) -0.0020(3)
Cl2 0.0099(4) 0.0138(4) 0.0106(4) -0.0020(3) -0.0023(3) 0.0002(3)
C1 0.0150(16) 0.0119(15) 0.0089(15) -0.0005(12) -0.0043(12) 0.0008(13)
C2 0.0163(17) 0.0087(15) 0.0142(16) 0.0011(12) -0.0069(13) -0.0003(13)
C3 0.0173(17) 0.0075(14) 0.0153(16) -0.0017(12) -0.0076(13) 0.0010(12)
C4 0.0131(16) 0.0053(14) 0.0172(16) -0.0013(12) -0.0039(13) 0.0005(12)
C5 0.0148(16) 0.0083(14) 0.0127(15) -0.0008(12) -0.0078(13) 0.0012(12)
C6 0.024(2) 0.0221(19) 0.0120(17) -0.0016(14) -0.0002(15) 0.0012(15)
C7 0.0204(19) 0.0159(17) 0.027(2) 0.0002(15) -0.0107(16) -0.0061(15)
C8 0.030(2) 0.0161(17) 0.0155(17) -0.0075(14) -0.0057(15) 0.0027(15)
C9 0.0142(17) 0.0156(17) 0.029(2) -0.0007(15) -0.0007(15) -0.0004(14)
C10 0.0202(18) 0.0121(15) 0.0261(19) -0.0053(14) -0.0158(15) 0.0017(14)
C11 0.0193(18) 0.0117(15) 0.0182(17) -0.0023(13) -0.0113(14) -0.0018(13)
C12 0.0212(18) 0.0115(16) 0.0221(18) -0.0032(14) -0.0124(15) -0.0004(14)
C13 0.0231(19) 0.0190(17) 0.0166(17) -0.0035(14) -0.0105(15) 0.0007(15)
loop_
_atom_type_symbol
_atom_type_description
_atom_type_scat_dispersion_real
_atom_type_scat_dispersion_imag
_atom_type_scat_source
C C 0.0033 0.0016 'International Tables Vol C Tables 4.2.6.8 and 6.1.1.4'
H H 0.0000 0.0000 'International Tables Vol C Tables 4.2.6.8 and 6.1.1.4'
Cl Cl 0.1484 0.1585 'International Tables Vol C Tables 4.2.6.8 and 6.1.1.4'
Rh Rh -1.1178 0.9187 'International Tables Vol C Tables 4.2.6.8 and 6.1.1.4'
loop_
_exptl_crystal_face_index_h
_exptl_crystal_face_index_k
_exptl_crystal_face_index_l
_exptl_crystal_face_perp_dist
_exptl_oxdiff_crystal_face_indexfrac_h
_exptl_oxdiff_crystal_face_indexfrac_k
_exptl_oxdiff_crystal_face_indexfrac_l
_exptl_oxdiff_crystal_face_x
_exptl_oxdiff_crystal_face_y
_exptl_oxdiff_crystal_face_z
1 -5 0 0.0762 0.5080 -5.0093 0.4946 -0.1450 -0.3911 -0.1229
3 1 6 0.1261 2.9860 0.9971 6.0135 -0.0417 -0.2122 0.4025
-1 2 6 0.1019 -0.7409 1.9948 5.7396 -0.2589 0.0363 0.3612
-4 -2 0 0.1084 -4.3633 -2.0095 0.3640 -0.3863 0.0486 -0.1112
-3 -4 -6 0.1511 -2.6214 -4.0017 -6.3764 -0.0101 -0.0091 -0.5109
-2 -5 -4 0.1070 -1.7977 -5.0055 -4.1996 -0.0861 -0.1711 -0.4121
0 0 1 0.0985 -0.0996 -0.0017 1.0995 -0.0587 -0.0222 0.0578
-1 -1 0 0.1051 -0.7798 -1.0025 -0.2197 -0.0759 -0.0301 -0.0555
0 5 0 0.0295 0.3934 5.0102 -0.3959 0.2036 0.3474 0.1422
1 -3 -6 0.1057 0.8625 -2.9963 -5.8606 0.2416 -0.1101 -0.3973
4 1 0 0.0784 4.4848 1.0080 -0.4850 0.3690 -0.1224 0.0751
2 -1 6 0.1220 2.3276 -1.0069 5.6728 -0.1349 -0.3161 0.3109
-4 -1 -1 0.1395 -4.3852 -1.0063 -0.6146 -0.3103 0.1447 -0.1329
loop_
_geom_angle_atom_site_label_1
_geom_angle_atom_site_label_2
_geom_angle_atom_site_label_3
_geom_angle
_geom_angle_site_symmetry_3
Cl1 Rh1 Cl2 89.62(3) .
Cl1 Rh1 Cl2 91.02(3) 2_665
Cl2 Rh1 Cl2 85.75(3) 2_665
C1 Rh1 Cl1 110.00(9) .
C1 Rh1 Cl2 157.66(9) 2_665
C1 Rh1 Cl2 101.38(10) .
C1 Rh1 C2 39.65(12) .
C1 Rh1 C3 65.95(13) .
C1 Rh1 C4 66.73(13) .
C1 Rh1 C5 39.70(13) .
C2 Rh1 Cl1 148.98(10) .
C2 Rh1 Cl2 119.98(9) 2_665
C2 Rh1 Cl2 91.33(9) .
C3 Rh1 Cl1 153.29(9) .
C3 Rh1 Cl2 91.90(9) 2_665
C3 Rh1 Cl2 117.07(9) .
C3 Rh1 C2 38.60(13) .
C4 Rh1 Cl1 113.71(9) .
C4 Rh1 Cl2 156.07(9) .
C4 Rh1 Cl2 98.45(10) 2_665
C4 Rh1 C2 66.09(13) .
C4 Rh1 C3 39.65(12) .
C4 Rh1 C5 39.45(13) .
C5 Rh1 Cl1 93.85(9) .
C5 Rh1 Cl2 139.11(10) .
C5 Rh1 Cl2 134.80(10) 2_665
C5 Rh1 C2 66.02(12) .
C5 Rh1 C3 65.82(12) .
Rh1 Cl2 Rh1 94.25(3) 2_665
C2 C1 Rh1 71.10(18) .
C2 C1 C6 125.9(3) .
C5 C1 Rh1 70.85(18) .
C5 C1 C2 107.5(3) .
C5 C1 C6 126.4(3) .
C6 C1 Rh1 126.1(2) .
C1 C2 Rh1 69.25(18) .
C1 C2 C7 126.8(3) .
C3 C2 Rh1 70.65(19) .
C3 C2 C1 108.2(3) .
C3 C2 C7 125.0(3) .
C7 C2 Rh1 125.9(2) .
C2 C3 Rh1 70.75(19) .
C2 C3 C4 108.8(3) .
C2 C3 C8 124.7(3) .
C4 C3 Rh1 69.64(18) .
C4 C3 C8 126.5(3) .
C8 C3 Rh1 126.2(2) .
C3 C4 Rh1 70.72(19) .
C3 C4 C9 125.9(3) .
C5 C4 Rh1 70.64(18) .
C5 C4 C3 107.3(3) .
C5 C4 C9 126.8(3) .
C9 C4 Rh1 126.1(2) .
C1 C5 Rh1 69.45(18) .
C1 C5 C10 125.6(3) .
C4 C5 Rh1 69.91(18) .
C4 C5 C1 108.1(3) .
C4 C5 C10 126.2(3) .
C10 C5 Rh1 128.8(2) .
C1 C6 H6A 109.5 .
C1 C6 H6B 109.5 .
C1 C6 H6C 109.5 .
H6A C6 H6B 109.5 .
H6A C6 H6C 109.5 .
H6B C6 H6C 109.5 .
C2 C7 H7A 109.5 .
C2 C7 H7B 109.5 .
C2 C7 H7C 109.5 .
H7A C7 H7B 109.5 .
H7A C7 H7C 109.5 .
H7B C7 H7C 109.5 .
C3 C8 H8A 109.5 .
C3 C8 H8B 109.5 .
C3 C8 H8C 109.5 .
H8A C8 H8B 109.5 .
H8A C8 H8C 109.5 .
H8B C8 H8C 109.5 .
C4 C9 H9A 109.5 .
C4 C9 H9B 109.5 .
C4 C9 H9C 109.5 .
H9A C9 H9B 109.5 .
H9A C9 H9C 109.5 .
H9B C9 H9C 109.5 .
C5 C10 H10A 109.8 .
C5 C10 H10B 109.8 .
C5 C10 C11 109.4(3) .
H10A C10 H10B 108.2 .
C11 C10 H10A 109.8 .
C11 C10 H10B 109.8 .
C10 C11 H11A 108.7 .
C10 C11 H11B 108.7 .
H11A C11 H11B 107.6 .
C12 C11 C10 114.1(3) .
C12 C11 H11A 108.7 .
C12 C11 H11B 108.7 .
C11 C12 H12A 109.1 .
C11 C12 H12B 109.1 .
H12A C12 H12B 107.8 .
C13 C12 C11 112.4(3) .
C13 C12 H12A 109.1 .
C13 C12 H12B 109.1 .
C12 C13 H13A 109.5 .
C12 C13 H13B 109.5 .
C12 C13 H13C 109.5 .
H13A C13 H13B 109.5 .
H13A C13 H13C 109.5 .
H13B C13 H13C 109.5 .
loop_
_geom_bond_atom_site_label_1
_geom_bond_atom_site_label_2
_geom_bond_distance
_geom_bond_site_symmetry_2
Rh1 Cl1 2.3973(8) .
Rh1 Cl2 2.4642(8) .
Rh1 Cl2 2.4720(8) 2_665
Rh1 C1 2.122(3) .
Rh1 C2 2.147(3) .
Rh1 C3 2.146(3) .
Rh1 C4 2.132(3) .
Rh1 C5 2.141(3) .
Cl2 Rh1 2.4720(8) 2_665
C1 C2 1.448(5) .
C1 C5 1.448(5) .
C1 C6 1.491(5) .
C2 C3 1.419(5) .
C2 C7 1.507(5) .
C3 C4 1.451(5) .
C3 C8 1.501(5) .
C4 C5 1.442(5) .
C4 C9 1.499(5) .
C5 C10 1.495(4) .
C6 H6A 0.9800 .
C6 H6B 0.9800 .
C6 H6C 0.9800 .
C7 H7A 0.9800 .
C7 H7B 0.9800 .
C7 H7C 0.9800 .
C8 H8A 0.9800 .
C8 H8B 0.9800 .
C8 H8C 0.9800 .
C9 H9A 0.9800 .
C9 H9B 0.9800 .
C9 H9C 0.9800 .
C10 H10A 0.9900 .
C10 H10B 0.9900 .
C10 C11 1.542(5) .
C11 H11A 0.9900 .
C11 H11B 0.9900 .
C11 C12 1.520(5) .
C12 H12A 0.9900 .
C12 H12B 0.9900 .
C12 C13 1.519(5) .
C13 H13A 0.9800 .
C13 H13B 0.9800 .
C13 H13C 0.9800 .
loop_
_geom_torsion_atom_site_label_1
_geom_torsion_atom_site_label_2
_geom_torsion_atom_site_label_3
_geom_torsion_atom_site_label_4
_geom_torsion
Rh1 C1 C2 C3 60.1(2)
Rh1 C1 C2 C7 -120.0(3)
Rh1 C1 C5 C4 -59.4(2)
Rh1 C1 C5 C10 123.7(3)
Rh1 C2 C3 C4 59.5(2)
Rh1 C2 C3 C8 -121.3(3)
Rh1 C3 C4 C5 61.5(2)
Rh1 C3 C4 C9 -121.2(3)
Rh1 C4 C5 C1 59.2(2)
Rh1 C4 C5 C10 -124.0(3)
Rh1 C5 C10 C11 178.8(3)
C1 C2 C3 Rh1 -59.3(2)
C1 C2 C3 C4 0.2(4)
C1 C2 C3 C8 179.4(3)
C1 C5 C10 C11 87.6(4)
C2 C1 C5 Rh1 62.0(2)
C2 C1 C5 C4 2.6(4)
C2 C1 C5 C10 -174.3(3)
C2 C3 C4 Rh1 -60.1(2)
C2 C3 C4 C5 1.4(4)
C2 C3 C4 C9 178.7(3)
C3 C4 C5 Rh1 -61.6(2)
C3 C4 C5 C1 -2.4(4)
C3 C4 C5 C10 174.4(3)
C4 C5 C10 C11 -88.7(4)
C5 C1 C2 Rh1 -61.8(2)
C5 C1 C2 C3 -1.7(4)
C5 C1 C2 C7 178.2(3)
C5 C10 C11 C12 -177.3(3)
C6 C1 C2 Rh1 121.4(3)
C6 C1 C2 C3 -178.4(3)
C6 C1 C2 C7 1.5(5)
C6 C1 C5 Rh1 -121.3(3)
C6 C1 C5 C4 179.3(3)
C6 C1 C5 C10 2.4(5)
C7 C2 C3 Rh1 120.9(3)
C7 C2 C3 C4 -179.7(3)
C7 C2 C3 C8 -0.4(5)
C8 C3 C4 Rh1 120.6(3)
C8 C3 C4 C5 -177.8(3)
C8 C3 C4 C9 -0.6(5)
C9 C4 C5 Rh1 121.2(3)
C9 C4 C5 C1 -179.7(3)
C9 C4 C5 C10 -2.9(5)
C10 C11 C12 C13 -177.6(3)
loop_
_twin_individual_id
_twin_individual_mass_fraction_refined
1 0.7825(6)
2 0.2175(6)
