#------------------------------------------------------------------------------
#$Date: 2019-11-24 12:26:56 +0200 (Sun, 24 Nov 2019) $
#$Revision: 237902 $
#$URL: file:///home/coder/svn-repositories/cod/cif/4/08/89/4088962.cif $
#------------------------------------------------------------------------------
#
# This file is available in the Crystallography Open Database (COD),
# http://www.crystallography.net/
#
# All data on this site have been placed in the public domain by the
# contributors.
#
data_4088962
loop_
_publ_author_name
'Brown, Loren C.'
'Ressegue, Emily'
'Merola, Joseph S.'
_publ_section_title
;
 Rapid Access to Derivatized, Dimeric, Ring-Substituted
 Dichloro(cyclopentadienyl)rhodium(III) and Iridium(III) Complexes
;
_journal_issue                   24
_journal_name_full               Organometallics
_journal_page_first              4014
_journal_paper_doi               10.1021/acs.organomet.6b00580
_journal_volume                  35
_journal_year                    2016
_chemical_formula_moiety         'C28 H42 Cl4 Ir2'
_chemical_formula_sum            'C28 H42 Cl4 Ir2'
_chemical_formula_weight         904.81
_space_group_crystal_system      triclinic
_space_group_IT_number           2
_space_group_name_Hall           '-P 1'
_space_group_name_H-M_alt        'P -1'
_atom_sites_solution_hydrogens   geom
_atom_sites_solution_primary     direct
_audit_creation_date             2016-04-30
_audit_creation_method
;
Olex2 1.2
(compiled 2016.02.19 svn.r3266 for OlexSys, GUI svn.r5155)
;
_cell_angle_alpha                99.228(2)
_cell_angle_beta                 109.651(2)
_cell_angle_gamma                96.017(2)
_cell_formula_units_Z            1
_cell_length_a                   8.2486(2)
_cell_length_b                   8.8636(3)
_cell_length_c                   10.6121(3)
_cell_measurement_reflns_used    16798
_cell_measurement_temperature    100.2(8)
_cell_measurement_theta_max      32.1640
_cell_measurement_theta_min      4.1010
_cell_volume                     710.63(4)
_computing_cell_refinement       'CrysAlisPro 1.171.38.41 (Rigaku OD, 2015)'
_computing_data_collection       'CrysAlisPro 1.171.38.41 (Rigaku OD, 2015)'
_computing_data_reduction        'CrysAlisPro 1.171.38.41 (Rigaku OD, 2015)'
_computing_molecular_graphics    'Olex2 (Dolomanov et al., 2009)'
_computing_publication_material  'Olex2 (Dolomanov et al., 2009)'
_computing_structure_refinement  'ShelXL (Sheldrick, 2015)'
_computing_structure_solution    'ShelXT (Sheldrick, 2015)'
_diffrn_ambient_environment      N~2~
_diffrn_ambient_temperature      100.2(8)
_diffrn_detector                 'CCD plate'
_diffrn_detector_area_resol_mean 8.0061
_diffrn_detector_type            Eos
_diffrn_measured_fraction_theta_full 0.997
_diffrn_measured_fraction_theta_max 0.941
_diffrn_measurement_details
;
List of Runs (angles in degrees, time in seconds):

  # Type    Start    End  Width  t~exp~   \w     \q     \k     \f   Frames
--------------------------------------------------------------------------
  1  \w    -83.00  13.00   1.00    3.00    --  -29.69 113.00 -17.00   96
  2  \w   -102.00   3.00   1.00    3.00    --  -29.69 -77.00-120.00  105
  3  \w   -102.00   3.00   1.00    3.00    --  -29.69 -77.00  90.00  105
  4  \w   -102.00   3.00   1.00    3.00    --  -29.69 -77.00-180.00  105
  5  \w    -50.00  44.00   1.00    3.00    --  -29.69  38.00 -30.00   94
  6  \w   -100.00  -6.00   1.00    3.00    --  -29.69 -57.00 -30.00   94
  7  \w   -109.00 -35.00   1.00    3.00    --  -29.69-178.00   0.00   74
  8  \w   -109.00 -35.00   1.00    3.00    --  -29.69-178.00 120.00   74
  9  \w   -100.00  -6.00   1.00    3.00    --  -29.69 -57.00 -90.00   94
 10  \w    -50.00  44.00   1.00    3.00    --  -29.69  38.00-150.00   94
 11  \w   -112.00 -32.00   1.00    3.00    --  -29.69 178.00  90.00   80
 12  \w   -103.00   2.00   1.00    3.00    --  -29.69 -38.00  30.00  105
 13  \w    -53.00  41.00   1.00    3.00    --  -29.69  57.00 120.00   94
 14  \w   -112.00 -87.00   1.00    3.00    --  -29.69 178.00-180.00   25
 15  \w   -102.00   3.00   1.00    3.00    --  -29.69 -77.00  30.00  105
;
_diffrn_measurement_device       'four-circle diffractometer'
_diffrn_measurement_device_type  'Xcalibur, Eos, Gemini ultra'
_diffrn_measurement_method       '\w scans'
_diffrn_orient_matrix_type
'CrysAlisPro convention (1999,Acta A55,543-557)'
_diffrn_orient_matrix_UB_11      0.0636283000
_diffrn_orient_matrix_UB_12      0.0682005000
_diffrn_orient_matrix_UB_13      0.0313407000
_diffrn_orient_matrix_UB_21      0.0075213000
_diffrn_orient_matrix_UB_22      0.0042092000
_diffrn_orient_matrix_UB_23      -0.0640408000
_diffrn_orient_matrix_UB_31      -0.0669513000
_diffrn_orient_matrix_UB_32      0.0458397000
_diffrn_orient_matrix_UB_33      -0.0135413000
_diffrn_radiation_monochromator  graphite
_diffrn_radiation_probe          x-ray
_diffrn_radiation_type           MoK\a
_diffrn_radiation_wavelength     0.71073
_diffrn_reflns_av_R_equivalents  0.0370
_diffrn_reflns_av_unetI/netI     0.0231
_diffrn_reflns_Laue_measured_fraction_full 0.997
_diffrn_reflns_Laue_measured_fraction_max 0.941
_diffrn_reflns_limit_h_max       12
_diffrn_reflns_limit_h_min       -12
_diffrn_reflns_limit_k_max       12
_diffrn_reflns_limit_k_min       -13
_diffrn_reflns_limit_l_max       15
_diffrn_reflns_limit_l_min       -15
_diffrn_reflns_number            21939
_diffrn_reflns_point_group_measured_fraction_full 0.997
_diffrn_reflns_point_group_measured_fraction_max 0.941
_diffrn_reflns_theta_full        26.000
_diffrn_reflns_theta_max         32.359
_diffrn_reflns_theta_min         3.596
_diffrn_source                   'fine-focus sealed X-ray tube'
_diffrn_source_type              'Enhance (Mo) X-ray Source'
_exptl_absorpt_coefficient_mu    9.746
_exptl_absorpt_correction_T_max  0.275
_exptl_absorpt_correction_T_min  0.032
_exptl_absorpt_correction_type   analytical
_exptl_absorpt_process_details
;
CrysAlisPro 1.171.38.41 (Rigaku Oxford Diffraction, 2015)
Analytical numeric absorption correction using a multifaceted crystal
			model based on expressions derived by R.C. Clark & J.S. Reid.
(Clark, R. C. & Reid, J. S. (1995). Acta Cryst. A51, 887-897)
Empirical absorption correction using spherical harmonics,
 implemented in SCALE3 ABSPACK scaling algorithm.
;
_exptl_crystal_colour            orange
_exptl_crystal_colour_primary    orange
_exptl_crystal_density_diffrn    2.114
_exptl_crystal_description       block
_exptl_crystal_F_000             432
_exptl_crystal_size_max          0.643
_exptl_crystal_size_mid          0.407
_exptl_crystal_size_min          0.173
_refine_diff_density_max         1.254
_refine_diff_density_min         -1.337
_refine_diff_density_rms         0.136
_refine_ls_extinction_method     none
_refine_ls_goodness_of_fit_ref   1.105
_refine_ls_hydrogen_treatment    constr
_refine_ls_matrix_type           full
_refine_ls_number_parameters     158
_refine_ls_number_reflns         4787
_refine_ls_number_restraints     0
_refine_ls_restrained_S_all      1.105
_refine_ls_R_factor_all          0.0179
_refine_ls_R_factor_gt           0.0169
_refine_ls_shift/su_max          0.003
_refine_ls_shift/su_mean         0.000
_refine_ls_structure_factor_coef Fsqd
_refine_ls_weighting_details
'w=1/[\s^2^(Fo^2^)+(0.0200P)^2^+0.3818P] where P=(Fo^2^+2Fc^2^)/3'
_refine_ls_weighting_scheme      calc
_refine_ls_wR_factor_gt          0.0410
_refine_ls_wR_factor_ref         0.0415
_reflns_Friedel_coverage         0.000
_reflns_number_gt                4619
_reflns_number_total             4787
_reflns_threshold_expression     'I > 2\s(I)'
_cod_data_source_file            om6b00580_si_002.cif
_cod_data_source_block           2o_lbx-062abs
_cod_original_cell_volume        710.63(3)
_cod_database_code               4088962
_chemical_oxdiff_formula         'C28 H42 Cl4 Ir2'
_chemical_oxdiff_usercomment     'LBI97 @ 100K'
_shelx_space_group_comment
;
The symmetry employed for this shelxl refinement is uniquely defined
by the following loop, which should always be used as a source of
symmetry information in preference to the above space-group names.
They are only intended as comments.
;
_reflns_odcompleteness_completeness 99.76
_reflns_odcompleteness_iscentric 1
_reflns_odcompleteness_theta     26.32
_olex2_refinement_description
;
1. Others
 Fixed Uiso: H6A(0.028) H6B(0.028) H6C(0.028) H7A(0.027) H7B(0.027) H7C(0.027)
 H8A(0.03) H8B(0.03) H8C(0.03) H9A(0.033) H9B(0.033) H9C(0.033) H10(0.021)
 H11A(0.021) H11B(0.021) H12A(0.041) H12B(0.041) H13A(0.042) H13B(0.042)
 H14A(0.035) H14B(0.035)
 Fixed X: H6A(0.9657) H6B(0.8998) H6C(1.0335) H7A(0.9307) H7B(0.7663)
 H7C(0.7634) H8A(0.5536) H8B(0.3972) H8C(0.3989) H9A(0.3427) H9B(0.2915)
 H9C(0.4234) H10(0.5867) H11A(0.8493) H11B(0.9483) H12A(0.9264) H12B(0.959)
 H13A(0.7047) H13B(0.6292) H14A(0.6578) H14B(0.4853)
 Fixed Y: H6A(0.1286) H6B(-0.0159) H6C(0.13) H7A(0.1233) H7B(-0.0146)
 H7C(0.138) H8A(0.3043) H8B(0.1727) H8C(0.35) H9A(0.419) H9B(0.2895)
 H9C(0.4459) H10(0.3398) H11A(0.4495) H11B(0.3478) H12A(0.2958) H12B(0.1641)
 H13A(0.0451) H13B(0.2052) H14A(0.0294) H14B(0.0902)
 Fixed Z: H6A(0.6714) H6B(0.7253) H6C(0.8318) H7A(1.0219) H7B(0.9621)
 H7C(1.0643) H8A(1.0345) H8B(0.9301) H8C(0.9163) H9A(0.7168) H9B(0.5797)
 H9C(0.6029) H10(0.4886) H11A(0.5017) H11B(0.607) H12A(0.348) H12B(0.4377)
 H13A(0.2594) H13B(0.2507) H14A(0.4617) H14B(0.3752)
;
_shelx_res_file
;
    lbx-062abs.res created by SHELXL-2014/7

TITL lbx-062abs_a.res in P-1
REM Old TITL LBX-062abs in P-1 #2
REM SHELXT solution in P-1
REM R1 0.036, Rweak 0.012, Alpha 0.104, Orientation as input
REM Formula found by SHELXT: C14 Cl2 Ir
CELL 0.71073 8.248585 8.863589 10.61205 99.2278 109.6505 96.0166
ZERR 1 0.000196 0.000265 0.000272 0.0024 0.0023 0.0022
LATT 1
SFAC C H Cl Ir
UNIT 28 42 4 2

L.S. 8
PLAN  5
TEMP -173
BOND $H
LIST 6
fmap 2 53
MORE -1
ACTA 52
CONF
REM <olex2.extras>
REM <HklSrc "%.\\LBX-062abs.hkl">
REM </olex2.extras>

WGHT    0.020000    0.381800
FVAR       0.51957
IR1   4    0.791773    0.407539    0.854197    11.00000    0.00905    0.01042 =
         0.01161    0.00165    0.00495    0.00243
CL1   3    0.747731    0.660092    0.810432    11.00000    0.02105    0.01309 =
         0.02851    0.00637    0.00738    0.00462
CL2   3    1.102386    0.485331    0.896800    11.00000    0.01118    0.01966 =
         0.01352   -0.00190    0.00674    0.00051
C1    1    0.782565    0.172082    0.757553    11.00000    0.01431    0.01252 =
         0.01303    0.00200    0.00702    0.00264
C2    1    0.724700    0.171269    0.870836    11.00000    0.01422    0.01088 =
         0.01446    0.00204    0.00627    0.00209
C3    1    0.572058    0.248183    0.845719    11.00000    0.01192    0.01272 =
         0.01633    0.00188    0.00704    0.00047
C4    1    0.536009    0.293180    0.715757    11.00000    0.01235    0.01461 =
         0.01455    0.00204    0.00456    0.00194
C5    1    0.669381    0.251710    0.661789    11.00000    0.01475    0.01291 =
         0.01167    0.00150    0.00526    0.00137
C6    1    0.933549    0.097180    0.745457    11.00000    0.02082    0.01817 =
         0.02181    0.00532    0.01244    0.00985
AFIX 137
H6A   2    0.965733    0.128604    0.671416    11.00000   -1.50000
H6B   2    0.899752   -0.015887    0.725280    11.00000   -1.50000
H6C   2    1.033549    0.130016    0.831794    11.00000   -1.50000
AFIX   0
C7    1    0.803032    0.098190    0.990091    11.00000    0.02231    0.01818 =
         0.01782    0.00836    0.00900    0.00583
AFIX 137
H7A   2    0.930720    0.123282    1.021931    11.00000   -1.50000
H7B   2    0.766285   -0.014611    0.962121    11.00000   -1.50000
H7C   2    0.763391    0.138041    1.064320    11.00000   -1.50000
AFIX   0
C8    1    0.471756    0.270765    0.939788    11.00000    0.01785    0.01974 =
         0.02583    0.00290    0.01410    0.00209
AFIX 137
H8A   2    0.553576    0.304299    1.034529    11.00000   -1.50000
H8B   2    0.397185    0.172742    0.930062    11.00000   -1.50000
H8C   2    0.398935    0.350018    0.916269    11.00000   -1.50000
AFIX   0
C9    1    0.385457    0.368368    0.647961    11.00000    0.01294    0.02452 =
         0.02711    0.00865    0.00325    0.00600
AFIX 137
H9A   2    0.342706    0.418982    0.716789    11.00000   -1.50000
H9B   2    0.291483    0.289515    0.579711    11.00000   -1.50000
H9C   2    0.423386    0.445945    0.602896    11.00000   -1.50000
AFIX   0
C10   1    0.672382    0.270678    0.523585    11.00000    0.01725    0.01935 =
         0.01304    0.00382    0.00433   -0.00100
AFIX  13
H10   2    0.586748    0.339849    0.488621    11.00000   -1.20000
AFIX   0
C11   1    0.852417    0.343251    0.519272    11.00000    0.01839    0.01886 =
         0.01631    0.00334    0.00718    0.00169
AFIX  23
H11A  2    0.849298    0.449470    0.501683    11.00000   -1.20000
H11B  2    0.948328    0.347811    0.607000    11.00000   -1.20000
AFIX   0
C12   1    0.878142    0.235109    0.401778    11.00000    0.03719    0.03713 =
         0.02969   -0.00463    0.02274   -0.00543
AFIX  23
H12A  2    0.926414    0.295827    0.348011    11.00000   -1.20000
H12B  2    0.959030    0.164133    0.437701    11.00000   -1.20000
AFIX   0
C13   1    0.696896    0.144080    0.313605    11.00000    0.04543    0.03921 =
         0.01640   -0.00404    0.01756   -0.01486
AFIX  23
H13A  2    0.704670    0.045074    0.259370    11.00000   -1.20000
H13B  2    0.629210    0.205248    0.250704    11.00000   -1.20000
AFIX   0
C14   1    0.614245    0.115328    0.418267    11.00000    0.03630    0.02957 =
         0.01522   -0.00282    0.01033   -0.01283
AFIX  23
H14A  2    0.657835    0.029439    0.461738    11.00000   -1.20000
H14B  2    0.485332    0.090212    0.375150    11.00000   -1.20000
AFIX   0
HKLF 4

REM  lbx-062abs_a.res in P-1
REM R1 =  0.0169 for    4619 Fo > 4sig(Fo)  and  0.0179 for all    4787 data
REM    158 parameters refined using      0 restraints

END

WGHT      0.0200      0.3813

REM Highest difference peak  1.254,  deepest hole -1.337,  1-sigma level  0.136
Q1    1   0.7580  0.4765  0.8220  11.00000  0.05    1.25
Q2    1   0.8358  0.4024  0.8037  11.00000  0.05    1.24
Q3    1   0.8700  0.4731  0.9005  11.00000  0.05    0.99
Q4    1   0.8606  0.4905  0.8753  11.00000  0.05    0.98
Q5    1   0.8222  0.3351  0.8840  11.00000  0.05    0.89
;
_shelx_res_checksum              1186
_shelx_hkl_file
;
   0   0  -2  649.86   22.61
   0   0  -2  651.31   20.29
   0   0   2  754.51   23.84
   0   0   2  722.25   22.64
   0   0   2  824.63   27.16
   0   0  -2  618.67   12.62
   0   0  -2  667.51   17.90
   0   0  -3 5316.87   78.84
   0   0   3 6258.92   86.58
   0   0  -3 5358.10   78.64
   0   0  -3 5324.95   71.75
   0   0   3 6382.73   89.85
   0   0   3 6693.16   87.63
   0   0  -3 5455.79   85.49
   0   0  -3 5284.50   58.14
   0   0   4 4760.91   76.61
   0   0   4 4404.65   71.02
   0   0  -4 3921.07   63.46
   0   0  -4 3907.46   48.37
   0   0  -4 3757.97   69.78
   0   0   4 4684.13   76.22
   0   0  -4 4161.00   76.45
   0   0  -4 3871.60   70.56
   0   0   5  289.81   17.81
   0   0  -5  247.71   17.68
   0   0   5  285.75   17.94
   0   0  -5  258.06   17.52
   0   0   5  258.08   16.02
   0   0  -5  236.16    9.93
   0   0  -5  217.02   16.34
   0   0  -5  264.99   15.83
   0   0   6 1817.55   44.79
   0   0  -6 1673.52   49.29
   0   0  -6 1763.30   29.85
   0   0  -6 1753.62   43.68
   0   0  -6 1744.56   47.55
   0   0   6 1980.35   48.48
   0   0   6 1976.12   49.31
   0   0   7 2367.31   52.08
   0   0   7 2334.01   51.80
   0   0  -7 2223.13   53.40
   0   0  -7 2121.76   55.30
   0   0  -7 2277.75   50.76
   0   0  -7 2274.59   33.78
   0   0   7 2417.24   51.31
   0   0   8  617.65   26.07
   0   0  -8  590.71   24.94
   0   0  -8  604.66   26.93
   0   0   8  590.29   23.61
   0   0   8  605.05   24.85
   0   0  -8  564.55   27.73
   0   0  -9  149.41   13.42
   0   0   9  157.61   13.19
   0   0  -9  134.03   12.53
   0   0   9  130.61   11.45
   0   0   9  119.95   10.44
   0   0  -9  137.95   12.00
   0   0  -9  116.92   12.38
   0   0 -10  738.85   30.65
   0   0 -10  816.01   29.98
   0   0 -10  731.89   32.20
   0   0  10  809.06   33.25
   0   0  10  813.37   30.29
   0   0  10  748.33   27.83
   0   0 -11  508.75   27.11
   0   0 -11  436.77   23.56
   0   0 -11  549.19   24.71
   0   0  11  520.13   24.52
   0   0  11  485.19   22.81
   0   0  11  495.53   26.21
   0   0  12   17.61    5.70
   0   0 -12   16.05    5.11
   0   0  12   17.56    4.71
   0   0  12    7.58    3.48
   0   0 -13  251.20   19.84
   0   0 -13  222.52   16.71
   0   0  13  274.50   18.38
   0   0  13  238.15   18.74
   0   0 -14  306.39   19.57
   0   0  14  337.76   22.87
   0   0 -14  370.90   24.43
   0   1 -14  334.94   20.73
   0  -1  14  346.69   23.48
   0   1 -14  365.15   24.92
   0   1 -13   19.90    5.69
   0  -1  13   23.99    5.67
   0   1 -13   20.84    4.12
   0  -1  13   25.12    6.03
   0   1 -12  425.21   23.07
   0  -1  12  470.64   26.78
   0  -1  12  463.44   23.41
   0   1 -12  461.32   27.79
   0  -1  12  470.21   23.58
   0   1 -11  798.41   31.99
   0  -1  11  922.29   33.08
   0  -1  11  817.82   30.75
   0   1 -11  899.17   33.09
   0   1 -11  821.56   37.07
   0  -1  11  833.38   35.80
   0  -1  10  306.49   18.44
   0   1 -10  320.29   22.94
   0  -1  10  360.01   20.17
   0   1 -10  312.45   19.37
   0  -1  10  328.40   22.45
   0   1 -10  320.62   20.41
   0  -1   9  544.36   24.82
   0   1  -9  558.00   30.57
   0   1  -9  553.94   25.75
   0  -1   9  587.74   29.68
   0  -1   9  511.73   20.58
   0  -1   9  573.30   25.34
   0   1  -9  498.18   26.05
   0  -1   8 1335.16   38.69
   0  -1   8 1295.57   34.07
   0  -1   8 1357.81   45.32
   0   1  -8 1341.54   45.09
   0   1  -8 1207.55   41.01
   0   1  -8 1258.68   37.86
   0  -1   8 1309.96   39.97
   0   1  -7  936.05   19.72
   0  -1   7 1318.14   40.81
   0   1  -7 1096.19   38.52
   0  -1   7 1195.27   35.48
   0   1  -7 1079.70   32.69
   0   1  -7 1057.50   19.70
   0   1  -7 1105.37   38.21
   0  -1   7 1170.46   40.92
   0  -1   7 1249.65   33.67
   0   1  -6    3.83    1.34
   0  -1   6    4.53    2.47
   0   1  -6   10.32    4.02
   0  -1   6   12.46    4.67
   0  -1   6   26.96    6.51
   0   1  -6   23.19    2.61
   0  -1   6   11.94    3.89
   0   1  -6    6.15    2.59
   0   1  -6   13.36    4.24
   0   1  -5 1952.69   37.33
   0   1  -5 1623.15   24.43
   0   1  -5 1846.31   25.78
   0  -1   5 1897.46   48.50
   0  -1   5 2684.82   50.67
   0   1  -5 1933.04   24.44
   0  -1   5 1835.25   40.88
   0   1  -5 1959.71   42.56
   0  -1   5 2595.40   59.71
   0   1  -5 1974.38   49.15
   0  -1   4 4717.13   68.63
   0   1  -4 3829.70   41.22
   0  -1   4 3782.56   57.94
   0   1  -4 4044.47   57.25
   0  -1   4 3821.59   63.86
   0   1  -4 3988.60   51.89
   0   1  -4 4646.03   48.36
   0   1  -4 3806.89   39.54
   0   1  -4 3790.56   65.32
   0  -1   4 4846.52   83.15
   0   1  -3 2634.33   28.67
   0   1  -3 2710.24   34.38
   0   1  -3 2447.84   26.33
   0  -1   3 2732.34   37.15
   0  -1   3 3170.56   49.67
   0  -1   3 2718.10   42.21
   0  -1   3 2642.99   58.00
   0   1  -3 3044.86   41.88
   0   1  -3 2648.41   36.95
   0  -1   2  934.62   17.27
   0   1  -2  970.18   13.29
   0   1  -2  902.81   15.06
   0   1  -2  948.98   14.61
   0  -1   2  959.87   13.45
   0   1  -2  999.66   25.65
   0  -1  -2 3135.16   42.55
   0   1   2 3142.66   45.29
   0   1   2 2946.57   41.32
   0  -1  -2 3192.82   39.65
   0  -1  -2 2995.28   44.16
   0  -1  -2 2914.75   40.43
   0   1   3 7447.47   74.43
   0  -1  -3 7277.33   94.31
   0   1   3 7010.96  104.32
   0   1   3 8136.74   97.49
   0   1   3 8897.18  120.28
   0  -1  -3 8044.52  105.87
   0  -1  -3 7958.46   90.54
   0   1   4 2778.01   33.06
   0   1   4 3187.68   65.15
   0   1   4 3894.63   62.58
   0  -1  -4 3135.30   53.74
   0  -1  -4 2945.45   57.43
   0  -1  -4 3023.72   62.21
   0   1   4 3916.55   73.66
   0   1   5  219.44   14.46
   0   1   5  187.46   15.28
   0  -1  -5  161.35   11.99
   0  -1  -5  153.58   13.51
   0  -1  -5  147.02   12.48
   0   1   5  215.00   16.51
   0   1   6 4442.38   78.68
   0  -1  -6 3906.24   52.97
   0  -1  -6 3818.78   74.82
   0   1   6 4576.16   72.23
   0  -1  -6 3720.91   65.63
   0  -1  -6 3829.05   70.72
   0   1   6 4088.42   74.32
   0   1   7 1016.36   34.27
   0   1   7  982.41   30.35
   0  -1  -7 1010.39   35.90
   0  -1  -7  926.29   32.40
   0   1   7  975.11   32.94
   0  -1  -7  986.78   31.24
   0  -1  -7  944.42   35.40
   0  -1  -7  975.82   22.10
   0   1   8    5.87    3.35
   0  -1  -8    5.54    4.01
   0  -1  -8    1.81    2.63
   0  -1  -8    1.82    4.01
   0  -1  -8    5.88    3.46
   0   1   8    4.52    3.57
   0   1   8    0.77    1.98
   0   1   9 1540.37   40.03
   0  -1  -9 1706.86   48.49
   0  -1  -9 1756.62   43.11
   0   1   9 1689.22   44.92
   0  -1  -9 1582.65   44.08
   0   1   9 1735.13   40.80
   0  -1  -9 1647.79   43.89
   0   1  10  671.18   27.96
   0  -1 -10  676.39   27.57
   0  -1 -10  552.37   25.96
   0   1  10  660.62   25.09
   0   1  10  591.34   23.89
   0  -1 -10  636.64   29.42
   0  -1 -10  676.38   26.53
   0  -1 -11   10.76    4.25
   0  -1 -11    8.45    4.25
   0   1  11    7.96    3.25
   0   1  11    6.66    3.88
   0   1  11    6.21    3.25
   0  -1 -11   16.91    5.68
   0   1  12  279.10   18.32
   0  -1 -12  268.91   19.73
   0  -1 -12  224.08   15.90
   0   1  12  256.75   19.17
   0   1  13  445.64   25.50
   0  -1 -13  443.48   26.14
   0   1  13  472.34   24.72
   0   1  14  164.05   14.95
   0  -1 -14  130.97   12.49
   0   1  14  155.19   15.67
   0  -2  15  386.96   23.19
   0   2 -14  129.57   15.52
   0   2 -14  131.17   13.50
   0  -2  14  116.54   12.82
   0  -2  14  142.81   15.95
   0  -2  13   60.90   10.62
   0   2 -13   60.55    8.86
   0   2 -13   56.49   10.08
   0  -2  13   53.15    8.47
   0   2 -12  942.42   43.11
   0  -2  12  951.14   40.81
   0  -2  12  879.05   33.76
   0   2 -12  958.88   36.33
   0   2 -12  849.21   34.38
   0   2 -11  652.32   35.82
   0  -2  11  542.96   25.99
   0  -2  11  593.52   32.02
   0   2 -11  546.04   27.50
   0  -2  11  636.44   28.30
   0   2 -11  575.59   28.02
   0   2 -10   -0.14    2.74
   0  -2  10    7.44    3.87
   0  -2  10    0.03    3.19
   0   2 -10    0.17    3.92
   0  -2  10    1.66    2.86
   0   2 -10    1.43    4.52
   0   2  -9 1212.21   38.19
   0   2  -9 1288.51   43.24
   0  -2   9 1397.70   40.88
   0  -2   9 1375.66   48.45
   0   2  -9 1310.11   46.15
   0  -2   9 1328.70   41.82
   0  -2   8 2365.19   43.58
   0  -2   8 2307.37   62.58
   0   2  -8 2198.21   56.63
   0   2  -8 2150.67   48.52
   0  -2   8 2269.71   52.12
   0   2  -8 2080.82   57.23
   0  -2   7  563.60   28.77
   0  -2   7  645.06   21.17
   0   2  -7  625.60   15.14
   0   2  -7  566.15   29.55
   0  -2   7  591.49   23.76
   0  -2   7  700.24   30.86
   0   2  -7  595.43   22.27
   0   2  -7  630.90   16.15
   0   2  -7  621.84   26.47
   0  -2   6 1471.56   34.01
   0   2  -6 1571.89   49.11
   0  -2   6 1433.35   42.09
   0   2  -6 1577.22   38.17
   0  -2   6 1819.27   51.71
   0   2  -6 1462.95   25.97
   0  -2   6 1616.74   34.08
   0   2  -6 1504.43   33.10
   0   2  -6 1689.28   29.94
   0  -2   5 3850.81   64.24
   0   2  -5 3870.11   56.80
   0  -2   5 4472.29   85.35
   0   2  -5 4114.13   75.14
   0   2  -5 3800.99   52.58
   0  -2   5 3935.65   52.14
   0   2  -5 3818.33   47.00
   0  -2   5 3942.64   57.02
   0   2  -5 4411.62   59.29
   0  -2   4 1660.19   30.69
   0   2  -4 1906.31   28.05
   0   2  -4 2138.04   43.93
   0  -2   4 1865.03   26.57
   0  -2   4 1809.33   34.93
   0   2  -4 2097.59   44.90
   0  -2   4 1795.40   51.48
   0   2  -4 1775.12   30.48
   0   2  -4 1812.91   29.08
   0   2  -3  422.09   11.14
   0  -2   3  338.51   19.88
   0  -2   3  419.64    8.45
   0   2  -3  438.22   11.67
   0  -2   3  414.02   12.60
   0   2  -3  470.57   16.52
   0   2  -3  476.24   21.74
   0   2  -3  397.25   11.21
   0   2  -2 1363.64   19.99
   0   2  -2 1488.63   23.45
   0  -2   2 1372.03   21.12
   0   2  -2 1384.14   22.39
   0  -2   2 1530.67   15.84
   0  -2   2 1394.34   21.80
   0   2  -2 1306.49   41.02
   0  -2   2 1297.84   33.71
   0  -2   1 5939.11   55.15
   0   2  -1 5340.72   50.28
   0   2  -1 4780.65   90.53
   0   2  -1 5956.81   52.66
   0  -2   1 5566.88   61.81
   0   2  -1 5341.43   51.50
   0  -2   1 5908.97   52.84
   0   2   0   34.79    6.88
   0   2   0   21.74    1.31
   0  -2   0   26.53    2.43
   0   2   0   39.75    5.77
   0  -2   0   29.32    2.42
   0  -2   0   30.08    1.79
   0  -2   0   27.06    2.05
   0   2   0   27.38    1.84
   0   2   1  244.40   16.87
   0  -2  -1  229.39    7.49
   0  -2  -1  235.42    6.33
   0  -2  -1  238.46    7.57
   0  -2  -2 1334.53   24.29
   0   2   2 1344.20   43.31
   0  -2  -2 1379.07   22.31
   0   2   2 1375.29   20.39
   0   2   2 1378.66   34.54
   0  -2  -2 1319.06   24.19
   0  -2  -3 3725.84   52.13
   0   2   3 3656.39   52.84
   0  -2  -3 3676.82   53.05
   0  -2  -3 3673.34   49.67
   0   2   4  118.38   13.19
   0   2   4   93.71    6.56
   0  -2  -4   92.43    8.86
   0  -2  -4   98.79   10.10
   0   2   4   87.74   10.32
   0  -2  -4   93.85    8.18
   0  -2  -4   91.60    8.03
   0   2   4  118.61    9.24
   0  -2  -5 1515.86   37.54
   0  -2  -5 1341.74   37.86
   0   2   5 1883.49   39.36
   0   2   5 1336.63   24.51
   0   2   5 1338.58   42.54
   0  -2  -5 1497.78   45.67
   0   2   5 1829.45   51.87
   0  -2  -6 1866.63   52.41
   0   2   6 1943.61   51.84
   0   2   6 2338.89   45.01
   0  -2  -6 1785.98   45.42
   0   2   6 1693.44   25.08
   0  -2  -6 1835.17   43.94
   0   2   6 2190.92   54.69
   0  -2  -7  216.21   17.64
   0  -2  -7  210.40   14.77
   0  -2  -7  208.71   14.99
   0   2   7  210.77   16.32
   0   2   7  242.69   13.68
   0   2   7  203.64   15.60
   0  -2  -8  320.93   21.50
   0  -2  -8  297.30   18.15
   0   2   8  326.56   16.13
   0  -2  -8  350.52   19.34
   0   2   8  334.11   20.22
   0   2   8  299.32   17.98
   0   2   9  718.52   27.71
   0   2   9  776.75   31.01
   0  -2  -9  761.62   28.11
   0  -2  -9  786.78   33.67
   0  -2  -9  757.45   29.25
   0  -2  -9  820.11   33.86
   0  -2  -9  821.14   29.79
   0   2   9  808.60   26.11
   0  -2 -10  242.35   16.37
   0  -2 -10  251.75   19.04
   0   2  10  262.52   18.42
   0  -2 -10  259.02   16.76
   0   2  10  222.31   15.15
   0  -2 -10  197.12   15.11
   0  -2 -11  113.71   11.20
   0   2  11  116.24   12.48
   0  -2 -11  140.68   12.49
   0  -2 -11  138.62   14.41
   0  -2 -11  106.74   11.11
   0   2  12  808.48   34.02
   0   2  12  768.86   32.28
   0  -2 -12  791.21   34.36
   0  -2 -13  411.15   25.15
   0   2  13  373.09   23.57
   0  -2 -13  345.37   18.87
   0   2  13  377.06   23.20
   0   3 -14   -1.14    4.22
   0  -3  14   -6.60    5.35
   0   3 -14   -8.72    7.28
   0  -3  14   -9.11    7.44
   0  -3  13  235.35   18.10
   0   3 -13  274.81   24.82
   0  -3  13  261.12   22.64
   0   3 -13  212.01   17.34
   0  -3  12  527.43   27.19
   0  -3  12  588.64   33.74
   0   3 -12  476.95   26.37
   0   3 -12  596.43   29.83
   0   3 -12  542.58   34.27
   0  -3  11  269.47   19.41
   0   3 -11  264.84   20.02
   0   3 -11  264.37   18.91
   0  -3  11  252.11   21.98
   0   3 -11  261.79   22.29
   0  -3  10  295.54   23.85
   0   3 -10  299.97   19.38
   0  -3  10  310.16   20.99
   0   3 -10  297.82   22.87
   0   3 -10  259.24   19.53
   0  -3   9 2382.43   68.69
   0   3  -9 2425.83   54.02
   0   3  -9 2602.69   64.27
   0  -3   9 2743.15   65.14
   0  -3   9 2421.85   53.00
   0   3  -9 2154.06   60.21
   0  -3   8 1810.27   40.67
   0  -3   8 1729.58   53.67
   0   3  -8 1826.44   48.29
   0   3  -8 1703.88   41.34
   0   3  -8 1674.92   53.56
   0   3  -7   13.45    3.18
   0  -3   7   15.20    3.74
   0   3  -7   11.51    5.23
   0  -3   7   13.69    4.62
   0   3  -7   17.93    4.86
   0   3  -7   17.50    3.98
   0   3  -7   22.26    3.50
   0  -3   7   15.63    5.24
   0   3  -6 3179.47   67.13
   0  -3   6 3175.83   73.50
   0  -3   6 3072.29   42.26
   0   3  -6 2973.88   50.82
   0   3  -6 2981.28   48.12
   0   3  -6 2914.43   46.58
   0   3  -6 3273.69   56.25
   0  -3   6 3140.29   58.85
   0  -3   5 3794.32   81.69
   0   3  -5 4197.88   56.72
   0  -3   5 4226.25   62.51
   0   3  -5 4396.46   56.16
   0   3  -5 4619.24   74.47
   0  -3   5 4258.80   46.94
   0   3  -5 4278.95   57.59
   0   3  -5 4721.34   75.07
   0   3  -4 1121.70   37.94
   0   3  -4 1056.69   24.00
   0   3  -4 1000.80   21.40
   0  -3   4 1023.16   23.68
   0  -3   4  986.37   23.83
   0   3  -4 1126.56   28.29
   0  -3   4  999.13   15.45
   0   3  -3 1537.44   25.27
   0  -3   3 1486.13   25.95
   0  -3   3 1472.13   40.77
   0  -3   3 1470.59   26.81
   0   3  -3 1579.93   28.39
   0   3  -3 1496.24   48.26
   0  -3   2 4793.46   66.82
   0   3  -2 4757.37   50.38
   0  -3   2 4840.92   51.02
   0   3  -2 4672.92   49.81
   0  -3   2 4652.15   53.28
   0  -3   1 2837.14   37.14
   0  -3   1 2767.26   32.85
   0   3  -1 2945.76   29.87
   0  -3   1 2883.86   36.89
   0   3  -1 2773.08   34.11
   0   3  -1 2732.98   38.56
   0  -3   0   98.47    5.55
   0  -3   0  100.66    5.35
   0   3   0  109.24   13.59
   0   3   0  102.56    3.47
   0  -3   0  100.42    3.89
   0  -3   0   97.38    4.75
   0   3   0   96.44    4.33
   0   3   0  108.27   10.35
   0  -3  -1 1713.50   26.60
   0  -3  -1 1677.96   26.13
   0  -3  -1 1681.23   22.25
   0  -3  -1 1665.80   23.67
   0  -3  -2 2805.75   40.30
   0  -3  -2 3004.08   41.05
   0  -3  -2 2959.67   36.97
   0   3   2 2835.65   69.08
   0   3   2 2964.48   61.24
   0  -3  -3   51.02    5.62
   0  -3  -3   49.43    5.55
   0  -3  -3   43.66    4.59
   0   3   3   63.78    5.06
   0   3   3   60.33   10.47
   0   3   3   45.86    6.27
   0   3   4  486.07   18.59
   0  -3  -4  565.01   20.45
   0  -3  -4  551.89   21.20
   0  -3  -4  563.53   19.69
   0  -3  -4  552.88   22.77
   0  -3  -5 1499.13   38.30
   0  -3  -5 1403.99   39.21
   0   3   5 1306.90   44.27
   0   3   5 1894.33   36.07
   0  -3  -5 1447.35   36.84
   0   3   5 1357.07   30.02
   0  -3  -5 1420.91   44.29
   0   3   5 1873.85   53.62
   0   3   6  169.68   15.32
   0  -3  -6  152.80   12.71
   0   3   6  156.04   15.00
   0   3   6  183.46   10.79
   0  -3  -6  171.23   16.67
   0   3   6  175.98    9.25
   0  -3  -6  159.74   13.17
   0   3   7    8.45    5.54
   0   3   7    8.76    3.81
   0  -3  -7    8.19    4.02
   0   3   7    9.38    2.62
   0  -3  -7   19.33    5.04
   0  -3  -8  756.30   30.30
   0  -3  -8  714.99   34.65
   0   3   8  711.40   28.86
   0  -3  -8  702.98   28.60
   0   3   8  731.95   31.60
   0  -3  -9  478.47   28.12
   0  -3  -9  465.52   23.87
   0   3   9  434.43   22.17
   0  -3  -9  449.87   22.63
   0   3   9  473.29   25.29
   0  -3 -10    0.61    2.19
   0  -3 -10    6.97    3.39
   0  -3 -10   10.68    5.88
   0   3  10    4.10    3.98
   0  -3 -10    8.23    4.34
   0  -3 -10    9.14    4.63
   0  -3 -11  293.41   21.73
   0  -3 -11  305.16   22.22
   0  -3 -11  237.83   15.32
   0  -3 -11  233.91   16.42
   0   3  11  263.69   19.22
   0  -3 -12  640.24   32.49
   0   3  12  645.30   30.79
   0   3  13  115.37   13.69
   0   3  13  111.23   13.34
   0  -4  14  140.71   14.85
   0   4 -14  149.20   15.07
   0   4 -14  202.33   22.72
   0  -4  14  182.63   19.99
   0  -4  13  660.26   37.89
   0   4 -13  537.52   29.35
   0   4 -13  678.71   40.36
   0  -4  13  591.33   29.92
   0  -4  12  304.80   21.58
   0   4 -12  304.80   25.55
   0   4 -12  269.84   20.72
   0  -4  12  288.19   25.11
   0  -4  12  322.33   23.39
   0  -4  11   18.10    6.86
   0  -4  11    8.63    5.94
   0   4 -11   10.53    4.56
   0  -4  11   23.36    6.90
   0   4 -11    6.15    4.11
   0  -4  10 1128.68   42.46
   0   4 -10 1161.32   44.20
   0  -4   9 1290.41   46.41
   0   4  -9 1235.70   41.40
   0  -4   9 1201.86   46.61
   0  -4   8  169.43    9.69
   0  -4   8  158.15   15.29
   0  -4   8  168.31   16.58
   0   4  -8  148.64   15.32
   0   4  -8  171.25   12.07
   0  -4   8  146.95   14.19
   0   4  -8  157.37   12.98
   0  -4   7  848.42   31.00
   0   4  -7  873.86   29.68
   0  -4   7  808.81   18.90
   0  -4   7  855.09   31.14
   0   4  -7  828.99   33.64
   0  -4   7  883.65   39.12
   0   4  -7  868.70   27.39
   0   4  -7  792.37   25.23
   0   4  -6 3014.01   61.76
   0  -4   6 2722.07   34.81
   0  -4   6 2506.53   67.57
   0   4  -6 2984.45   59.99
   0   4  -6 2667.97   49.56
   0  -4   6 2845.47   53.68
   0   4  -6 2712.20   46.61
   0  -4   6 2860.70   52.81
   0   4  -5 3337.31   71.43
   0  -4   5 3004.63   49.02
   0   4  -5 2935.26   51.57
   0   4  -5 2995.92   45.80
   0   4  -5 3237.55   55.26
   0  -4   5 3189.30   34.46
   0  -4   5 3008.47   50.84
   0  -4   4   70.75    6.07
   0   4  -4   76.81    6.55
   0  -4   4   66.47    9.95
   0   4  -4   62.60    5.40
   0   4  -4   65.83    6.83
   0  -4   4   76.03    6.71
   0   4  -4   93.07   12.49
   0   4  -3 2631.21   73.96
   0   4  -3 2856.31   38.91
   0  -4   3 2777.21   39.46
   0   4  -3 2719.21   38.81
   0  -4   3 2720.97   41.68
   0   4  -2 5685.32   62.82
   0  -4   2 5808.11   62.16
   0  -4   2 5867.10   73.32
   0  -4   2 5884.66   67.65
   0  -4   1  682.00   15.57
   0   4  -1  609.43   35.96
   0   4  -1  642.54   15.83
   0  -4   1  676.71   17.48
   0  -4   1  671.67   16.14
   0  -4   1  696.37   15.20
   0   4  -1  621.31   11.30
   0   4  -1  737.48   20.06
   0  -4   0 1804.03   29.65
   0   4   0 1857.65   26.20
   0   4   0 1797.69   44.04
   0  -4   0 1851.65   27.40
   0  -4   0 1858.85   30.90
   0  -4   0 1911.96   23.25
   0   4   0 1915.71   60.56
   0   4   1 3833.94   43.07
   0  -4  -1 3746.62   48.57
   0  -4  -1 3924.74   49.67
   0  -4  -1 3831.40   42.57
   0  -4  -1 3887.80   45.34
   0  -4  -2 1315.14   26.95
   0   4   2 1261.80   47.02
   0  -4  -2 1377.93   27.31
   0  -4  -2 1342.87   23.34
   0   4   2 1377.51   43.69
   0  -4  -3  344.10   12.88
   0  -4  -3  337.03   14.75
   0  -4  -3  339.29   14.63
   0   4   3  304.51   17.90
   0   4   4 1841.35   43.06
   0  -4  -4 1973.15   44.21
   0  -4  -4 2020.01   44.99
   0   4   4 2481.96   64.41
   0   4   4 2468.24   32.26
   0  -4  -4 2204.85   42.00
   0  -4  -4 2154.55   42.08
   0   4   5  876.10   26.79
   0   4   5 1123.26   22.28
   0  -4  -5 1019.85   32.06
   0  -4  -5  975.78   30.14
   0   4   5 1124.16   41.40
   0  -4  -5 1000.78   32.13
   0  -4  -5  949.25   35.04
   0   4   5  750.01   35.12
   0  -4  -6   57.32    9.38
   0  -4  -6   52.64    7.60
   0   4   6   64.31   10.50
   0   4   6   82.42   11.14
   0   4   6   56.12    6.39
   0  -4  -6   54.35    7.67
   0  -4  -7  922.80   41.93
   0   4   7  850.06   33.41
   0  -4  -7  803.07   31.57
   0  -4  -7  913.86   34.09
   0   4   7  826.31   36.48
   0   4   8  854.52   32.74
   0   4   8  898.32   36.94
   0  -4  -8  836.69   32.38
   0  -4  -8  895.32   41.79
   0  -4  -8  921.59   35.24
   0  -4  -9   82.84   10.23
   0   4   9   67.74    9.25
   0   4   9   86.09   11.76
   0  -4  -9   73.25   12.06
   0  -4  -9   89.18   11.42
   0  -4 -10  206.27   19.62
   0  -4 -10  172.76   14.18
   0   4  10  167.36   16.20
   0  -4 -10  215.73   17.44
   0  -4 -11  723.13   29.42
   0  -4 -11  857.94   39.57
   0   4  11  797.76   35.42
   0  -4 -11  856.36   39.43
   0  -4 -12  227.18   20.14
   0   4  12  197.80   17.85
   0  -5  14  581.39   37.52
   0   5 -14  492.20   28.98
   0  -5  14  508.62   28.83
   0   5 -14  611.78   40.37
   0  -5  13  539.94   29.82
   0   5 -13  492.41   29.13
   0   5 -13  621.24   39.16
   0  -5  13  564.14   37.36
   0  -5  13  582.57   32.63
   0   5 -12   -6.12    6.00
   0  -5  12    7.00    4.88
   0   5 -12   -3.79    6.23
   0  -5  12   -1.23    3.55
   0  -5  12   -7.04    8.58
   0   5 -11  585.62   32.63
   0  -5  11  657.96   39.48
   0  -5  11  648.11   35.90
   0  -5  11  741.59   35.74
   0   5 -11  763.43   38.35
   0  -5  10 1506.33   55.43
   0   5 -10 1385.46   51.78
   0  -5  10 1678.42   55.38
   0  -5  10 1504.94   54.44
   0   5 -10 1607.35   50.85
   0  -5   9  252.47   20.55
   0   5  -9  273.78   18.49
   0  -5   9  256.94   21.80
   0   5  -9  240.44   20.14
   0  -5   9  270.22   21.06
   0   5  -8  166.02   15.86
   0  -5   8  155.59   17.13
   0   5  -8  174.81   13.26
   0  -5   8  183.73   16.10
   0  -5   8  175.98   15.34
   0   5  -8  168.81   13.63
   0   5  -7 1041.87   35.97
   0   5  -7 1086.31   37.63
   0  -5   7 1038.79   34.54
   0  -5   7 1041.42   33.13
   0  -5   7  965.06   43.02
   0   5  -7 1008.66   29.24
   0  -5   6 1670.95   38.15
   0  -5   6 1636.89   40.06
   0   5  -6 1611.70   35.15
   0   5  -5  207.38   12.05
   0   5  -5  200.12   19.26
   0   5  -5  174.99   10.17
   0  -5   5  179.92   10.83
   0  -5   5  175.31   17.24
   0  -5   5  184.23   11.83
   0  -5   4 1251.15   29.79
   0   5  -4 1250.11   26.83
   0   5  -4 1433.54   55.64
   0  -5   4 1306.32   28.02
   0  -5   4 1386.68   43.09
   0   5  -4 1295.29   27.72
   0   5  -3 2882.61   38.95
   0   5  -3 2775.31   42.03
   0  -5   3 2831.07   41.58
   0  -5   3 2751.58   45.57
   0   5  -2 1551.93   63.68
   0   5  -2 1582.24   29.22
   0  -5   2 1641.92   28.37
   0   5  -2 1718.77   24.69
   0  -5   2 1664.22   32.90
   0  -5   2 1706.99   32.47
   0  -5   1   34.68    3.48
   0  -5   1   24.13    3.78
   0   5  -1   29.34    9.28
   0   5  -1   23.06    2.18
   0  -5   1   26.58    3.31
   0  -5   1   26.67    3.77
   0   5   0 1226.16   51.60
   0  -5   0 1270.66   27.13
   0   5   0 1224.85   36.87
   0  -5   0 1263.30   23.84
   0  -5   0 1307.48   26.73
   0  -5   0 1271.53   19.03
   0  -5  -1 2239.82   33.85
   0  -5  -1 2218.73   31.11
   0   5   1 1991.78   54.82
   0  -5  -1 2252.23   37.61
   0   5   1 2386.08   67.56
   0  -5  -1 2217.57   37.58
   0   5   1 2114.18   31.33
   0  -5  -2   23.09    3.68
   0   5   2   19.10    5.59
   0  -5  -2   21.09    3.70
   0   5   2   23.70    3.05
   0   5   2   26.31    6.35
   0  -5  -2   25.45    3.28
   0   5   3 1463.59   49.35
   0  -5  -3 1391.00   32.82
   0  -5  -3 1463.85   28.89
   0   5   3 1426.43   43.30
   0  -5  -3 1507.88   34.13
   0   5   4 1959.45   48.36
   0  -5  -4 2109.16   46.04
   0   5   4 2339.76   63.12
   0  -5  -4 2092.89   46.39
   0  -5  -4 2216.39   41.89
   0   5   5  153.46   16.24
   0  -5  -5  214.80   14.22
   0  -5  -5  234.36   16.16
   0   5   5  203.23   17.61
   0   5   5  188.56   13.45
   0  -5  -5  183.98   14.89
   0  -5  -5  213.92   14.23
   0  -5  -6  645.01   27.19
   0  -5  -6  627.57   27.74
   0  -5  -6  632.11   32.15
   0  -5  -6  685.57   29.21
   0   5   6  615.46   29.65
   0   5   7 1711.33   49.26
   0  -5  -7 1890.25   51.72
   0  -5  -7 1710.48   48.39
   0  -5  -7 1894.27   63.70
   0   5   7 1717.02   55.45
   0  -5  -8  508.30   27.08
   0  -5  -8  463.04   31.62
   0   5   8  438.45   23.92
   0  -5  -8  451.89   24.22
   0   5   8  503.62   29.07
   0   5   9  175.85   17.00
   0  -5  -9  203.14   20.87
   0  -5  -9  176.91   14.85
   0  -5  -9  200.43   17.77
   0  -5 -10 1137.52   42.49
   0  -5 -10 1099.87   48.52
   0   5  10 1079.41   42.45
   0   5  11  772.96   36.09
   0  -5 -11  780.25   40.23
   0  -6  13  223.27   25.08
   0  -6  13  230.66   22.05
   0   6 -13  206.07   19.52
   0  -6  13  251.98   21.35
   0   6 -13  292.87   26.66
   0   6 -12   46.28    8.86
   0  -6  12   76.90   12.28
   0   6 -12   98.82   14.97
   0  -6  12   53.93   11.07
   0  -6  12   74.58   13.91
   0   6 -11 1427.23   51.71
   0  -6  11 1368.46   56.17
   0   6 -11 1112.35   47.47
   0  -6  11 1384.04   52.10
   0  -6  11 1207.37   52.19
   0   6 -10 1018.84   39.06
   0  -6  10 1011.01   44.85
   0  -6  10 1042.40   45.00
   0  -6  10 1135.24   48.06
   0   6  -9   13.04    5.04
   0   6  -9   17.15    5.81
   0  -6   9   -0.65    7.62
   0  -6   9   12.09    5.70
   0  -6   9   13.98    6.16
   0  -6   8 1025.98   38.15
   0   6  -8 1042.04   38.75
   0  -6   8  941.95   45.14
   0  -6   8 1043.89   36.30
   0   6  -8  998.36   36.91
   0   6  -8  987.65   31.96
   0   6  -7 2352.16   46.99
   0  -6   7 2176.05   48.31
   0   6  -7 2287.16   62.76
   0   6  -7 2212.51   50.76
   0  -6   7 2207.31   52.54
   0  -6   6  465.44   21.44
   0   6  -6  503.11   20.49
   0   6  -6  477.61   19.02
   0  -6   6  491.24   30.67
   0   6  -6  559.32   32.89
   0  -6   6  474.03   19.78
   0  -6   5  494.52   18.68
   0   6  -5  478.64   18.25
   0   6  -5  586.27   36.49
   0  -6   5  566.94   30.13
   0   6  -5  522.10   18.38
   0  -6   5  494.15   20.45
   0  -6   4 2028.43   42.10
   0   6  -4 1995.03   72.72
   0  -6   4 2192.34   51.25
   0   6  -4 2033.13   38.55
   0   6  -4 2051.65   35.28
   0  -6   4 2072.81   38.11
   0  -6   3  627.19   22.03
   0   6  -3  629.43   15.94
   0   6  -3  589.41   40.54
   0  -6   3  600.37   18.24
   0   6  -3  581.55   18.90
   0  -6   3  603.67   21.15
   0  -6   2   15.47    3.25
   0  -6   2   19.95    3.20
   0  -6   2    9.06    2.64
   0  -6   2    7.83    2.95
   0   6  -2    9.37    1.83
   0   6  -2   11.50    8.19
   0  -6   1  946.05   24.15
   0  -6   1  935.21   25.31
   0   6  -1  846.40   16.04
   0  -6   1  953.46   19.45
   0  -6   1  931.58   21.61
   0   6  -1  822.51   46.54
   0  -6   0 1354.04   20.38
   0  -6   0 1428.16   27.75
   0  -6   0 1406.98   30.68
   0  -6   0 1390.46   25.07
   0   6   0 1420.63   57.70
   0  -6   0 1367.41   30.93
   0   6   0 1332.50   39.52
   0  -6  -1  159.59    7.86
   0  -6  -1  167.61   10.38
   0   6   1  162.94   17.73
   0   6   1  174.99    8.71
   0   6   1  161.88   15.04
   0  -6  -1  163.78   10.26
   0  -6  -1  164.44    8.97
   0   6   2  234.28   10.28
   0   6   2  204.50   18.05
   0  -6  -2  228.70   12.67
   0   6   2  219.90   19.20
   0  -6  -2  236.48   12.73
   0  -6  -2  231.77   10.16
   0   6   3 1139.72   24.66
   0   6   3 1089.07   40.81
   0  -6  -3 1092.20   30.32
   0  -6  -3 1111.31   25.79
   0  -6  -3 1161.72   31.37
   0   6   3 1047.66   41.95
   0   6   4  537.20   29.78
   0   6   4  467.91   24.94
   0  -6  -4  527.42   23.23
   0  -6  -4  544.12   19.98
   0  -6  -4  538.11   22.97
   0   6   5  222.38   18.49
   0  -6  -5  205.87   16.07
   0  -6  -5  221.55   16.73
   0  -6  -5  228.27   14.76
   0   6   5  164.62   17.82
   0  -6  -5  220.34   14.92
   0   6   5  187.04   14.92
   0  -6  -6 1075.11   42.44
   0  -6  -6 1112.37   39.37
   0  -6  -6 1112.74   36.85
   0   6   6  973.47   42.78
   0   6   6 1052.14   39.97
   0  -6  -6 1119.61   37.87
   0  -6  -7 1008.96   37.74
   0  -6  -7  966.22   36.26
   0  -6  -7  950.82   44.75
   0   6   7 1020.86   43.74
   0   6   7  914.93   36.48
   0  -6  -8   21.89    7.39
   0  -6  -8   28.11    7.19
   0   6   8   35.91    9.77
   0   6   9  589.02   32.24
   0  -6  -9  616.41   32.21
   0  -6  -9  625.90   38.84
   0   6  10 1244.83   47.42
   0  -6 -10 1304.22   55.64
   0   7 -13    3.72    3.88
   0  -7  13    7.63    4.75
   0  -7  13    2.85    5.55
   0   7 -13   10.60    5.74
   0  -7  13    4.72    7.52
   0  -7  12  438.40   32.76
   0  -7  12  484.79   32.16
   0   7 -12  508.09   32.73
   0  -7  12  454.69   34.29
   0   7 -12  380.06   28.49
   0   7 -11 1308.32   48.54
   0  -7  11 1213.62   53.59
   0  -7  11 1345.22   54.22
   0  -7  11 1274.18   52.84
   0  -7  10  398.46   30.34
   0  -7  10  402.81   28.50
   0   7 -10  393.14   24.10
   0   7 -10  368.13   25.34
   0  -7  10  425.08   27.56
   0   7  -9  193.40   17.39
   0  -7   9  199.41   17.13
   0   7  -9  179.49   14.92
   0   7  -9  196.28   17.24
   0  -7   9  226.44   19.69
   0  -7   9  171.04   19.89
   0   7  -8 1319.80   48.50
   0  -7   8 1254.16   39.41
   0   7  -8 1226.01   39.53
   0  -7   8 1284.88   43.88
   0   7  -8 1240.20   36.60
   0   7  -7 1813.83   43.90
   0   7  -7 1680.52   41.05
   0  -7   7 1728.38   62.26
   0  -7   7 1698.27   42.82
   0  -7   7 1718.45   47.42
   0  -7   6   -2.07    3.56
   0   7  -6   -2.44    3.36
   0  -7   6    1.16    2.41
   0  -7   6    2.06    3.90
   0   7  -6    7.62    2.82
   0   7  -6    1.13    4.38
   0   7  -5 1910.00   37.18
   0  -7   5 1819.38   43.94
   0  -7   5 1889.15   39.89
   0   7  -5 1848.72   40.34
   0   7  -4 1514.60   67.98
   0   7  -4 1563.78   29.85
   0   7  -4 1508.77   34.88
   0  -7   4 1468.23   37.68
   0  -7   4 1567.77   40.84
   0  -7   4 1531.59   33.96
   0  -7   3  125.44    8.67
   0   7  -3  103.10   18.50
   0  -7   3  126.74    9.53
   0   7  -3  125.87    9.30
   0  -7   3  108.81    9.65
   0   7  -3  121.07    7.04
   0  -7   2  874.27   27.33
   0  -7   2  850.18   22.51
   0   7  -2  854.34   17.42
   0  -7   2  813.58   23.89
   0  -7   2  877.58   22.21
   0  -7   1 2001.91   39.59
   0   7  -1 1954.34   75.64
   0  -7   1 2097.03   31.75
   0  -7   1 1990.48   36.05
   0  -7   1 1965.94   41.52
   0  -7   0  394.94   17.29
   0  -7   0  420.38   15.53
   0   7   0  408.41   32.03
   0  -7   0  411.80   13.82
   0  -7   0  402.37   17.19
   0  -7  -1  377.40   16.96
   0   7   1  398.49   29.13
   0  -7  -1  393.99   15.25
   0  -7  -1  388.09   17.23
   0  -7  -1  380.25   13.36
   0   7   2 1606.29   31.11
   0  -7  -2 1496.91   29.41
   0   7   2 1403.77   52.14
   0  -7  -2 1501.81   36.57
   0  -7  -2 1601.20   37.22
   0   7   3  558.32   30.80
   0   7   3  492.28   28.53
   0   7   3  591.34   18.52
   0  -7  -3  555.33   22.77
   0  -7  -3  518.39   21.99
   0  -7  -3  522.24   18.01
   0   7   4   15.50    5.88
   0  -7  -4    5.48    2.73
   0   7   4    7.37    4.19
   0  -7  -4   10.71    3.68
   0  -7  -4    9.57    2.84
   0   7   4    4.67    3.51
   0  -7  -5  715.41   31.25
   0   7   5  659.45   30.25
   0   7   5  653.33   32.88
   0  -7  -5  695.66   27.74
   0  -7  -5  656.73   29.97
   0  -7  -6  760.51   36.66
   0  -7  -6  793.87   34.39
   0   7   6  737.82   38.79
   0  -7  -6  763.68   31.42
   0  -7  -7   96.47   12.20
   0   7   7   94.60   14.44
   0  -7  -7   89.71   11.25
   0  -7  -7   84.36   13.11
   0   7   8  180.33   19.06
   0  -7  -8  193.75   22.33
   0  -7  -8  194.10   18.08
   0   7   9  945.77   42.42
   0  -7  -9  856.95   47.13
   0  -7  -9  853.98   39.20
   0  -8  13  205.58   23.52
   0   8 -12  681.95   38.51
   0  -8  12  722.52   44.01
   0  -8  12  834.09   45.96
   0   8 -12  873.84   42.92
   0  -8  12  826.86   43.86
   0   8 -11  340.92   24.50
   0  -8  11  359.96   30.07
   0   8 -11  283.31   23.67
   0  -8  11  325.26   28.09
   0  -8  11  384.06   28.51
   0   8 -10    8.90    4.57
   0  -8  10    6.45    5.58
   0   8 -10    4.23    3.83
   0  -8  10    0.59    4.20
   0  -8  10   -2.33    8.38
   0  -8   9  480.57   29.50
   0   8  -9  443.10   29.05
   0   8  -9  428.05   23.49
   0  -8   9  444.39   25.41
   0   8  -9  427.22   24.59
   0   8  -8  964.08   33.54
   0  -8   8 1032.26   35.89
   0  -8   8  960.48   48.75
   0   8  -8 1017.62   34.97
   0  -8   8 1028.50   40.39
   0  -8   7  219.31   21.88
   0   8  -7  203.54   13.81
   0   8  -7  183.85   13.86
   0   8  -7  220.54   23.86
   0  -8   7  192.38   14.13
   0  -8   7  173.38   15.41
   0   8  -6  350.77   18.51
   0   8  -6  417.13   34.80
   0   8  -6  367.94   16.89
   0  -8   6  344.80   20.30
   0  -8   6  355.20   18.32
   0  -8   6  405.96   26.00
   0   8  -5 1270.70   35.03
   0   8  -5 1304.31   30.04
   0  -8   5 1314.44   34.12
   0  -8   5 1225.00   37.58
   0   8  -5 1403.22   68.01
   0  -8   5 1358.78   41.85
   0  -8   4  560.93   24.08
   0   8  -4  630.24   18.18
   0   8  -4  561.96   44.61
   0   8  -4  590.89   22.76
   0  -8   4  604.81   21.48
   0  -8   4  586.08   23.41
   0  -8   3   39.98    5.41
   0  -8   3   40.04    5.87
   0  -8   3   36.57    5.98
   0  -8   3   52.12    6.21
   0   8  -3   40.81   12.95
   0   8  -2 1347.64   68.68
   0  -8   2 1452.96   29.58
   0  -8   2 1379.44   31.34
   0  -8   2 1341.43   33.80
   0  -8   2 1427.95   37.76
   0  -8   1 1468.75   35.95
   0  -8   1 1550.98   33.22
   0   8  -1 1585.81   70.85
   0  -8   1 1568.39   30.47
   0  -8   1 1538.73   38.46
   0   8   0   26.24    8.87
   0  -8   0   34.35    4.79
   0  -8   0   25.90    4.78
   0  -8   0   29.23    3.98
   0  -8   0   24.65    4.60
   0   8   1 1254.78   54.02
   0  -8  -1 1258.37   34.38
   0  -8  -1 1255.36   26.95
   0  -8  -1 1277.44   34.82
   0  -8  -2 1865.95   44.19
   0   8   2 1775.22   61.68
   0  -8  -2 1861.22   43.53
   0   8   3  176.03   18.35
   0  -8  -3  184.48   13.96
   0  -8  -3  201.55   14.59
   0   8   4  767.97   36.42
   0  -8  -4  798.00   31.52
   0   8   4  762.87   40.83
   0  -8  -4  780.52   31.98
   0  -8  -5 1203.97   39.05
   0   8   5 1231.59   44.94
   0   8   5 1171.92   51.07
   0  -8  -5 1229.24   44.08
   0  -8  -5 1219.84   43.57
   0   8   6  375.17   28.05
   0  -8  -6  328.04   24.62
   0  -8  -6  380.57   24.95
   0  -8  -6  346.03   21.76
   0  -8  -7   25.47    6.37
   0  -8  -7   18.89    7.42
   0   8   7   32.39   10.42
   0   8   8  666.14   37.00
   0  -8  -8  626.23   33.51
   0  -8  -8  649.20   42.44
   0  -8  -9  550.00   32.08
   0  -9  12  365.67   30.09
   0   9 -12  267.83   24.14
   0  -9  12  325.66   31.56
   0  -9  12  312.47   28.80
   0  -9  11   -4.05    9.72
   0  -9  11    1.63    5.89
   0   9 -11    0.29    4.03
   0   9 -11    6.25    4.79
   0  -9  11   -2.99    6.87
   0  -9  10  427.52   34.91
   0   9 -10  481.82   27.54
   0  -9  10  495.84   34.06
   0  -9  10  511.33   29.89
   0   9 -10  430.96   26.32
   0  -9   9  569.33   33.71
   0   9  -9  555.13   27.40
   0  -9   9  591.42   29.50
   0  -9   9  501.06   37.22
   0   9  -9  541.98   27.38
   0   9  -9  554.72   35.64
   0   9  -8  267.11   26.28
   0   9  -8  259.93   17.04
   0  -9   8  258.84   25.21
   0  -9   8  236.85   20.60
   0  -9   8  234.58   17.55
   0   9  -8  222.66   17.03
   0   9  -7  125.75   19.14
   0  -9   7  146.64   16.96
   0   9  -7  119.92   10.67
   0  -9   7  113.78   11.55
   0   9  -7  126.78   12.36
   0  -9   7  112.80   13.34
   0   9  -6  617.08   26.28
   0  -9   6  590.72   28.08
   0   9  -6  730.61   49.52
   0  -9   6  690.04   32.33
   0  -9   6  640.92   25.86
   0  -9   5  177.36   14.33
   0  -9   5  185.54   13.11
   0   9  -5  187.32   14.02
   0   9  -5  195.09   27.40
   0  -9   5  176.89   14.90
   0  -9   4    2.92    2.61
   0  -9   4   -2.96    3.75
   0  -9   4   -0.78    2.84
   0   9  -4    1.02    5.88
   0  -9   4    2.83    2.37
   0  -9   3  339.51   17.67
   0  -9   3  380.19   20.65
   0  -9   3  361.65   16.80
   0   9  -3  354.03   37.86
   0  -9   2  984.03   27.62
   0  -9   2 1018.98   33.46
   0  -9   2  966.46   30.25
   0  -9   1  150.34   10.58
   0   9  -1  146.57   22.95
   0  -9   1  154.19   12.06
   0  -9   1  142.59   12.16
   0  -9   0  298.87   17.16
   0   9   0  346.68   32.67
   0  -9   0  323.09   15.55
   0  -9   0  315.00   17.93
   0   9   1 1401.83   60.21
   0  -9  -1 1388.38   38.73
   0  -9  -1 1426.46   39.74
   0  -9  -2  605.98   25.87
   0  -9  -2  577.34   25.51
   0   9   2  553.86   36.04
   0  -9  -3   51.04    7.90
   0   9   3   62.41   12.09
   0   9   3   54.95   11.30
   0  -9  -3   67.58    9.29
   0  -9  -4 1030.72   39.76
   0   9   4 1036.39   45.85
   0  -9  -4 1085.90   39.74
   0   9   4 1000.18   48.20
   0  -9  -5 1142.69   44.91
   0   9   5 1140.74   51.47
   0  -9  -5 1111.53   39.14
   0  -9  -5 1184.53   45.20
   0  -9  -6   80.85   11.34
   0   9   6   83.62   14.89
   0  -9  -6   65.30   11.43
   0   9   7  298.09   25.50
   0  -9  -7  291.65   27.04
   0  -9  -7  272.29   21.48
   0  -9  -8  998.16   43.97
   0 -10  11   52.34   11.30
   0  10 -11   49.18    9.76
   0 -10  11   35.29   10.12
   0 -10  11   32.18   10.02
   0  10 -10  537.78   30.38
   0 -10  10  583.61   37.82
   0 -10  10  444.66   36.67
   0 -10  10  533.64   30.65
   0  10 -10  562.63   29.38
   0 -10   9  391.06   33.15
   0  10  -9  404.81   32.92
   0  10  -9  365.45   23.69
   0 -10   9  399.57   29.14
   0 -10   9  368.91   23.97
   0 -10   8   12.13    5.61
   0  10  -8   23.75    9.08
   0 -10   8   20.34    5.98
   0 -10   8   15.32    6.71
   0  10  -8   17.54    6.04
   0  10  -7  757.05   31.72
   0 -10   7  747.61   35.09
   0 -10   7  728.58   30.06
   0 -10   7  770.74   37.38
   0  10  -6  470.59   24.42
   0 -10   6  443.50   26.06
   0 -10   6  482.17   23.08
   0 -10   6  508.49   26.31
   0 -10   5   47.77    7.32
   0  10  -5   51.77   16.12
   0 -10   5   37.75    7.06
   0 -10   5   34.82    6.58
   0 -10   4  265.97   17.08
   0  10  -4  327.52   37.82
   0 -10   4  307.91   16.97
   0 -10   4  297.79   19.89
   0 -10   3  588.87   25.23
   0  10  -3  613.29   52.53
   0 -10   3  622.14   28.23
   0 -10   3  633.74   23.68
   0  10  -2  217.21   30.32
   0 -10   2  188.61   14.17
   0 -10   2  207.62   13.21
   0 -10   2  187.31   15.35
   0 -10   1  319.79   19.46
   0 -10   1  293.65   17.97
   0  10  -1  338.45   35.37
   0 -10   1  332.21   16.74
   0 -10   0  678.19   24.33
   0 -10   0  636.71   26.91
   0  10   0  698.42   46.99
   0 -10   0  660.65   27.78
   0  10   1  450.77   35.97
   0 -10  -1  487.50   24.26
   0  10   1  505.52   34.75
   0 -10  -1  498.08   24.29
   0  10   2    8.85    4.44
   0 -10  -2   22.79    5.75
   0  10   2   32.26    9.40
   0 -10  -2   19.05    5.35
   0  10   3  337.85   27.91
   0  10   3  335.71   28.21
   0 -10  -3  368.02   22.93
   0 -10  -3  349.72   22.37
   0  10   4  747.47   41.11
   0  10   4  729.28   42.06
   0 -10  -4  712.37   35.16
   0 -10  -4  785.71   35.92
   0  10   5  365.12   29.50
   0 -10  -5  355.01   26.12
   0 -10  -5  349.52   26.06
   0 -10  -5  349.09   23.11
   0 -10  -6    4.39    3.80
   0 -10  -6   -0.01    5.86
   0  10   6   16.52    7.54
   0 -10  -7  659.02   35.28
   0 -11  10  448.11   28.80
   0 -11  10  398.32   35.17
   0  11  -9  165.87   16.72
   0 -11   9  188.03   20.63
   0  11  -9  153.05   21.66
   0 -11   9  149.20   20.28
   0 -11   9  166.86   16.80
   0 -11   8  141.09   14.65
   0  11  -8  139.13   21.59
   0  11  -8  142.14   15.22
   0 -11   8  151.28   17.37
   0  11  -7  882.31   58.75
   0 -11   7  794.87   32.47
   0 -11   7  764.67   32.79
   0 -11   7  772.98   37.10
   0  11  -7  805.25   34.60
   0 -11   6  340.10   23.67
   0 -11   6  319.30   20.73
   0 -11   6  355.59   20.78
   0  11  -6  393.29   40.53
   0 -11   5   60.62    8.24
   0  11  -5   55.32   16.39
   0 -11   5   58.02    9.75
   0 -11   5   53.49    8.20
   0 -11   4  925.32   34.39
   0  11  -4 1044.44   72.21
   0 -11   4  991.49   38.49
   0 -11   4 1002.36   32.49
   0  11  -3  837.42   63.02
   0 -11   3  802.89   31.42
   0 -11   3  811.90   28.45
   0 -11   3  821.47   34.26
   0 -11   2    3.69    2.92
   0  11  -2   -2.43    7.66
   0 -11   2   -3.93    5.12
   0 -11   2   -3.96    4.20
   0  11  -1  691.33   52.11
   0 -11   1  681.46   30.36
   0 -11   1  654.17   28.54
   0 -11   0  689.14   30.52
   0 -11   0  710.05   30.40
   0  11   0  730.07   49.87
   0 -11  -1  114.00   12.75
   0 -11  -1  105.25   11.88
   0  11   1  110.86   18.55
   0  11   2  208.04   24.38
   0 -11  -2  221.66   18.19
   0 -11  -2  201.48   17.20
   0 -11  -3  667.05   32.98
   0  11   3  619.87   39.98
   0  11   3  659.70   40.89
   0 -11  -3  647.71   33.38
   0 -11  -4  518.80   31.66
   0  11   4  560.12   37.16
   0 -11  -4  582.23   32.76
   0 -11  -4  565.34   29.77
   0  11   5    4.33    6.16
   0 -12   8  426.76   25.76
   0  12  -8  474.64   43.36
   0 -12   7  306.66   24.37
   0 -12   7  324.32   21.43
   0 -12   7  294.73   21.45
   0  12  -6   32.89   13.33
   0 -12   6   23.66    7.87
   0 -12   6   31.04    6.87
   0 -12   6   21.31    5.77
   0 -12   5  401.61   26.12
   0  12  -5  388.82   44.99
   0 -12   5  382.57   23.57
   0 -12   5  393.89   21.77
   0  12  -4  872.01   67.66
   0 -12   4  812.54   33.88
   0 -12   4  816.83   30.71
   0 -12   4  761.27   35.40
   0 -12   3  295.75   21.58
   0 -12   3  288.25   19.96
   0  12  -3  320.18   40.55
   0 -12   2  156.78   15.73
   0 -12   2  134.93   13.75
   0 -12   1  902.25   35.73
   0  12  -1  974.63   63.64
   0 -12   1  921.59   37.53
   0 -12   0  768.61   33.58
   0  12   0  756.31   53.21
   0 -12   0  780.27   34.62
   0 -12  -1  -10.48    6.41
   0 -12  -1   -4.02    5.21
   0  12   1    7.31    7.11
   0 -12  -2  672.68   34.12
   0  12   2  669.53   45.46
   0  12   3  735.61   46.45
   0 -12  -3  795.10   39.54
  -1  12   3  344.08   31.34
  -1  12   2   29.53   10.27
   1 -12  -2   19.77    5.83
   1 -12  -2   22.84    6.37
   1 -12  -1  807.21   34.83
   1 -12  -1  769.53   33.40
   1 -12   0  469.96   25.77
  -1  12   0  524.25   44.59
   1 -12   0  473.95   25.86
  -1  12  -1   21.93    9.12
   1 -12   1   25.47    5.68
   1 -12   1   21.01    5.85
  -1  12  -2  576.71   53.23
   1 -12   2  543.87   28.48
   1 -12   2  523.63   26.89
   1 -12   3  444.45   26.09
   1 -12   3  404.97   23.70
  -1  12  -3  473.03   49.93
   1 -12   4   18.85    5.13
   1 -12   4   19.18    6.34
  -1  12  -4   11.58    7.48
   1 -12   5  198.20   17.12
  -1  12  -5  254.83   37.38
   1 -12   5  234.04   19.99
   1 -12   6  426.20   27.89
   1 -12   6  412.28   24.90
   1 -12   7  156.60   15.01
  -1  12  -7  167.74   27.05
  -1  12  -8   37.19   11.81
   1 -12   8   48.73    9.40
  -1  11   5  388.02   28.28
   1 -11  -5  367.56   25.26
   1 -11  -4  468.14   28.33
  -1  11   4  448.33   30.83
  -1  11   4  455.98   34.15
   1 -11  -4  439.00   26.35
  -1  11   3   27.04    8.93
   1 -11  -3   28.71    6.37
   1 -11  -3   26.95    6.64
  -1  11   2  283.64   28.90
   1 -11  -2  326.35   21.51
   1 -11  -2  341.47   21.00
  -1  11   1  661.21   46.01
   1 -11  -1  646.04   29.25
   1 -11  -1  628.42   27.89
  -1  11   0  148.87   24.01
   1 -11   0  152.95   13.82
   1 -11   0  161.35   14.13
   1 -11   1   75.05    9.61
  -1  11  -1   82.40   19.34
   1 -11   1   69.45    9.24
   1 -11   2  691.17   29.16
  -1  11  -2  773.84   59.81
   1 -11   2  698.38   30.70
   1 -11   3  336.62   20.37
   1 -11   3  355.48   22.22
  -1  11  -3  363.27   42.62
   1 -11   4   23.53    5.17
   1 -11   4   16.85    4.96
  -1  11  -4    8.67   10.79
   1 -11   4   13.73    4.53
   1 -11   5  914.42   34.57
   1 -11   5  940.37   32.21
   1 -11   5  921.12   38.06
   1 -11   6  541.93   30.12
   1 -11   6  595.60   26.60
   1 -11   6  552.35   27.31
   1 -11   7    3.27    3.45
  -1  11  -7    0.10    4.22
  -1  11  -7    1.25    7.13
   1 -11   7    2.64    3.98
  -1  11  -8  513.45   28.82
   1 -11   8  556.95   28.36
  -1  11  -8  539.64   41.82
   1 -11   8  545.42   33.79
   1 -11   8  525.22   36.19
   1 -11   9  606.28   42.71
  -1  11  -9  602.74   32.40
   1 -11   9  674.30   40.00
   1 -11   9  601.15   31.58
   1 -11  10   22.85    8.14
  -1  10   7    7.25    6.24
   1 -10  -7   -1.21    4.44
   1 -10  -6  318.16   25.85
   1 -10  -6  340.55   23.97
  -1  10   6  384.99   27.65
   1 -10  -5  467.26   26.79
   1 -10  -5  488.29   29.25
  -1  10   5  510.33   32.32
   1 -10  -4   16.68    4.74
  -1  10   4   23.15    7.87
   1 -10  -4   15.99    4.42
  -1  10   4   35.72    9.75
   1 -10  -3  147.30   13.27
   1 -10  -3  116.75   12.45
  -1  10   3  121.55   17.50
   1 -10  -2  441.43   23.39
   1 -10  -2  424.21   21.76
  -1  10   2  404.63   32.93
  -1  10   2  508.20   34.88
   1 -10  -1  361.80   20.51
  -1  10   1  366.95   33.32
   1 -10  -1  376.56   20.20
  -1  10   0    6.71    6.27
   1 -10   0   -2.47    3.73
   1 -10   0   -2.49    4.22
   1 -10   1  438.88   21.78
   1 -10   1  428.98   18.10
  -1  10  -1  456.71   42.73
   1 -10   1  431.58   22.22
   1 -10   2  699.22   27.36
   1 -10   2  727.00   29.58
  -1  10  -2  744.99   57.45
   1 -10   2  725.12   23.97
   1 -10   3   67.45    7.46
   1 -10   3   73.07    8.93
  -1  10  -3   77.21   19.12
   1 -10   3   83.87   10.15
   1 -10   4  277.62   17.51
  -1  10  -4  323.59   39.11
   1 -10   4  329.60   17.21
   1 -10   4  326.84   20.74
   1 -10   5  946.00   36.59
   1 -10   5  897.98   32.39
   1 -10   5  918.61   30.75
  -1  10  -5  960.01   34.53
   1 -10   6  398.89   26.32
  -1  10  -6  376.63   21.95
   1 -10   6  368.98   19.94
   1 -10   6  377.67   23.94
   1 -10   7  124.10   16.94
  -1  10  -7  132.02   20.94
   1 -10   7  120.41   14.43
   1 -10   7  124.41   12.39
  -1  10  -7  116.08   12.63
  -1  10  -8  838.13   35.14
   1 -10   8  873.16   48.82
  -1  10  -8  918.03   50.19
  -1  10  -8  869.49   32.75
   1 -10   8  926.29   42.62
   1 -10   8  912.38   35.57
   1 -10   9  495.37   37.90
   1 -10   9  562.62   30.05
  -1  10  -9  565.71   30.17
   1 -10   9  583.62   36.28
  -1  10  -9  566.81   28.33
  -1  10 -10   21.61    6.89
   1 -10  10   10.31    6.13
   1 -10  10    3.94    7.21
  -1  10 -10   13.80    5.37
   1 -10  10   15.21    8.12
  -1  10 -11  348.71   26.30
  -1   9   8   79.51   13.02
   1  -9  -8   80.41   12.77
   1  -9  -8   78.42   14.50
   1  -9  -7  267.22   24.72
   1  -9  -7  255.95   21.03
  -1   9   7  311.72   24.17
   1  -9  -6  755.17   34.20
  -1   9   6  846.10   40.10
   1  -9  -6  764.68   38.19
  -1   9   5  389.98   28.21
   1  -9  -5  382.55   24.14
  -1   9   5  341.79   25.11
   1  -9  -5  356.17   22.13
   1  -9  -5  361.08   23.12
  -1   9   4   21.55    6.59
  -1   9   4   26.75    9.38
   1  -9  -4   23.38    4.94
   1  -9  -4   21.73    5.47
  -1   9   3  895.38   45.27
   1  -9  -3  956.86   33.96
   1  -9  -3 1003.10   32.60
  -1   9   2  627.21   37.57
  -1   9   2  571.83   37.54
   1  -9  -2  614.32   25.99
   1  -9  -2  614.35   24.42
  -1   9   1    7.17    4.03
   1  -9  -1   11.23    3.91
  -1   9   1    3.98    4.52
   1  -9  -1   11.73    3.42
   1  -9   0  971.55   26.09
   1  -9   0  963.62   30.98
   1  -9   0  970.04   30.93
  -1   9   0 1045.87   58.65
  -1   9   0 1012.34   49.53
   1  -9   1 1286.18   36.82
   1  -9   1 1314.23   30.86
   1  -9   1 1277.09   35.18
   1  -9   2   88.23    7.83
   1  -9   2   84.90    8.82
  -1   9  -2   95.03   19.85
   1  -9   2   90.68    9.84
   1  -9   3  197.21   13.48
  -1   9  -3  231.57   31.02
   1  -9   3  224.21   12.85
   1  -9   3  225.23   15.76
  -1   9  -4  919.76   24.83
   1  -9   4  910.07   32.81
   1  -9   4  886.04   27.41
   1  -9   4  845.53   28.71
   1  -9   4  978.32   33.36
  -1   9  -4  948.97   31.23
  -1   9  -4  959.93   61.95
  -1   9  -5  599.14   25.59
   1  -9   5  603.08   27.63
  -1   9  -5  708.60   50.17
   1  -9   5  635.08   31.23
  -1   9  -5  653.80   22.45
   1  -9   5  624.47   23.93
  -1   9  -6    5.56    3.42
   1  -9   6    0.39    3.86
   1  -9   6    5.07    3.67
  -1   9  -6    8.79    5.82
  -1   9  -6   -0.28    3.51
   1  -9   6    1.46    3.14
   1  -9   7  520.05   35.78
   1  -9   7  505.63   28.29
   1  -9   7  545.17   24.89
  -1   9  -7  554.37   38.95
  -1   9  -7  517.05   23.29
  -1   9  -7  491.51   24.47
   1  -9   8  926.39   49.60
  -1   9  -8 1040.21   37.32
  -1   9  -8 1073.69   36.62
  -1   9  -8 1058.83   50.60
   1  -9   8 1125.81   38.71
   1  -9   8 1089.07   44.44
   1  -9   9  299.92   21.57
  -1   9  -9  272.80   19.91
   1  -9   9  258.99   26.30
  -1   9  -9  275.52   20.22
   1  -9   9  289.72   25.06
   1  -9  10   82.86   14.39
  -1   9 -10   85.34   13.32
   1  -9  10   98.83   15.88
  -1   9 -10   83.66   12.13
   1  -9  10   97.79   13.92
  -1   9 -11  691.98   37.58
   1  -9  11  845.27   43.26
  -1   9 -11  834.96   40.58
   1  -9  11  719.99   44.74
   1  -9  11  828.10   45.51
   1  -8 -10  600.27   34.96
   1  -8  -9  262.58   22.69
   1  -8  -9  278.69   27.68
  -1   8   9  261.98   21.68
   1  -8  -8    2.84    7.74
   1  -8  -8    0.25    4.34
  -1   8   7  413.31   26.90
   1  -8  -7  377.15   24.50
   1  -8  -7  383.75   28.19
   1  -8  -6  713.31   31.91
  -1   8   6  770.61   37.62
   1  -8  -6  726.68   34.96
   1  -8  -5   76.70   10.13
   1  -8  -5   72.04    9.13
   1  -8  -5   68.18    9.76
  -1   8   5   68.13   10.81
  -1   8   5   82.50   13.11
   1  -8  -4  748.74   28.06
  -1   8   4  734.75   38.63
   1  -8  -4  705.94   28.55
   1  -8  -3 1485.70   37.54
  -1   8   3 1549.25   57.79
  -1   8   3 1403.13   53.69
  -1   8   3 1545.06   35.42
   1  -8  -3 1476.56   39.61
  -1   8   2  316.06   27.11
   1  -8  -2  326.34   17.30
   1  -8  -2  324.24   16.22
  -1   8   2  345.19   15.76
  -1   8   2  332.99   26.83
  -1   8   1  843.16   47.10
  -1   8   1  772.39   41.88
   1  -8  -1  753.79   25.83
   1  -8  -1  778.43   21.70
   1  -8  -1  723.55   24.55
   1  -8   0 2504.98   41.97
  -1   8   0 2561.28   90.30
  -1   8   0 2676.11   78.63
   1  -8   0 2495.24   48.41
   1  -8   0 2482.58   48.70
   1  -8   1  567.64   18.37
   1  -8   1  562.51   22.40
  -1   8  -1  556.17   44.30
   1  -8   1  552.93   21.01
   1  -8   2  299.03   16.59
   1  -8   2  277.77   12.85
   1  -8   2  299.54   15.32
  -1   8  -2  304.36   34.06
  -1   8  -2  290.15   11.45
   1  -8   2  305.73   14.00
   1  -8   3 2100.63   45.97
  -1   8  -3 2057.52   35.69
  -1   8  -3 1969.64   42.85
   1  -8   3 1967.72   38.36
  -1   8  -3 1930.45   85.61
   1  -8   3 2052.73   46.37
   1  -8   3 1935.28   41.28
   1  -8   4 1862.32   38.97
  -1   8  -4 1823.19   41.75
   1  -8   4 1767.42   44.09
  -1   8  -4 1807.12   79.49
  -1   8  -4 1834.61   36.38
   1  -8   4 1950.25   51.35
  -1   8  -5  137.53   11.30
  -1   8  -5  134.66    9.92
   1  -8   5  148.14   11.17
  -1   8  -5  141.09   20.55
   1  -8   5  120.30   11.64
   1  -8   5  164.24   17.19
  -1   8  -6  885.81   28.05
   1  -8   6  905.52   29.36
   1  -8   6  900.31   45.10
   1  -8   6  870.94   33.26
  -1   8  -6  939.23   49.74
  -1   8  -6  853.65   29.57
  -1   8  -7 1272.63   36.91
   1  -8   7 1282.73   43.60
  -1   8  -7 1247.77   37.22
  -1   8  -7 1304.61   54.46
   1  -8   7 1289.40   38.38
  -1   8  -8  315.85   19.44
   1  -8   8  329.67   28.48
  -1   8  -8  331.94   25.62
   1  -8   8  336.13   23.97
  -1   8  -8  339.94   20.66
   1  -8   8  335.31   20.85
  -1   8  -9   34.34    7.77
  -1   8  -9   33.55    7.15
   1  -8   9   32.88    9.80
   1  -8   9   20.54    7.11
   1  -8   9   34.07    8.13
   1  -8  10  699.01   40.05
   1  -8  10  702.10   36.93
  -1   8 -10  687.97   35.34
   1  -8  10  771.13   42.62
  -1   8 -10  727.83   34.34
  -1   8 -11  626.48   35.99
   1  -8  11  765.96   41.59
   1  -8  11  638.99   41.27
   1  -8  11  688.65   39.84
  -1   8 -11  750.56   37.96
  -1   8 -12   56.51   12.19
   1  -8  12   56.05   13.25
   1  -8  12   70.81   12.85
   1  -8  12   62.66   13.47
  -1   8 -12   79.24   13.56
   1  -7 -11  385.62   27.63
   1  -7 -10  378.71   27.44
  -1   7  10  371.31   25.41
   1  -7 -10  442.55   33.62
   1  -7  -9   11.34    5.60
   1  -7  -9    1.61    5.15
  -1   7   9   12.98    6.16
   1  -7  -8  202.34   21.80
  -1   7   8  207.93   18.95
   1  -7  -8  216.26   19.41
  -1   7   7  551.95   30.50
   1  -7  -7  574.01   29.40
   1  -7  -7  561.79   33.22
   1  -7  -6  231.00   17.54
   1  -7  -6  211.84   16.54
  -1   7   6  222.03   20.09
   1  -7  -6  214.42   18.00
   1  -7  -5  112.10   11.13
   1  -7  -5  120.40   11.72
   1  -7  -5  133.87   12.57
  -1   7   5  119.15   13.00
  -1   7   5  162.84   17.49
   1  -7  -4 1230.71   33.84
   1  -7  -4 1152.72   34.42
  -1   7   4 1248.12   30.72
  -1   7   4 1226.23   48.47
  -1   7   3  377.96   26.17
  -1   7   3  397.59   28.27
   1  -7  -3  442.89   18.16
   1  -7  -3  434.58   19.33
  -1   7   3  435.48   16.94
   1  -7  -2   45.06    4.19
   1  -7  -2   41.57    5.32
   1  -7  -2   37.83    5.20
  -1   7   2   42.95    5.46
  -1   7   2   38.71    9.41
  -1   7   2   30.36    7.63
   1  -7  -1 1593.88   36.18
   1  -7  -1 1541.53   25.65
   1  -7  -1 1604.96   34.81
   1  -7  -1 1621.75   30.34
  -1   7   1 1677.18   60.96
  -1   7   1 1647.43   33.12
   1  -7   0 1936.46   39.17
   1  -7   0 1946.95   33.69
   1  -7   0 1904.39   39.22
   1  -7   0 1898.56   29.42
  -1   7   0 1995.24   77.88
  -1   7  -1  157.15    7.59
  -1   7  -1  150.79   22.37
   1  -7   1  143.95    8.45
   1  -7   1  143.23   10.33
   1  -7   1  153.27    8.59
   1  -7   1  141.55    9.76
  -1   7  -2 1080.02   61.55
  -1   7  -2 1100.16   22.52
   1  -7   2 1154.91   29.58
   1  -7   2 1134.88   30.69
   1  -7   2 1065.22   27.37
   1  -7   2 1156.24   25.56
   1  -7   3 3153.60   48.56
   1  -7   3 3103.26   55.66
  -1   7  -3 3161.77   45.47
   1  -7   3 3275.96   63.36
  -1   7  -3 3118.17   52.36
  -1   7  -4 1256.13   31.79
  -1   7  -4 1281.64   62.22
   1  -7   4 1209.39   33.69
   1  -7   4 1244.75   29.70
  -1   7  -4 1174.80   27.77
   1  -7   4 1313.66   45.14
  -1   7  -5  559.77   38.11
  -1   7  -5  519.42   20.70
   1  -7   5  517.43   20.05
   1  -7   5  506.46   22.49
   1  -7   5  548.10   33.02
  -1   7  -5  524.11   19.43
   1  -7   6 2486.66   49.67
  -1   7  -6 2470.53   48.83
  -1   7  -6 2382.01   48.64
  -1   7  -6 2582.49   76.26
   1  -7   6 2369.74   54.57
   1  -7   7 1285.74   54.21
  -1   7  -7 1389.38   37.64
  -1   7  -7 1380.65   39.03
   1  -7   7 1376.42   39.16
  -1   7  -7 1418.65   51.58
   1  -7   7 1411.55   44.46
   1  -7   8   34.72    7.34
  -1   7  -8   30.85    7.70
  -1   7  -8   37.38    6.50
   1  -7   8   21.93    7.45
   1  -7   8   29.29    7.25
  -1   7  -8   42.18    7.71
   1  -7   9  661.74   36.00
   1  -7   9  695.77   33.77
   1  -7   9  739.05   39.80
  -1   7  -9  632.06   31.75
  -1   7  -9  622.41   28.93
  -1   7 -10  801.10   38.99
   1  -7  10  977.69   45.59
   1  -7  10  930.40   43.21
   1  -7  10  875.32   44.37
  -1   7 -10  939.29   39.15
  -1   7 -11  135.64   16.69
   1  -7  11  106.35   16.75
   1  -7  11  122.21   16.91
  -1   7 -11  104.07   14.99
   1  -7  11  138.11   16.80
   1  -7  12  133.19   16.27
   1  -7  12  151.08   19.13
   1  -7  12  120.73   17.83
  -1   7 -12  174.32   20.30
  -1   7 -12  127.07   17.06
   1  -7  13  378.89   30.25
  -1   6  11  675.61   33.31
   1  -6 -11  683.11   39.68
   1  -6 -11  701.18   35.78
  -1   6  10   41.26    8.76
   1  -6 -10   37.68    9.17
   1  -6 -10   50.73   11.64
   1  -6  -9  253.54   24.42
   1  -6  -9  237.06   20.28
  -1   6   9  224.76   19.01
   1  -6  -8  936.10   39.21
  -1   6   8  892.86   37.15
   1  -6  -8  976.29   47.72
  -1   6   7  351.93   23.33
   1  -6  -7  344.16   22.54
   1  -6  -7  342.90   25.36
   1  -6  -6  235.66   16.43
  -1   6   6  242.42   16.45
  -1   6   6  247.89   20.36
   1  -6  -6  234.91   17.13
   1  -6  -6  227.91   18.08
   1  -6  -5 1316.26   37.23
   1  -6  -5 1400.53   36.88
  -1   6   5 1384.99   49.38
   1  -6  -5 1365.54   39.04
   1  -6  -5 1354.13   39.59
  -1   6   5 1263.24   40.06
   1  -6  -4  775.63   23.02
  -1   6   4  716.47   35.96
  -1   6   4  712.93   31.32
   1  -6  -4  780.59   24.78
   1  -6  -4  723.37   25.52
   1  -6  -3    4.46    2.43
   1  -6  -3    8.44    2.29
   1  -6  -3    9.23    2.14
  -1   6   3    7.14    3.14
  -1   6   3   14.91    5.17
   1  -6  -2  709.61   22.12
  -1   6   2  764.64   38.85
   1  -6  -2  727.17   21.00
  -1   6   2  769.26   20.59
   1  -6  -2  734.94   16.46
  -1   6   2  707.22   36.55
   1  -6  -1 2080.39   28.60
   1  -6  -1 2162.80   38.15
   1  -6  -1 2134.73   39.20
  -1   6   1 2149.82   35.68
   1  -6  -1 2159.90   33.07
   1  -6   0  310.12   13.77
   1  -6   0  315.34   13.64
   1  -6   0  335.64   10.14
  -1   6   0  308.35   12.59
  -1   6   0  330.07   30.91
   1  -6   0  332.13   11.73
   1  -6   1  238.33   11.09
   1  -6   1  206.15   11.51
   1  -6   1  200.86    9.13
  -1   6  -1  188.48    8.00
  -1   6  -1  233.14   27.15
   1  -6   1  194.37   10.50
   1  -6   2 2181.84   45.39
  -1   6  -2 2028.35   37.23
   1  -6   2 2117.91   40.62
  -1   6  -2 2075.63   31.86
   1  -6   2 2135.56   34.30
  -1   6  -3 2496.70   38.44
   1  -6   3 2438.28   58.23
   1  -6   3 2353.33   44.28
  -1   6  -3 2456.08   42.12
  -1   6  -3 2309.48   82.67
   1  -6   3 2449.18   39.51
   1  -6   4  174.06   11.90
  -1   6  -4  180.85   10.89
   1  -6   4  186.83   10.58
   1  -6   4  194.06   18.85
  -1   6  -4  179.31   21.49
  -1   6  -4  189.96   10.45
  -1   6  -5 1566.09   58.73
  -1   6  -5 1559.70   34.43
   1  -6   5 1484.33   33.95
  -1   6  -5 1486.10   34.00
   1  -6   5 1494.82   38.17
   1  -6   6 1867.05   61.95
  -1   6  -6 1962.38   41.43
   1  -6   6 1959.35   48.14
   1  -6   6 2007.62   44.09
  -1   6  -6 1978.66   43.68
  -1   6  -6 2049.26   61.39
   1  -6   7  766.98   32.21
  -1   6  -7  763.68   29.32
   1  -6   7  840.62   41.61
   1  -6   7  781.38   29.76
  -1   6  -7  721.50   33.22
  -1   6  -7  713.36   25.88
  -1   6  -8   93.45   11.64
   1  -6   8   91.84   12.43
   1  -6   8  103.04   13.82
  -1   6  -8   96.16   10.45
  -1   6  -8   87.58   10.85
   1  -6   8   96.10   11.95
   1  -6   9 1439.46   50.73
   1  -6   9 1355.79   51.56
   1  -6   9 1511.37   54.32
  -1   6  -9 1421.67   44.56
  -1   6  -9 1304.45   47.13
   1  -6  10 1021.23   44.08
  -1   6 -10  834.20   40.23
   1  -6  10  939.66   44.39
  -1   6 -10  946.46   39.69
   1  -6  10  842.12   43.21
  -1   6 -11   10.56    6.61
   1  -6  11    0.51    5.12
  -1   6 -11    2.13    3.83
   1  -6  11   -0.33    5.11
   1  -6  12  301.34   23.07
   1  -6  12  295.69   25.43
   1  -6  12  331.41   29.79
  -1   6 -12  272.42   24.12
  -1   6 -12  355.09   28.54
   1  -6  13  407.49   29.01
  -1   6 -13  402.04   31.95
   1  -6  13  403.40   32.95
   1  -6  13  359.68   25.30
   1  -5 -12  488.71   31.06
   1  -5 -12  506.44   31.53
  -1   5  12  459.51   27.13
   1  -5 -11  518.67   32.66
   1  -5 -11  514.44   29.54
  -1   5  11  461.87   26.77
   1  -5 -10   89.14   14.06
  -1   5  10   76.58   11.11
   1  -5 -10  103.73   13.50
  -1   5   9  608.49   29.99
   1  -5  -9  687.20   33.44
   1  -5  -9  682.01   38.11
   1  -5  -8  764.99   40.38
   1  -5  -8  732.10   33.60
   1  -5  -8  708.64   26.59
  -1   5   8  659.21   31.04
   1  -5  -7   -5.23    7.12
   1  -5  -7    3.41    3.02
   1  -5  -7    6.33    3.37
  -1   5   7    1.92    4.39
   1  -5  -6 1515.51   47.74
   1  -5  -6 1569.11   44.28
  -1   5   6 1452.25   38.30
  -1   5   6 1528.11   49.32
   1  -5  -6 1563.64   41.20
   1  -5  -6 1409.60   38.74
   1  -5  -5 2773.44   55.42
   1  -5  -5 2560.85   51.16
   1  -5  -5 2571.36   51.80
  -1   5   5 2714.17   68.41
  -1   5   5 2424.96   53.31
   1  -5  -5 2671.75   56.68
   1  -5  -4  216.49   13.58
   1  -5  -4  206.52   12.87
  -1   5   4  220.73   19.30
   1  -5  -4  221.00   12.14
  -1   5   4  201.96   15.40
   1  -5  -4  242.63   12.54
  -1   5   3  855.50   38.53
   1  -5  -3  932.58   24.98
  -1   5   3  873.92   35.11
   1  -5  -3  963.05   23.20
   1  -5  -3  986.63   21.41
   1  -5  -2 4262.78   57.03
   1  -5  -2 4189.62   54.17
  -1   5   2 4407.57   92.03
   1  -5  -2 4274.91   46.99
   1  -5  -1 1431.21   16.47
  -1   5   1 1408.81   55.19
   1  -5  -1 1424.83   27.53
  -1   5   1 1311.98   25.68
   1  -5  -1 1344.99   20.05
   1  -5  -1 1398.72   23.40
   1  -5  -1 1434.88   28.50
   1  -5   0   85.52    6.37
  -1   5   0   85.19    5.90
   1  -5   0   82.49    5.20
   1  -5   0   85.90    6.51
  -1   5   0   86.54   14.80
   1  -5   0   96.96    5.64
   1  -5   1 2209.23   40.10
   1  -5   1 2267.66   37.83
   1  -5   1 2134.98   30.70
  -1   5  -1 2052.47   80.58
  -1   5  -1 2048.04   28.87
   1  -5   1 2158.68   34.58
  -1   5  -1 2149.22   34.50
   1  -5   2 3058.76   61.58
  -1   5  -2 3083.78   39.89
  -1   5  -2 3065.11   43.72
   1  -5   2 3037.37   46.48
   1  -5   2 3057.75   40.85
   1  -5   3  430.44   16.49
  -1   5  -3  415.02   31.99
  -1   5  -3  440.69   14.43
  -1   5  -3  421.80   14.74
   1  -5   3  423.81   25.74
   1  -5   3  445.95   14.53
   1  -5   4  481.08    7.21
  -1   5  -4  577.19   35.13
   1  -5   4  434.92   28.38
   1  -5   4  518.04   19.55
   1  -5   4  543.00   17.76
  -1   5  -4  518.95   17.24
  -1   5  -4  545.11   17.59
  -1   5  -5 2029.59   60.39
   1  -5   5 1831.69   42.32
   1  -5   5 1874.32   38.96
   1  -5   5 2003.42   63.51
  -1   5  -5 1851.20   36.67
  -1   5  -5 1934.98   39.40
  -1   5  -6 1005.80   38.12
  -1   5  -6  932.63   29.82
   1  -5   6  938.23   30.07
   1  -5   6  926.69   32.25
  -1   5  -6  907.97   26.68
  -1   5  -7  157.65   13.69
   1  -5   7  170.56   14.50
   1  -5   7  156.71   14.40
  -1   5  -7  155.24   12.08
   1  -5   7  184.76   18.73
  -1   5  -7  163.83   14.35
  -1   5  -8  722.60   28.60
   1  -5   8  719.02   34.01
  -1   5  -8  713.87   32.47
   1  -5   8  727.74   33.76
  -1   5  -8  751.87   28.64
   1  -5   8  821.00   38.78
   1  -5   9 1325.48   48.27
   1  -5   9 1095.57   45.80
   1  -5   9 1223.72   48.14
  -1   5  -9 1110.32   44.07
  -1   5  -9 1271.63   42.86
  -1   5 -10  297.44   22.70
   1  -5  10  239.18   22.81
  -1   5 -10  240.12   21.34
   1  -5  10  274.09   21.47
   1  -5  10  244.66   22.60
  -1   5 -11   99.72   14.54
   1  -5  11   96.34   14.25
  -1   5 -11   87.55   13.35
   1  -5  11  100.24   13.02
   1  -5  11   85.23   14.52
   1  -5  12  492.61   31.38
   1  -5  12  463.05   33.47
  -1   5 -12  476.22   33.10
   1  -5  12  470.37   27.57
  -1   5 -12  379.91   26.81
   1  -5  13  376.22   26.74
   1  -5  13  377.56   29.58
   1  -5  13  350.47   24.20
  -1   5 -13  403.38   31.85
  -1   5 -13  318.14   24.71
   1  -4 -12  277.48   22.51
   1  -4 -12  289.31   20.61
   1  -4 -12  276.20   22.10
  -1   4  12  254.22   19.55
   1  -4 -11   10.09    4.97
  -1   4  11    6.84    3.47
   1  -4 -11   17.70    7.38
   1  -4 -10  226.77   14.91
   1  -4 -10  234.95   21.03
  -1   4  10  223.35   17.75
   1  -4 -10  242.36   19.16
   1  -4  -9  656.86   31.32
  -1   4   9  639.21   29.66
   1  -4  -9  629.33   25.02
   1  -4  -9  703.90   36.51
   1  -4  -8  281.34   20.13
   1  -4  -8  293.50   16.84
  -1   4   8  296.57   20.25
   1  -4  -8  294.20   23.60
   1  -4  -7  466.36   24.70
   1  -4  -7  422.63   20.23
   1  -4  -7  460.53   29.24
  -1   4   7  452.82   24.89
   1  -4  -6 1596.89   49.89
  -1   4   6 1725.77   50.50
   1  -4  -6 1595.55   40.10
   1  -4  -6 1716.77   41.13
   1  -4  -6 1644.44   44.94
  -1   4   6 1573.47   36.06
   1  -4  -5 1629.59   43.08
  -1   4   5 1475.45   19.11
  -1   4   5 1526.03   37.60
   1  -4  -5 1622.31   40.58
   1  -4  -5 1572.56   37.41
   1  -4  -5 1496.94   37.46
   1  -4  -4  205.63   12.44
   1  -4  -4  211.08   11.33
   1  -4  -4  204.03   12.75
  -1   4   4  204.26   14.11
   1  -4  -4  194.32   11.57
  -1   4   4  226.86   19.13
  -1   4   3 2818.21   61.20
   1  -4  -3 2883.93   40.47
  -1   4   3 2800.34   70.74
   1  -4  -3 2920.91   40.86
   1  -4  -3 2736.79   43.96
   1  -4  -2 7189.26   67.20
   1  -4  -2 7048.58   73.07
   1  -4  -2 6901.86   75.95
  -1   4   2 7067.56  113.47
   1  -4  -1  667.83   16.70
  -1   4   1  660.44   15.63
  -1   4   1  647.35   34.33
   1  -4  -1  689.70   16.46
   1  -4  -1  627.78   11.18
   1  -4  -1  651.95   13.34
   1  -4  -1  679.23   10.12
   1  -4   0 1681.69   27.98
  -1   4   0 1578.32   22.42
   1  -4   0 1670.60   29.00
   1  -4   0 1667.64   23.46
  -1   4   0 1592.96   25.63
   1  -4   0 1664.30   27.40
   1  -4   1 5646.68   62.96
   1  -4   1 5478.15   55.65
  -1   4  -1 5522.85   59.89
  -1   4  -1 5505.38   55.15
  -1   4  -2 2498.29   33.82
   1  -4   2 2374.61   37.48
  -1   4  -2 2443.09   34.75
   1  -4   2 2438.24   33.46
  -1   4  -3  228.39    9.86
   1  -4   3  222.40    5.00
   1  -4   3  220.31   11.18
  -1   4  -3  239.52   10.24
   1  -4   3  231.77   10.18
   1  -4   3  211.82   18.78
  -1   4  -4 4566.39   89.64
   1  -4   4 3943.29   60.42
   1  -4   4 4054.15   57.05
  -1   4  -4 4060.37   56.59
  -1   4  -4 4001.04   53.92
   1  -4   4 4798.20   98.97
   1  -4   4 4201.31   38.34
  -1   4  -5 1539.21   35.53
   1  -4   5 1465.28   23.63
   1  -4   5 1549.30   36.26
  -1   4  -5 1511.97   31.80
   1  -4   5 1496.51   18.05
   1  -4   6  221.72    7.33
  -1   4  -6  227.09   15.16
   1  -4   6  244.88   16.12
  -1   4  -6  221.22   12.95
  -1   4  -6  239.28   16.07
  -1   4  -7  423.11   23.38
   1  -4   7  417.53   24.18
  -1   4  -7  426.44   19.76
  -1   4  -7  416.08   20.02
  -1   4  -8 1284.45   40.32
   1  -4   8 1158.69   44.82
  -1   4  -8 1156.68   43.26
  -1   4  -9  393.61   26.68
   1  -4   9  445.15   29.57
   1  -4   9  497.95   27.63
  -1   4  -9  469.63   26.86
  -1   4 -10   43.65    8.64
   1  -4  10   36.37    7.82
   1  -4  10   23.32    6.86
  -1   4 -10   31.17    7.39
   1  -4  11  507.90   32.90
  -1   4 -11  480.73   31.60
  -1   4 -11  392.88   26.39
   1  -4  11  464.48   26.52
   1  -4  12  419.20   29.90
   1  -4  12  385.67   24.23
  -1   4 -12  358.78   24.92
  -1   4 -12  383.64   29.60
  -1   4 -13   19.73    5.44
   1  -4  13   26.38    7.01
  -1   4 -13   17.14    4.81
   1  -4  13   10.93    5.22
   1  -4  14  174.95   16.95
  -1   3  13  336.58   21.42
   1  -3 -13  335.21   23.03
  -1   3  13  335.24   22.12
  -1   3  12   76.19   10.11
   1  -3 -12   68.04    8.89
   1  -3 -12   68.89   10.87
  -1   3  12   74.18   10.30
   1  -3 -12   89.75   11.03
   1  -3 -11  259.23   19.92
   1  -3 -11  267.71   18.82
  -1   3  11  248.49   18.39
   1  -3 -11  274.28   20.90
   1  -3 -10  617.80   24.98
   1  -3 -10  687.74   30.18
   1  -3 -10  674.59   32.97
  -1   3  10  649.82   29.20
   1  -3  -9  210.99   14.35
   1  -3  -9  236.72   17.56
  -1   3   9  211.56   16.68
   1  -3  -9  239.61   19.56
   1  -3  -8   72.23    9.73
  -1   3   8   61.71    9.31
   1  -3  -8   77.35    8.81
   1  -3  -8   55.48    9.76
  -1   3   7 1293.88   41.61
  -1   3   7 1202.34   29.86
   1  -3  -7 1243.38   35.35
   1  -3  -7 1224.84   45.14
   1  -3  -7 1256.76   39.77
   1  -3  -6 1654.79   51.65
  -1   3   6 1577.44   32.34
  -1   3   6 1642.60   32.91
   1  -3  -6 1689.00   44.79
   1  -3  -6 1695.69   41.11
  -1   3   6 1744.11   49.60
  -1   3   5  114.22    8.76
   1  -3  -5  112.53   10.30
   1  -3  -5  119.31   10.16
   1  -3  -5  119.44    9.18
  -1   3   5   94.10   10.78
  -1   3   5  123.75    7.20
   1  -3  -5  112.18   11.16
  -1   3   4  703.92   13.08
   1  -3  -4  658.21   22.42
  -1   3   4  519.29   25.50
   1  -3  -4  626.01   22.06
  -1   3   4  837.58   35.93
   1  -3  -4  637.77   19.51
   1  -3  -4  658.10   22.82
  -1   3   4  723.76   24.33
   1  -3  -3 4547.41   60.64
   1  -3  -3 4501.56   52.41
   1  -3  -3 4384.35   57.55
  -1   3   3 4646.62   75.53
   1  -3  -3 4425.34   57.25
   1  -3  -2 2259.63   27.55
  -1   3   2 2280.87   58.77
  -1   3   2 2273.39   53.59
   1  -3  -2 2181.59   29.23
   1  -3  -2 2132.46   32.08
   1  -3  -1    6.89    1.17
  -1   3   1   13.56    4.80
   1  -3  -1    9.63    1.08
  -1   3   1   11.64    4.29
   1  -3  -1    5.89    1.45
   1  -3  -1    8.59    1.73
  -1   3   0 4566.06   45.30
  -1   3   0 4114.50   72.57
   1  -3   0 4681.84   44.32
   1  -3   0 5027.68   49.99
  -1   3   0 3675.89   83.96
   1  -3   0 4846.98   50.37
  -1   3   0 4647.46   48.28
   1  -3   1 9999.00   89.73
  -1   3  -1 9927.36   85.90
   1  -3   1 9984.60   83.50
  -1   3  -1 9490.69   83.65
   1  -3   2  667.94   14.99
  -1   3  -2  636.98   14.45
  -1   3  -2  619.03   30.51
  -1   3  -2  665.02   15.05
   1  -3   2  655.86   31.58
   1  -3   2  643.30   16.68
  -1   3  -3  932.36   35.28
   1  -3   3  839.04   20.26
   1  -3   3  958.33   40.01
   1  -3   3  840.09   11.52
  -1   3  -3  819.09   19.53
  -1   3  -3  808.60   18.22
  -1   3  -4 3686.45   53.89
  -1   3  -4 4022.25   70.51
   1  -3   4 3668.69   56.44
   1  -3   4 3776.33   39.41
  -1   3  -4 3572.72   49.21
   1  -3   4 3617.18   35.83
  -1   3  -4 3871.89   53.39
   1  -3   5 1004.23   18.88
  -1   3  -5 1049.35   30.69
   1  -3   5  923.13   21.42
   1  -3   5  993.82   31.41
  -1   3  -5  994.70   29.51
  -1   3  -5  950.38   25.06
  -1   3  -5  932.21   24.72
  -1   3  -6   88.34   10.24
   1  -3   6   82.80    6.65
   1  -3   6   65.18    6.60
  -1   3  -6   86.31    7.74
   1  -3   6   91.34   12.60
  -1   3  -6   67.90    6.34
  -1   3  -6   74.73    7.84
   1  -3   6   64.74    9.30
   1  -3   7 3008.06   70.66
  -1   3  -7 2645.84   43.99
  -1   3  -7 2367.70   42.60
  -1   3  -7 2670.34   46.87
  -1   3  -7 2712.25   57.05
   1  -3   7 2721.24   47.15
  -1   3  -7 2482.80   61.18
   1  -3   7 2316.53   62.44
   1  -3   7 2398.05   45.46
   1  -3   8 1264.29   35.05
  -1   3  -8 1248.12   33.49
   1  -3   8 1286.83   48.36
   1  -3   8 1389.91   46.29
  -1   3  -8 1293.20   42.51
   1  -3   9   27.89    6.98
  -1   3  -9   28.21    5.58
  -1   3  -9   17.39    5.47
   1  -3   9   12.08    4.24
  -1   3  -9   22.80    6.36
   1  -3  10  807.35   38.62
   1  -3  10  766.21   32.74
  -1   3 -10  653.66   33.09
  -1   3 -10  725.76   29.12
  -1   3 -10  758.51   37.73
   1  -3  11  457.38   24.93
   1  -3  11  516.54   31.13
  -1   3 -11  429.26   26.23
  -1   3 -11  491.02   31.95
  -1   3 -12   72.19   13.08
  -1   3 -12   62.17    9.65
   1  -3  12   59.72    9.51
   1  -3  12   62.58   10.96
   1  -3  13  212.03   19.80
  -1   3 -13  255.30   23.35
   1  -3  13  242.94   18.81
  -1   3 -13  245.38   19.57
   1  -3  14  345.79   23.13
   1  -2 -14  494.70   24.57
  -1   2  14  562.11   28.18
  -1   2  14  587.83   29.16
   1  -2 -13  188.97   15.28
   1  -2 -13  231.54   18.70
  -1   2  13  223.26   17.54
  -1   2  13  209.71   16.91
  -1   2  12   61.08    9.50
  -1   2  12   59.75    9.08
   1  -2 -12   61.77    9.10
   1  -2 -12   41.83    8.24
   1  -2 -12   64.17   10.15
  -1   2  11  941.05   34.39
  -1   2  11  922.22   34.74
   1  -2 -11  956.54   34.07
   1  -2 -11  979.06   37.31
  -1   2  10 1038.65   36.50
   1  -2 -10 1067.81   35.79
   1  -2 -10 1055.96   38.51
   1  -2 -10 1000.13   37.88
   1  -2  -9  101.74   11.00
   1  -2  -9  101.35   10.15
  -1   2   9   92.55   11.04
   1  -2  -9   93.75   11.63
   1  -2  -9  100.84   11.91
  -1   2   9   92.80    9.13
  -1   2   8 1702.36   47.14
   1  -2  -8 1664.86   42.54
   1  -2  -8 1607.31   48.50
  -1   2   8 1744.02   40.28
   1  -2  -8 1710.92   36.07
   1  -2  -8 1550.66   43.85
   1  -2  -7 2027.90   49.76
  -1   2   7 2278.62   55.62
   1  -2  -7 1995.72   54.38
  -1   2   7 2137.62   44.30
   1  -2  -7 2179.55   49.07
  -1   2   6  934.62   27.39
   1  -2  -6 1058.80   34.14
  -1   2   6 1028.66   20.63
   1  -2  -6 1255.12   35.77
  -1   2   6 1283.33   40.64
   1  -2  -6 1058.38   38.18
   1  -2  -5 1212.24   34.34
  -1   2   5 1112.94   24.22
  -1   2   5 1013.46   26.11
   1  -2  -5 1099.77   38.14
   1  -2  -5 1081.54   33.12
  -1   2   5 1290.52   40.88
  -1   2   4 3050.76   42.09
   1  -2  -4 2732.80   53.69
   1  -2  -4 2930.26   53.30
   1  -2  -4 3131.27   55.80
  -1   2   4 3070.85   48.47
  -1   2   4 3316.47   68.00
   1  -2  -4 2800.56   43.25
  -1   2   3 5264.31   86.23
   1  -2  -3 4032.16   48.71
   1  -2  -3 4319.83   59.16
   1  -2  -3 3576.45   58.64
  -1   2   3 4603.91   43.29
  -1   2   3 4590.96   66.43
   1  -2  -3 4342.19   57.14
   1  -2  -2  247.71    6.87
   1  -2  -2  268.38   10.10
  -1   2   2  242.07   14.65
  -1   2   2  279.98   17.45
   1  -2  -2  245.01    8.63
   1  -2  -1 2894.67   30.00
  -1   2   1 2843.76   58.17
   1  -2  -1 2773.86   26.10
   1  -2   0 3744.93   38.40
   1  -2   0 3859.73   45.83
  -1   2   0 3606.34   37.34
   1  -2   0 3676.20   33.38
  -1   2   0 3502.40   35.84
  -1   2   0 3864.35   37.30
  -1   2   0 3530.78   44.41
   1  -2   1 2124.50   41.86
   1  -2   1 1996.24   24.54
  -1   2  -1 1808.65   45.97
  -1   2  -1 1900.46   23.84
  -1   2  -1 2037.79   25.03
  -1   2  -1 2108.51   29.91
  -1   2  -2  134.71    7.91
   1  -2   2  146.95   13.35
  -1   2  -2  134.53    6.25
  -1   2  -2  135.83    6.89
   1  -2   2  136.92    7.05
  -1   2  -2  127.35    5.75
   1  -2   2  136.88    3.89
  -1   2  -2  149.28   12.13
   1  -2   3 3158.74   70.16
  -1   2  -3 3089.76   55.13
  -1   2  -3 3314.11   44.68
   1  -2   3 3324.26   51.24
  -1   2  -3 3161.00   41.25
  -1   2  -3 3592.88   57.93
   1  -2   3 3492.61   34.65
   1  -2   3 3271.72   38.14
  -1   2  -4 3081.94   42.13
  -1   2  -4 3180.72   50.75
  -1   2  -4 3246.18   50.36
  -1   2  -4 2908.95   61.09
  -1   2  -4 3157.77   38.98
   1  -2   4 2971.30   56.97
   1  -2   4 3034.92   39.80
   1  -2   4 2751.17   44.24
  -1   2  -4 3059.39   46.07
   1  -2   4 3209.35   72.85
  -1   2  -5  737.08   31.57
   1  -2   5  700.07   21.10
   1  -2   5  683.09   29.25
  -1   2  -5  675.88   18.48
  -1   2  -5  715.34   26.30
  -1   2  -5  743.59   20.31
  -1   2  -5  714.02   18.30
  -1   2  -5  710.60   23.54
   1  -2   5  677.59   21.96
   1  -2   6 1025.06   29.03
   1  -2   6  955.43   37.95
  -1   2  -6  931.88   23.85
  -1   2  -6  975.83   21.07
  -1   2  -6  940.16   34.44
   1  -2   6  762.09   25.91
  -1   2  -6  850.42   22.14
  -1   2  -6  941.00   31.10
   1  -2   6 1046.88   38.87
  -1   2  -6  982.79   38.49
   1  -2   7 2171.04   59.58
   1  -2   7 1948.99   42.57
  -1   2  -7 1902.49   39.82
   1  -2   7 2212.60   46.23
  -1   2  -7 1778.77   34.75
  -1   2  -7 1991.04   51.51
  -1   2  -7 1850.22   54.22
  -1   2  -7 2233.11   59.44
   1  -2   7 2167.34   55.93
  -1   2  -8  138.71   14.25
   1  -2   8  150.68   11.90
   1  -2   8  141.51   14.06
   1  -2   8  134.06   15.06
  -1   2  -8  114.24   13.20
   1  -2   8  144.27   11.22
  -1   2  -8  125.74   10.57
  -1   2  -9  437.26   26.84
   1  -2   9  470.69   21.84
   1  -2   9  437.28   19.19
  -1   2  -9  364.45   23.74
  -1   2  -9  418.09   20.75
   1  -2   9  460.86   27.39
   1  -2   9  397.15   22.95
   1  -2  10 1488.63   40.22
  -1   2 -10 1421.47   52.09
  -1   2 -10 1346.07   40.10
   1  -2  10 1380.19   48.44
   1  -2  10 1258.01   40.69
  -1   2 -10 1148.10   42.12
  -1   2 -11  222.33   18.11
   1  -2  11  263.89   18.66
  -1   2 -11  269.81   22.94
   1  -2  11  263.14   20.81
   1  -2  12   14.04    4.05
  -1   2 -12   17.42    4.62
  -1   2 -12   18.59    5.56
   1  -2  12   14.29    5.47
   1  -2  13  633.12   32.56
  -1   2 -13  663.25   35.50
   1  -2  13  648.74   30.16
  -1   2 -13  627.51   30.36
   1  -2  14  348.48   22.49
  -1   2 -14  342.55   22.23
   1  -1 -14  203.19   16.65
  -1   1  14  239.59   18.10
   1  -1 -14  243.28   19.43
  -1   1  14  227.05   18.05
   1  -1 -13    5.75    3.97
   1  -1 -13    4.63    2.62
  -1   1  13   -2.22    4.68
   1  -1 -13   10.14    4.98
  -1   1  13    3.50    3.32
  -1   1  12  454.91   24.03
   1  -1 -12  444.89   25.09
  -1   1  12  428.77   23.84
   1  -1 -12  500.18   24.55
  -1   1  11 1591.34   45.69
  -1   1  11 1589.66   46.18
   1  -1 -11 1742.81   49.15
   1  -1 -11 1576.42   43.60
  -1   1  11 1566.60   40.64
   1  -1 -10  467.24   24.68
   1  -1 -10  485.59   23.43
  -1   1  10  500.84   24.91
  -1   1  10  497.46   22.18
  -1   1  10  490.26   24.90
   1  -1  -9  280.08   17.61
  -1   1   9  304.88   17.39
   1  -1  -9  300.79   19.53
  -1   1   9  287.76   18.97
  -1   1   9  319.19   20.00
   1  -1  -8 3372.63   65.19
   1  -1  -8 3436.39   69.29
   1  -1  -8 3380.60   51.23
   1  -1  -8 3262.43   68.84
  -1   1   8 3443.40   63.43
  -1   1   8 3521.69   70.02
  -1   1   7 3796.70   72.54
  -1   1   7 3511.11   64.14
   1  -1  -7 3683.18   55.17
   1  -1  -7 3419.63   70.54
   1  -1  -7 3618.68   71.06
   1  -1  -7 3530.08   67.02
   1  -1  -7 3808.57   70.90
   1  -1  -6    4.28    3.09
   1  -1  -6   14.31    4.92
  -1   1   6    8.19    2.89
   1  -1  -6    9.83    2.74
   1  -1  -6   23.14    5.23
  -1   1   6   18.50    5.19
   1  -1  -5 4567.74   76.16
   1  -1  -5 5087.23   82.09
  -1   1   5 3893.70   65.75
   1  -1  -5 4349.37   78.70
   1  -1  -5 5022.30   68.88
  -1   1   5 4868.03   80.70
  -1   1   4 5318.92   85.49
  -1   1   4 6018.07   74.69
   1  -1  -4 5930.99   90.40
   1  -1  -4 6169.62   87.57
  -1   1   4 6292.18   65.67
  -1   1   4 5839.43   65.03
   1  -1  -4 5653.92   83.99
  -1   1   3 1177.35   21.33
  -1   1   3  893.87   28.44
   1  -1  -3  961.76   25.57
  -1   1   3 1139.48   23.83
   1  -1  -3 1089.91   30.40
   1  -1  -3 1051.14   30.27
  -1   1   3 1029.33   23.81
   1  -1  -2 1876.21   28.35
  -1   1   2 1880.91   35.08
  -1   1   2 1953.69   21.30
   1  -1  -2 2003.43   35.43
  -1   1   2 1785.36   34.19
  -1   1   2 1900.23   36.01
   1  -1  -2 1868.34   20.56
   1  -1  -2 1831.58   26.12
  -1   1   1 5074.72   50.75
   1  -1  -1 5357.66   42.39
  -1   1  -1  593.46   10.25
  -1   1  -1  598.19   11.89
  -1   1  -1  535.09   18.79
  -1   1  -1  562.04   20.26
  -1   1  -1  574.22   18.68
   1  -1   1  606.98    8.84
  -1   1  -1  608.98   11.04
  -1   1  -2 1147.96   35.55
  -1   1  -2 1134.48   19.65
  -1   1  -2 1167.90   14.79
  -1   1  -2 1120.36   24.87
   1  -1   2 1126.39   26.79
  -1   1  -2 1138.11   19.14
   1  -1   2 1158.76   16.44
  -1   1  -2 1082.15   19.63
  -1   1  -3 4227.17   53.49
   1  -1   3 4046.95   67.69
  -1   1  -3 3758.58   46.48
  -1   1  -3 3875.12   53.04
   1  -1   3 3936.87   59.99
  -1   1  -3 4292.92   80.12
  -1   1  -3 3961.43   50.42
   1  -1   3 3938.68   45.97
  -1   1  -3 3998.74   42.21
   1  -1   4  342.65   20.17
  -1   1  -4  420.19   17.88
  -1   1  -4  407.17   11.81
  -1   1  -4  339.11   12.29
  -1   1  -4  398.37   17.36
  -1   1  -4  439.10   24.09
   1  -1   4  455.81   19.97
   1  -1   4  380.97   14.62
  -1   1  -4  375.42   11.98
   1  -1   5  330.78   20.49
  -1   1  -5  389.44   22.74
  -1   1  -5  350.58   18.70
   1  -1   5  436.54   20.14
   1  -1   5  319.05   15.96
  -1   1  -5  325.10   13.19
  -1   1  -5  381.80   20.30
  -1   1  -5  337.85   13.37
  -1   1  -6 1593.36   34.61
   1  -1   6 1715.15   48.07
  -1   1  -6 1604.84   48.95
  -1   1  -6 1820.10   49.93
   1  -1   6 1469.64   39.56
   1  -1   6 1991.49   44.28
  -1   1  -6 1675.33   33.66
  -1   1  -6 1679.00   46.18
  -1   1  -7  515.36   26.09
   1  -1   7  599.38   23.70
   1  -1   7  537.38   25.68
  -1   1  -7  532.20   19.05
  -1   1  -7  484.74   20.16
  -1   1  -7  463.71   26.12
  -1   1  -7  545.17   27.52
   1  -1   7  496.60   21.99
  -1   1  -8   30.53    6.50
   1  -1   8   33.55    5.94
   1  -1   8   27.32    5.54
  -1   1  -8   27.92    6.70
  -1   1  -8   19.48    4.85
   1  -1   8   27.65    6.44
  -1   1  -8   24.26    4.80
   1  -1   9  660.02   25.75
   1  -1   9  635.78   25.18
   1  -1   9  701.27   32.49
  -1   1  -9  701.99   27.38
  -1   1  -9  631.47   28.31
  -1   1  -9  555.08   27.66
   1  -1   9  624.64   27.69
  -1   1  -9  632.68   32.33
   1  -1  10  558.75   28.51
   1  -1  10  504.73   21.71
  -1   1 -10  476.52   25.42
  -1   1 -10  575.43   24.97
   1  -1  10  548.50   25.51
  -1   1 -10  578.01   30.84
   1  -1  10  564.79   24.31
   1  -1  11   85.94   11.51
  -1   1 -11   63.91   10.26
   1  -1  11   81.71    9.52
  -1   1 -11   65.49    9.16
   1  -1  11   85.65   10.50
  -1   1 -12  573.51   31.10
  -1   1 -12  535.13   26.84
   1  -1  12  565.01   29.25
   1  -1  12  549.95   26.11
   1  -1  13  839.50   33.55
   1  -1  13  851.05   36.87
  -1   1 -13  848.15   38.27
  -1   1 -13  768.67   32.18
  -1   1 -14  168.19   14.88
  -1   0  14   15.88    5.33
   1   0 -14    7.97    4.20
  -1   0  14    6.76    4.40
   1   0 -14   21.08    6.39
   1   0 -13  146.97   13.47
  -1   0  13  119.61   13.24
   1   0 -13  124.24   14.12
   1   0 -13  111.99   12.89
  -1   0  13  144.00   13.74
   1   0 -12  740.59   31.85
  -1   0  12  845.87   34.80
  -1   0  12  888.85   34.11
  -1   0  12  801.84   30.03
   1   0 -12  865.00   32.60
   1   0 -12  799.60   34.89
  -1   0  11  542.57   27.70
  -1   0  11  557.71   26.93
   1   0 -11  526.52   25.17
  -1   0  11  523.37   23.92
   1   0 -11  502.39   26.95
  -1   0  10    4.85    3.76
   1   0 -10    7.37    3.51
  -1   0  10    7.50    3.97
  -1   0  10    5.02    2.65
   1   0 -10    9.87    3.41
  -1   0   9 2177.57   54.01
   1   0  -9 2060.40   50.93
  -1   0   9 2155.49   55.91
   1   0  -9 2078.05   55.55
  -1   0   9 2159.12   52.08
  -1   0   8 2956.42   63.63
  -1   0   8 3064.79   66.78
  -1   0   8 3007.30   62.56
   1   0  -8 3023.00   47.06
   1   0  -7  961.83   25.49
   1   0  -7  930.24   36.24
  -1   0   7  922.79   33.27
   1   0  -7  982.44   34.32
  -1   0   7  904.01   34.10
  -1   0   7  906.35   32.93
  -1   0   6  850.96   30.96
  -1   0   6  848.09   31.85
  -1   0   6  920.02   16.62
   1   0  -6 1067.05   27.49
   1   0  -6 1009.40   35.87
   1   0  -6 1084.19   36.24
  -1   0   6  950.51   33.39
  -1   0   5 3681.38   66.80
  -1   0   5 3749.09   68.03
  -1   0   5 4514.08   47.88
  -1   0   5 3448.21   66.07
   1   0  -5 4281.49   59.42
   1   0  -5 4059.69   71.74
   1   0  -5 4371.78   74.34
   1   0  -4 4211.76   67.92
   1   0  -4 4392.94   71.06
  -1   0   4 4516.94   64.07
  -1   0   4 4417.60   64.84
  -1   0   4 4449.48   66.98
   1   0  -4 4349.93   70.60
   1   0  -4 4073.00   58.18
  -1   0   3  492.75   15.22
  -1   0   3  441.36   13.26
  -1   0   3  487.51   15.58
   1   0  -3  438.56   17.19
   1   0  -3  434.69   17.89
  -1   0   3  458.40   14.16
   1   0  -3  429.93   14.18
   1   0  -3  434.01   16.28
  -1   0   2 6948.85   65.79
  -1   0   2 6958.31   62.71
   1   0  -2 7372.16   71.35
   1   0  -2 7126.83   74.35
  -1   0   2 7370.82   59.75
   1   0  -2 6744.34   71.51
  -1   0   2 7063.88   65.66
   1   0  -2 7328.72   80.03
  -1   0  -1 2766.54   33.92
  -1   0  -1 2614.78   41.26
  -1   0  -1 3095.92   37.53
   1   0   1 2774.70   30.14
  -1   0  -1 2778.45   29.04
   1   0   1 2869.89   25.66
  -1   0  -1 2942.35   41.60
  -1   0  -2 6892.06   67.92
  -1   0  -2 6632.61   68.88
  -1   0  -2 6741.03   69.46
  -1   0  -2 6507.67   85.75
   1   0   2 6408.93   66.81
  -1   0  -2 6602.81   79.69
  -1   0  -3 1034.98   24.93
   1   0   3  963.31   23.29
  -1   0  -3  970.94   31.18
  -1   0  -3  891.70   29.52
  -1   0  -3  962.72   22.87
   1   0   3  923.05   24.67
  -1   0  -3 1012.89   26.25
  -1   0  -4 1161.53   32.70
  -1   0  -4 1089.17   30.19
  -1   0  -4 1090.75   27.52
   1   0   4  950.41   30.07
   1   0   4  985.52   28.70
  -1   0  -4 1059.94   35.53
  -1   0  -4 1156.50   37.81
  -1   0  -4  978.87   33.52
  -1   0  -5 2578.74   46.92
  -1   0  -5 2284.95   54.31
   1   0   5 1993.98   49.25
  -1   0  -5 2617.28   61.34
  -1   0  -5 2573.12   48.81
   1   0   5 1985.74   47.90
   1   0   5 2088.89   49.18
  -1   0  -5 2137.29   25.21
  -1   0  -5 2278.47   56.30
  -1   0  -6 1100.71   39.11
  -1   0  -6 1099.46   31.22
   1   0   6  944.29   33.49
  -1   0  -6 1007.42   35.58
  -1   0  -6  962.81   36.27
  -1   0  -6 1086.11   31.17
   1   0   6 1090.32   34.96
   1   0   6  884.50   31.93
  -1   0  -7   34.21    6.58
  -1   0  -7   43.64    6.26
   1   0   7   50.53    7.76
   1   0   7   44.25    7.24
  -1   0  -7   39.81    7.04
  -1   0  -7   33.66    5.79
  -1   0  -7   40.28    7.33
   1   0   7   53.98    8.05
   1   0   8  527.60   23.99
   1   0   8  543.07   23.76
  -1   0  -8  482.98   24.82
  -1   0  -8  523.04   26.61
   1   0   8  541.69   24.72
  -1   0  -8  561.43   23.20
  -1   0  -8  517.82   24.98
   1   0   9 1360.88   38.69
   1   0   9 1351.26   39.58
  -1   0  -9 1295.88   40.31
   1   0   9 1354.47   39.02
  -1   0  -9 1237.51   40.18
  -1   0  -9 1326.71   43.68
  -1   0  -9 1415.37   37.99
  -1   0 -10   60.10    8.75
  -1   0 -10   64.42    8.94
  -1   0 -10   67.00   10.10
   1   0  10   63.75    8.84
   1   0  10   65.97    8.66
   1   0  10   60.91    8.28
  -1   0 -11  193.01   16.89
   1   0  11  207.35   17.42
  -1   0 -11  178.08   14.87
   1   0  11  177.29   13.41
   1   0  11  204.93   15.15
   1   0  11  205.94   15.30
   1   0  12  763.52   33.99
  -1   0 -12  766.59   34.57
   1   0  12  797.51   30.76
   1   0  12  781.38   30.49
  -1   0 -12  720.70   29.71
  -1   0 -13  275.52   18.35
   1   0  13  303.69   22.03
  -1   0 -13  344.94   23.52
  -1   0 -14    1.80    2.71
  -1  -1  14   27.65    6.06
   1   1 -14   29.83    7.40
  -1  -1  14   29.42    7.41
   1   1 -14   36.34    7.40
  -1  -1  13  809.85   33.46
  -1  -1  13  737.63   34.51
   1   1 -13  717.68   35.05
   1   1 -13  776.99   32.20
  -1  -1  13  663.59   28.38
   1   1 -13  692.30   30.60
   1   1 -12 1112.17   43.94
   1   1 -12 1036.07   37.60
   1   1 -12 1146.99   39.07
  -1  -1  12 1034.89   35.48
  -1  -1  12 1132.53   43.08
   1   1 -11   14.38    4.09
   1   1 -11   14.09    4.43
   1   1 -11    6.18    3.82
  -1  -1  11   13.38    4.12
  -1  -1  11   23.41    5.44
  -1  -1  11   19.83    5.61
   1   1 -10  881.39   34.54
  -1  -1  10  894.33   37.68
   1   1 -10  949.52   40.69
  -1  -1  10  888.83   33.42
  -1  -1  10  948.76   35.78
  -1  -1   9 1604.06   46.55
   1   1  -9 1618.67   51.45
   1   1  -9 1685.46   48.45
  -1  -1   9 1677.14   47.32
  -1  -1   9 1601.35   50.35
  -1  -1   8  647.03   28.97
   1   1  -8  620.11   19.54
   1   1  -8  610.56   28.96
   1   1  -8  574.51   26.53
  -1  -1   8  534.89   27.97
  -1  -1   8  589.22   26.82
   1   1  -7   83.05    4.42
  -1  -1   7   66.67    9.73
   1   1  -7   64.80    6.14
   1   1  -7   66.34    8.54
  -1  -1   7   71.73    9.55
   1   1  -7   74.67    9.39
  -1  -1   7   50.92    5.64
  -1  -1   7   58.45    8.01
  -1  -1   6 2538.55   49.47
   1   1  -6 2462.63   40.19
   1   1  -6 2539.91   50.83
  -1  -1   6 2540.93   53.56
   1   1  -6 2425.16   49.79
  -1  -1   5 2346.00   43.86
   1   1  -5 2135.86   35.87
  -1  -1   5 2424.85   41.23
   1   1  -5 2344.98   42.60
  -1  -1   5 2099.39   51.57
   1   1  -5 2267.14   43.42
   1   1  -4 2489.68   37.36
  -1  -1   4 2464.28   38.00
  -1  -1   4 2507.10   35.81
   1   1  -4 2371.63   35.38
   1   1  -4 2434.44   40.08
   1   1  -3  156.36    6.95
  -1  -1   3  150.70    6.61
  -1  -1   3  171.11    9.43
  -1  -1   3  152.57    6.05
  -1  -1   3  153.02    5.61
   1   1  -3  151.32    7.29
   1   1  -3  143.47    6.06
   1   1  -2 4170.97   42.59
  -1  -1   2 4081.65   39.75
  -1  -1   2 4101.25   44.76
  -1  -1   2 4029.10   39.02
   1   1  -2 4057.19   38.58
  -1  -1   2 4115.18   40.95
   1   1  -1 2661.47   27.59
  -1  -1   1 2755.55   28.66
  -1  -1   1 2679.72   29.13
  -1  -1   0 1802.45   20.98
  -1  -1   0 1866.13   20.27
  -1  -1   0 1803.92   24.76
   1   1   0 1793.99   22.14
   1   1   1 1604.53   20.59
  -1  -1  -1 1661.47   18.06
   1   1   1 1512.58   24.65
  -1  -1  -1 1466.46   28.55
  -1  -1  -1 1539.14   24.60
  -1  -1  -1 1585.44   22.66
  -1  -1  -2 2500.55   44.77
   1   1   2 2335.36   40.04
  -1  -1  -2 2431.16   45.83
  -1  -1  -2 2475.14   31.08
  -1  -1  -2 2413.20   35.98
   1   1   3   56.99    5.36
  -1  -1  -3   42.49    5.28
   1   1   3   44.03    5.92
  -1  -1  -3   47.85    7.27
  -1  -1  -3   50.77    5.96
  -1  -1  -3   58.55    6.29
  -1  -1  -3   56.05    5.26
   1   1   4 1805.19   45.81
  -1  -1  -4 1733.73   22.56
  -1  -1  -4 2059.90   39.20
   1   1   4 1986.34   40.14
  -1  -1  -4 2008.79   50.36
  -1  -1  -4 2164.83   48.10
  -1  -1  -4 1959.87   45.65
  -1  -1  -5 2775.53   60.91
  -1  -1  -5 2503.34   56.09
   1   1   5 2368.21   56.40
   1   1   5 2271.51   49.22
  -1  -1  -5 2701.26   48.31
   1   1   5 2117.55   27.18
  -1  -1  -5 2609.05   57.77
  -1  -1  -6  194.99   15.44
  -1  -1  -6  245.88   14.19
   1   1   6  208.96   16.11
  -1  -1  -6  236.48   17.52
   1   1   6  183.76   15.08
  -1  -1  -6  194.57   14.94
   1   1   6  189.21   14.06
   1   1   7  937.91   31.23
   1   1   7  949.49   35.20
  -1  -1  -7  906.16   33.94
  -1  -1  -7 1016.64   29.94
  -1  -1  -7  784.39   32.12
  -1  -1  -7 1044.02   36.92
   1   1   7  900.18   32.85
  -1  -1  -7  951.14   35.62
  -1  -1  -8 2128.19   53.20
  -1  -1  -8 2262.35   56.33
  -1  -1  -8 2112.52   51.14
   1   1   8 2250.91   54.02
   1   1   8 2185.22   49.20
   1   1   8 2144.15   52.05
   1   1   9  440.02   21.24
   1   1   9  450.15   23.03
   1   1   9  447.81   23.01
  -1  -1  -9  423.43   21.48
  -1  -1  -9  469.77   20.78
  -1  -1  -9  447.84   24.54
  -1  -1  -9  442.64   23.56
   1   1  10  107.46   11.58
  -1  -1 -10  100.50   10.43
  -1  -1 -10  114.46   12.08
   1   1  10  103.91   10.36
  -1  -1 -10  111.23   12.25
   1   1  10  104.99   10.87
  -1  -1 -11  829.62   30.47
  -1  -1 -11  880.62   33.38
  -1  -1 -11  887.49   35.76
   1   1  11  942.68   34.46
   1   1  11  807.96   30.07
   1   1  12  627.62   31.04
   1   1  12  650.81   29.12
  -1  -1 -12  617.33   30.83
  -1  -1 -13   12.23    3.67
   1   1  13   23.61    6.00
   1   1  13   14.69    6.18
  -1  -1 -13   17.36    6.21
  -1  -2  15   13.38    5.19
  -1  -2  14  222.40   16.99
  -1  -2  14  253.18   21.46
   1   2 -14  237.54   17.93
   1   2 -14  257.63   22.76
   1   2 -13 1209.98   42.26
   1   2 -13 1087.79   39.20
   1   2 -13 1167.15   48.64
  -1  -2  13 1063.89   37.42
  -1  -2  13 1279.03   48.29
   1   2 -12  474.15   30.98
   1   2 -12  420.15   24.11
   1   2 -12  457.02   25.81
  -1  -2  12  517.21   27.39
  -1  -2  12  419.63   23.20
  -1  -2  12  473.74   29.40
   1   2 -11  166.40   15.33
   1   2 -11  201.97   19.63
   1   2 -11  183.54   16.38
  -1  -2  11  193.45   16.77
  -1  -2  11  189.51   18.42
  -1  -2  11  198.74   16.12
  -1  -2  10 1647.32   48.70
  -1  -2  10 1653.12   48.99
   1   2 -10 1616.65   53.26
   1   2 -10 1560.62   47.81
  -1  -2  10 1534.19   52.95
   1   2 -10 1574.28   47.94
  -1  -2   9 1706.83   48.20
   1   2  -9 1705.53   47.50
   1   2  -9 1758.52   52.04
  -1  -2   9 1865.16   52.67
  -1  -2   9 1690.35   54.66
   1   2  -8   91.15    9.78
   1   2  -8   95.85   10.85
  -1  -2   8  110.06   10.51
  -1  -2   8  103.81   11.93
   1   2  -8  100.74    7.73
  -1  -2   8  109.78   12.95
  -1  -2   7 1199.40   31.67
   1   2  -7 1313.23   28.12
   1   2  -7 1056.32   31.85
   1   2  -7 1044.17   25.79
  -1  -2   7 1208.72   37.79
   1   2  -7 1240.60   35.03
  -1  -2   7 1008.91   39.16
  -1  -2   6 2509.74   48.85
   1   2  -6 2517.88   45.30
  -1  -2   6 2619.62   42.16
  -1  -2   5 1051.83   25.83
   1   2  -5 1004.64   23.19
   1   2  -5 1070.40   25.38
  -1  -2   5 1050.52   36.37
  -1  -2   5 1036.31   23.61
  -1  -2   5 1088.83   21.70
   1   2  -4  291.40   10.02
   1   2  -4  288.97   10.94
  -1  -2   4  296.71   11.16
  -1  -2   4  276.83   10.20
  -1  -2   4  287.83    9.06
   1   2  -4  303.37   11.38
   1   2  -3 4001.20   43.69
  -1  -2   3 4208.06   56.33
  -1  -2   3 3937.66   44.84
   1   2  -3 4112.85   48.68
  -1  -2   3 4157.70   46.68
  -1  -2   3 3931.99   42.15
   1   2  -3 4267.35   47.13
   1   2  -2 1312.07   15.30
   1   2  -2 1243.87   17.84
   1   2  -2 1327.76   22.51
  -1  -2   2 1248.21   19.71
  -1  -2   2 1281.03   20.24
  -1  -2   2 1270.67   22.08
  -1  -2   1    5.02    1.27
   1   2  -1    8.88    1.52
  -1  -2   1    9.37    1.60
  -1  -2   1    6.65    1.58
   1   2  -1    8.41    1.76
   1   2  -1    4.86    1.15
  -1  -2   0  100.63    4.56
  -1  -2   0  100.62    5.45
  -1  -2   0   96.06    4.67
   1   2   0   90.30    5.41
  -1  -2   0   99.71    4.64
  -1  -2  -1  196.91    7.76
  -1  -2  -1  213.09    4.63
  -1  -2  -1  196.17    7.32
  -1  -2  -1  201.68    9.40
  -1  -2  -2 1193.21   29.44
   1   2   2 1255.13   34.76
  -1  -2  -2 1267.46   26.67
  -1  -2  -3  601.57   23.02
  -1  -2  -3  591.21   22.85
   1   2   3  618.41   26.80
  -1  -2  -3  622.38   16.74
  -1  -2  -3  606.08   22.42
  -1  -2  -3  625.60   19.21
  -1  -2  -4 2487.09   58.91
  -1  -2  -4 2374.91   41.50
  -1  -2  -4 2003.32   50.48
   1   2   4 2151.28   39.33
   1   2   4 1964.88   53.96
   1   2   4 2357.61   41.29
  -1  -2  -4 2345.88   46.84
  -1  -2  -5 1014.54   34.36
  -1  -2  -5  839.72   31.35
   1   2   5  967.47   37.11
  -1  -2  -5  772.76   19.84
  -1  -2  -5 1023.38   28.94
   1   2   5  857.52   19.53
  -1  -2  -5 1028.78   38.18
   1   2   5  891.87   27.90
   1   2   6   85.34    8.93
  -1  -2  -6  100.33   11.98
   1   2   6  105.27   11.91
   1   2   6   78.40   10.46
  -1  -2  -6   92.43    9.94
  -1  -2  -6   99.57    9.42
  -1  -2  -6   95.51   11.09
  -1  -2  -7 1323.66   44.35
  -1  -2  -7 1225.54   41.11
   1   2   7 1251.81   40.95
   1   2   7 1241.62   34.34
  -1  -2  -7 1190.60   35.49
  -1  -2  -7 1382.26   36.87
   1   2   7 1200.75   42.43
  -1  -2  -8 1750.96   51.35
   1   2   8 1697.47   47.67
  -1  -2  -8 1652.78   48.38
   1   2   8 1701.79   40.87
  -1  -2  -8 1620.58   41.61
   1   2   8 1742.72   51.43
  -1  -2  -8 1842.97   43.53
  -1  -2  -9   19.03    5.83
  -1  -2  -9   29.82    7.13
   1   2   9   18.76    5.92
  -1  -2  -9   27.35    5.67
  -1  -2  -9   29.73    7.57
   1   2   9   27.80    7.32
   1   2   9   25.22    5.36
  -1  -2  -9   21.85    4.58
  -1  -2 -10  488.72   25.29
  -1  -2 -10  471.28   21.87
   1   2  10  486.48   24.18
   1   2  10  561.80   27.81
  -1  -2 -10  553.49   28.76
  -1  -2 -11 1029.73   39.67
  -1  -2 -11  913.57   30.91
   1   2  11 1050.49   38.29
   1   2  11  966.26   34.24
  -1  -2 -11 1003.86   36.39
   1   2  12  425.21   24.81
  -1  -2 -12  389.86   22.68
  -1  -2 -12  455.19   26.39
   1   2  13   43.20    8.36
   1   2  13   38.77    8.65
  -1  -3  15   46.32    8.52
  -1  -3  14  587.43   28.86
   1   3 -14  606.25   29.61
  -1  -3  14  704.91   37.73
   1   3 -14  749.47   41.61
   1   3 -13  829.55   36.98
   1   3 -13  868.09   44.68
  -1  -3  13  847.17   41.76
   1   3 -13  754.34   33.00
  -1  -3  13  763.10   32.96
  -1  -3  12   50.59   10.13
   1   3 -12   74.16   11.08
   1   3 -12   63.07    9.67
   1   3 -12   74.06   11.75
  -1  -3  12   61.83    9.59
   1   3 -11  485.68   26.95
  -1  -3  11  501.73   26.76
  -1  -3  11  518.84   27.62
  -1  -3  11  498.07   31.67
   1   3 -11  499.89   30.67
  -1  -3  11  487.17   27.08
   1   3 -11  507.79   27.86
  -1  -3  10 1721.94   58.86
   1   3 -10 1726.45   49.69
  -1  -3  10 1848.94   48.83
   1   3 -10 1802.81   52.52
   1   3 -10 1885.06   56.35
  -1  -3  10 1806.30   52.43
  -1  -3  10 1917.52   55.40
  -1  -3   9 1075.05   42.62
   1   3  -9 1079.18   38.46
   1   3  -9 1036.99   35.38
  -1  -3   9 1123.40   39.44
   1   3  -9 1012.79   39.57
  -1  -3   9 1130.03   33.90
  -1  -3   9 1070.43   41.30
   1   3  -8  123.19   11.21
  -1  -3   8  109.86   12.29
   1   3  -8  116.13    8.84
  -1  -3   8  134.03   10.22
   1   3  -8  105.63   12.93
   1   3  -8  120.62   11.52
  -1  -3   8  109.60   12.88
   1   3  -8  134.96    9.36
  -1  -3   8  129.91   12.00
  -1  -3   7 3950.71   54.65
  -1  -3   7 3832.22   67.44
   1   3  -7 3913.42   61.75
  -1  -3   7 4001.37   65.00
  -1  -3   6 2304.57   35.19
   1   3  -6 2247.70   39.74
   1   3  -6 2280.14   41.91
   1   3  -6 2170.14   40.42
  -1  -3   6 2294.95   44.32
  -1  -3   6 2322.68   42.55
   1   3  -5   30.68    4.22
  -1  -3   5   36.47    7.26
   1   3  -5   24.16    3.85
  -1  -3   5   26.13    4.20
   1   3  -5   25.66    3.64
  -1  -3   5   24.78    3.05
   1   3  -5   28.13    6.55
  -1  -3   5   24.75    3.75
  -1  -3   4 2014.26   32.90
  -1  -3   4 1972.03   27.07
  -1  -3   4 1905.43   32.02
   1   3  -4 1975.76   30.65
   1   3  -4 2014.30   35.27
  -1  -3   3 3449.02   43.76
   1   3  -3 3490.69   35.43
   1   3  -3 3561.89   48.41
   1   3  -3 3533.78   41.48
  -1  -3   3 3459.68   50.61
   1   3  -2  110.65    5.47
   1   3  -2  114.77    7.25
   1   3  -2  135.34    6.76
   1   3  -2  131.81    7.09
  -1  -3   2  117.27    6.56
  -1  -3   2  114.43    5.95
  -1  -3   2  123.98    6.63
   1   3  -1  720.94   18.31
  -1  -3   1  754.49   17.24
  -1  -3   1  748.36   15.55
   1   3  -1  735.83   10.43
  -1  -3   1  746.79   14.74
  -1  -3   1  729.44   15.08
  -1  -3   0 1995.11   31.28
   1   3   0 1996.09   32.81
   1   3   0 2049.99   45.02
  -1  -3   0 1930.12   26.88
  -1  -3   0 1993.38   28.28
  -1  -3   0 1952.46   28.11
   1   3   1 1689.53   45.93
  -1  -3  -1 1659.27   27.44
  -1  -3  -1 1615.14   25.40
  -1  -3  -1 1742.33   31.44
   1   3   1 1710.06   19.24
  -1  -3  -2  169.87    9.32
  -1  -3  -2  168.28    8.38
  -1  -3  -2  173.25   10.82
   1   3   2  169.58   15.23
  -1  -3  -2  171.30    8.34
  -1  -3  -3 2106.84   37.03
  -1  -3  -3 1985.77   43.95
   1   3   3 1936.31   55.38
  -1  -3  -3 2012.05   41.23
   1   3   3 2093.70   45.56
   1   3   4 1050.26   40.29
   1   3   4 1021.73   24.56
  -1  -3  -4 1090.11   26.89
  -1  -3  -4 1083.15   29.63
  -1  -3  -4 1019.31   34.35
  -1  -3  -4 1058.13   33.18
   1   3   4  979.58   27.82
   1   3   5   15.15    3.02
  -1  -3  -5    5.38    2.19
   1   3   5    9.62    2.85
   1   3   5   16.36    5.87
  -1  -3  -5    4.63    3.20
  -1  -3  -5   22.55    5.25
  -1  -3  -5   10.58    3.08
  -1  -3  -6  672.01   25.77
   1   3   6  707.04   34.16
  -1  -3  -6  831.66   33.39
   1   3   6  796.47   33.53
   1   3   6  784.48   25.27
  -1  -3  -6  857.57   29.28
  -1  -3  -6  829.05   37.40
  -1  -3  -7 1538.69   41.47
   1   3   7 1461.92   45.91
  -1  -3  -7 1393.24   45.46
  -1  -3  -7 1446.47   49.80
  -1  -3  -7 1444.04   36.93
   1   3   7 1532.39   35.96
  -1  -3  -8  515.83   27.34
  -1  -3  -8  487.78   21.40
   1   3   8  566.30   28.10
   1   3   8  544.81   30.28
  -1  -3  -8  573.40   31.07
  -1  -3  -8  606.72   26.02
  -1  -3  -9   30.98    7.39
   1   3   9   32.81    7.41
  -1  -3  -9   23.26    4.64
   1   3   9   43.48    9.14
  -1  -3  -9   35.12    6.57
  -1  -3  -9   31.32    8.54
  -1  -3 -10  765.97   32.86
  -1  -3 -10  817.13   36.92
   1   3  10  803.24   35.21
  -1  -3 -10  811.30   36.55
   1   3  10  717.09   30.41
  -1  -3 -11 1028.16   37.83
  -1  -3 -11 1087.85   42.43
   1   3  11 1093.32   41.55
  -1  -3 -12   33.41    8.34
  -1  -3 -12   41.50    8.03
   1   3  12   44.46    9.07
  -1  -4  14  574.44   29.78
   1   4 -14  563.67   29.30
  -1  -4  14  626.18   38.09
   1   4 -13  219.25   22.30
  -1  -4  13  217.45   18.38
   1   4 -13  256.28   21.40
  -1  -4  13  241.77   23.66
   1   4 -13  188.12   16.87
   1   4 -12  130.97   16.45
   1   4 -12  119.02   13.46
  -1  -4  12  143.89   15.46
   1   4 -12  129.39   14.66
  -1  -4  12  113.95   16.06
  -1  -4  12  131.71   14.75
  -1  -4  11  988.74   47.16
   1   4 -11  907.24   37.91
   1   4 -11  965.65   38.50
   1   4 -11 1089.14   44.45
  -1  -4  11  998.43   41.31
  -1  -4  11  964.80   40.36
   1   4 -10 1055.70   41.79
  -1  -4  10 1170.08   45.43
   1   4 -10 1144.04   39.76
   1   4 -10 1239.37   43.47
  -1  -4  10 1151.76   47.00
  -1  -4  10 1242.52   45.64
  -1  -4   9   12.45    4.28
   1   4  -9   26.54    6.04
   1   4  -9   26.25    6.02
  -1  -4   9   25.83    4.65
   1   4  -9   18.07    5.64
  -1  -4   9   20.62    5.84
  -1  -4   9   14.50    5.77
  -1  -4   8 1002.37   34.86
   1   4  -8  985.69   30.79
   1   4  -8  920.32   28.82
   1   4  -8  983.35   31.30
   1   4  -8  960.12   40.43
  -1  -4   8  984.42   33.69
   1   4  -8 1019.14   31.82
  -1  -4   8  964.66   24.44
  -1  -4   7 1457.01   27.85
   1   4  -7 1494.66   34.36
  -1  -4   7 1535.10   38.44
   1   4  -7 1557.11   49.03
  -1  -4   7 1545.43   39.00
   1   4  -7 1481.81   36.46
  -1  -4   6  769.32   17.48
  -1  -4   6  762.10   23.92
   1   4  -6  786.58   22.08
  -1  -4   6  777.48   24.00
   1   4  -6  804.76   25.56
  -1  -4   6  780.31   35.12
   1   4  -6  864.73   32.89
  -1  -4   5  344.60   14.21
  -1  -4   5  384.42   22.14
   1   4  -5  346.70   13.28
  -1  -4   5  333.16   14.16
  -1  -4   5  384.43   11.01
   1   4  -5  351.39   15.97
   1   4  -5  364.58   19.67
   1   4  -4 3479.64   47.44
   1   4  -4 4030.21   96.08
  -1  -4   4 3599.87   50.11
  -1  -4   4 3816.42   62.78
   1   4  -4 3997.46   59.40
  -1  -4   4 3572.08   51.20
   1   4  -4 3700.60   56.50
   1   4  -3 2077.31   38.74
  -1  -4   3 1991.40   34.41
   1   4  -3 1970.02   30.86
  -1  -4   3 2042.47   32.91
   1   4  -3 1962.46   68.81
   1   4  -3 2144.60   32.93
  -1  -4   3 2072.05   36.73
   1   4  -2  126.85    5.36
  -1  -4   2  120.75    7.57
   1   4  -2  112.64   11.88
   1   4  -2  118.70    8.42
  -1  -4   2  122.28    6.91
   1   4  -2  130.48   17.56
   1   4  -2  117.60    6.56
  -1  -4   2  118.41    6.73
  -1  -4   1 3748.62   49.41
   1   4  -1 3451.44   75.81
  -1  -4   1 3936.98   42.55
   1   4  -1 3634.66   52.84
   1   4  -1 4063.72   94.30
  -1  -4   1 3894.80   45.93
  -1  -4   1 3694.14   44.80
  -1  -4   0 3513.43   44.83
  -1  -4   0 3537.10   43.01
  -1  -4   0 3492.33   48.92
   1   4   0 3636.00   83.02
  -1  -4   0 3534.69   45.81
   1   4   1  103.02   14.68
   1   4   1  116.48    4.77
  -1  -4  -1  106.22    6.95
   1   4   1  134.55   15.31
  -1  -4  -1  118.30    6.55
  -1  -4  -1  133.31    8.68
  -1  -4  -2 3815.67   49.68
   1   4   2 4029.66   85.30
  -1  -4  -2 3834.04   44.93
  -1  -4  -2 3989.41   56.18
  -1  -4  -3 3476.23   49.19
   1   4   3 3405.45   78.16
  -1  -4  -3 3326.82   59.73
   1   4   3 3208.40   62.15
  -1  -4  -3 3382.19   54.74
  -1  -4  -4   89.57    9.90
   1   4   4   99.41   12.93
  -1  -4  -4   67.68    6.69
   1   4   4  100.41    6.86
  -1  -4  -4   99.22    8.40
  -1  -4  -4   96.85    8.62
  -1  -4  -4   86.74    9.15
   1   4   4  102.13    9.65
  -1  -4  -5  469.75   26.34
  -1  -4  -5  491.02   22.52
  -1  -4  -5  367.11   16.81
   1   4   5  391.30   16.21
  -1  -4  -5  456.94   19.75
  -1  -4  -5  488.07   24.36
   1   4   5  478.13   27.30
   1   4   5  414.20   18.01
  -1  -4  -6 1588.26   37.45
  -1  -4  -6 1915.77   51.92
   1   4   6 1889.07   54.03
   1   4   6 1688.24   56.35
  -1  -4  -6 1959.75   46.71
  -1  -4  -6 1909.74   60.66
   1   4   7 1134.59   41.59
  -1  -4  -7 1115.02   46.37
  -1  -4  -7 1179.38   37.96
  -1  -4  -7 1091.67   40.87
   1   4   7  997.18   43.42
  -1  -4  -8   12.80    4.87
   1   4   8   19.66    6.62
  -1  -4  -8   10.72    3.87
   1   4   8   12.04    5.74
  -1  -4  -8   19.50    7.27
   1   4   9  781.34   32.90
  -1  -4  -9  875.01   40.77
  -1  -4  -9  817.84   35.45
   1   4   9  862.00   39.46
   1   4  10 1016.92   37.31
  -1  -4 -10 1083.08   40.16
  -1  -4 -10 1221.00   47.85
   1   4  10 1154.84   44.53
  -1  -4 -11  255.75   21.49
   1   4  11  237.97   18.02
  -1  -4 -11  252.15   18.94
  -1  -4 -11  262.67   22.12
   1   4  11  249.53   20.97
  -1  -4 -12   71.42    9.94
   1   4  12   73.33   11.89
  -1  -5  14  350.15   24.37
   1   5 -14  350.96   23.83
   1   5 -14  417.80   32.74
  -1  -5  14  362.16   30.71
  -1  -5  13   30.54    7.30
   1   5 -13   31.61    8.87
  -1  -5  13   15.88    5.52
   1   5 -13   25.93    6.31
  -1  -5  12  975.53   49.53
  -1  -5  12  950.99   42.39
   1   5 -12 1059.46   46.67
  -1  -5  12  935.89   41.31
   1   5 -11  965.97   41.16
  -1  -5  11  931.77   42.19
  -1  -5  11  919.30   41.57
  -1  -5  11  942.70   45.37
  -1  -5  10   30.46    7.29
  -1  -5  10   47.48    8.81
   1   5 -10   49.56    8.93
   1   5 -10   34.94    7.65
  -1  -5  10   34.33    8.37
   1   5  -9  209.57   14.00
   1   5  -9  239.06   16.22
   1   5  -9  220.21   19.36
  -1  -5   9  195.16   19.58
   1   5  -9  248.46   16.54
  -1  -5   9  236.66   18.41
  -1  -5   9  258.42   19.37
  -1  -5   8  956.84   22.32
  -1  -5   8  965.59   33.31
  -1  -5   8  977.03   34.18
   1   5  -8  916.66   31.49
   1   5  -8  926.69   29.26
   1   5  -8  952.68   38.51
  -1  -5   7  485.40   14.11
   1   5  -7  448.54   24.09
  -1  -5   7  455.83   21.19
   1   5  -7  424.18   21.09
   1   5  -7  418.66   17.80
  -1  -5   7  390.83   26.87
   1   5  -7  527.80   28.81
  -1  -5   7  431.68   19.73
   1   5  -6   75.26    8.97
   1   5  -6   52.78    6.09
  -1  -5   6   58.63    6.94
   1   5  -6   57.14    7.61
  -1  -5   6   65.74   10.56
  -1  -5   6   51.65    6.36
  -1  -5   5  990.57   27.24
   1   5  -5 1039.60   28.92
  -1  -5   5 1039.15   35.21
  -1  -5   5  973.10   25.70
   1   5  -5  970.78   24.46
   1   5  -5  953.16   30.24
  -1  -5   4 1693.94   38.61
   1   5  -4 1673.40   68.62
   1   5  -4 1697.18   31.46
  -1  -5   4 1611.12   32.17
   1   5  -4 1575.36   30.47
   1   5  -4 1578.60   38.57
  -1  -5   4 1587.73   34.08
   1   5  -3    3.24    2.66
   1   5  -3    9.44    3.33
   1   5  -3    5.12    1.96
  -1  -5   3    9.42    2.63
  -1  -5   3   13.67    2.73
   1   5  -3    8.06    1.77
   1   5  -3    2.35    5.74
  -1  -5   3    5.02    1.69
   1   5  -2 1262.88   18.38
  -1  -5   2 1242.98   24.38
  -1  -5   2 1207.80   28.06
  -1  -5   2 1192.71   24.65
  -1  -5   2 1227.22   24.97
   1   5  -2 1249.98   61.77
   1   5  -1 2048.50   60.65
  -1  -5   1 2555.88   37.54
   1   5  -1 3004.57   90.11
  -1  -5   1 2650.74   39.31
  -1  -5   1 2623.92   42.28
  -1  -5   1 2723.68   34.14
  -1  -5   0  749.34   19.22
  -1  -5   0  746.70   20.09
  -1  -5   0  773.06   18.27
  -1  -5   0  743.89   21.62
  -1  -5  -1 1108.95   25.90
   1   5   1 1036.28   45.44
  -1  -5  -1 1191.05   28.91
   1   5   1 1268.90   50.05
  -1  -5  -1 1156.93   23.38
   1   5   2 3118.35   37.12
  -1  -5  -2 3047.92   44.75
  -1  -5  -2 3198.10   55.06
  -1  -5  -2 3048.56   49.75
  -1  -5  -3 1890.55   41.09
  -1  -5  -3 1816.15   44.89
  -1  -5  -3 1920.92   36.25
   1   5   4   15.97    6.82
  -1  -5  -4   30.76    4.84
  -1  -5  -4   14.69    4.60
  -1  -5  -4   15.84    4.07
   1   5   4   26.57    5.90
  -1  -5  -5 2229.90   49.65
   1   5   5 2193.50   61.44
  -1  -5  -5 2147.64   55.46
  -1  -5  -5 2085.82   57.24
  -1  -5  -5 2177.29   46.56
  -1  -5  -6 2361.16   59.85
   1   5   6 2338.08   62.98
  -1  -5  -6 2201.79   65.87
  -1  -5  -6 2309.26   52.26
  -1  -5  -6 2377.97   57.68
  -1  -5  -7  195.48   16.04
   1   5   7  197.79   17.43
  -1  -5  -7  192.61   19.92
   1   5   7  169.86   18.74
  -1  -5  -7  181.57   16.47
  -1  -5  -8  656.07   32.70
   1   5   8  660.10   30.93
  -1  -5  -8  712.45   31.59
   1   5   8  660.24   36.29
  -1  -5  -8  732.26   40.26
  -1  -5  -9 1266.87   45.32
  -1  -5  -9 1296.49   53.15
   1   5   9 1182.88   41.64
   1   5   9 1332.19   51.20
   1   5  10  508.89   30.95
   1   5  10  461.44   25.49
  -1  -5 -10  508.59   32.83
  -1  -5 -10  494.34   27.20
  -1  -5 -11   39.03    9.13
   1   5  11   51.82   10.57
  -1  -5 -11   43.89   10.54
   1   6 -14   58.80   12.62
  -1  -6  14   75.86   11.91
  -1  -6  14   64.39   13.65
   1   6 -14   67.59   10.84
  -1  -6  13  259.62   27.46
   1   6 -13  332.03   28.04
  -1  -6  13  305.90   24.64
   1   6 -13  262.31   21.54
  -1  -6  12  871.68   43.42
  -1  -6  12  897.07   42.81
   1   6 -12 1005.82   44.83
  -1  -6  12  917.06   47.70
  -1  -6  11  294.00   24.67
  -1  -6  11  284.34   24.56
   1   6 -11  230.95   20.84
   1   6 -11  314.74   22.87
  -1  -6  11  260.38   23.18
   1   6 -10   86.84   12.26
  -1  -6  10  103.36   13.99
  -1  -6  10   67.41   11.02
   1   6 -10   86.60   11.21
  -1  -6  10   88.01   12.70
  -1  -6   9 1054.98   48.66
   1   6  -9 1198.57   44.17
   1   6  -9 1252.41   37.80
  -1  -6   9 1325.89   45.07
   1   6  -9 1341.97   44.13
  -1  -6   9 1294.33   42.19
   1   6  -9 1108.20   35.97
   1   6  -8  874.88   28.65
  -1  -6   8  824.98   30.33
   1   6  -8  944.71   39.39
   1   6  -8  818.92   33.32
  -1  -6   8  831.63   32.66
   1   6  -8  766.13   31.15
  -1  -6   8  760.63   39.88
  -1  -6   7   29.77    5.97
   1   6  -7   35.16    6.57
   1   6  -7   21.40    5.54
  -1  -6   7   21.05    6.84
   1   6  -7   28.65    5.07
   1   6  -7   33.23    8.23
  -1  -6   7   36.99    6.26
   1   6  -6 1161.53   37.89
  -1  -6   6 1230.36   43.52
   1   6  -6 1188.11   32.87
   1   6  -6 1193.21   30.51
  -1  -6   6 1163.49   33.54
  -1  -6   6 1169.75   31.60
  -1  -6   5 1228.53   36.90
  -1  -6   5 1097.45   30.94
   1   6  -5 1100.80   27.59
   1   6  -5 1266.29   58.88
   1   6  -5 1130.32   36.19
   1   6  -5 1104.20   28.04
  -1  -6   5 1141.77   29.38
  -1  -6   4   14.24    3.60
   1   6  -4   17.50    8.32
   1   6  -4   13.79    2.70
   1   6  -4    8.30    2.48
  -1  -6   4   12.61    3.35
  -1  -6   4   14.66    3.80
   1   6  -3 1041.87   19.42
  -1  -6   3 1000.03   28.00
   1   6  -3 1058.53   25.44
   1   6  -3  987.19   57.41
   1   6  -3  950.85   24.18
  -1  -6   3  986.72   24.91
  -1  -6   3 1085.09   25.59
  -1  -6   2 1571.21   34.98
   1   6  -2 1608.86   70.87
   1   6  -2 1588.62   44.25
  -1  -6   2 1605.80   29.12
   1   6  -2 1435.62   20.30
  -1  -6   2 1479.90   30.53
  -1  -6   2 1489.37   30.00
  -1  -6   1  547.92   14.30
   1   6  -1  563.05   39.77
  -1  -6   1  513.44   17.65
  -1  -6   1  512.77   19.24
  -1  -6   1  525.85   17.05
   1   6  -1  509.78   29.33
  -1  -6   0   60.55    5.44
   1   6   0   59.13   12.20
  -1  -6   0   52.95    6.34
  -1  -6   0   63.60    5.98
   1   6   0   41.66    8.77
  -1  -6   0   58.11    6.13
  -1  -6  -1 1525.28   33.67
   1   6   1 1501.05   56.04
   1   6   1 1551.12   54.67
  -1  -6  -1 1566.83   36.22
  -1  -6  -1 1561.96   29.76
   1   6   2 1758.50   54.29
   1   6   2 1939.44   29.55
  -1  -6  -2 1824.70   39.17
  -1  -6  -2 1842.79   42.54
  -1  -6  -2 1817.45   34.27
  -1  -6  -3   89.32    7.64
   1   6   3   81.58   10.73
  -1  -6  -3   73.85    8.06
  -1  -6  -3   91.10    9.72
   1   6   3  102.87   14.76
  -1  -6  -4  413.02   18.37
  -1  -6  -4  364.07   21.95
   1   6   4  341.24   21.13
  -1  -6  -4  369.00   20.56
  -1  -6  -5 1985.13   45.90
  -1  -6  -5 1997.64   47.48
   1   6   5 1883.40   49.33
  -1  -6  -5 1970.71   55.69
  -1  -6  -5 2033.43   55.88
  -1  -6  -6 1007.40   34.60
   1   6   6  932.47   44.93
  -1  -6  -6  986.34   43.71
   1   6   6 1030.65   40.97
  -1  -6  -6 1044.70   40.52
  -1  -6  -6 1065.12   37.93
  -1  -6  -7   34.40    7.46
  -1  -6  -7   41.25    7.62
   1   6   7   32.98    7.78
  -1  -6  -7   22.46    7.04
   1   6   7   39.03    9.69
  -1  -6  -8  820.33   44.91
   1   6   8  757.70   33.96
  -1  -6  -8  868.99   36.38
  -1  -6  -8  789.19   36.33
   1   6   8  821.46   42.12
   1   6   9  801.80   34.51
  -1  -6  -9  899.73   46.33
   1   6   9  956.01   45.13
  -1  -6 -10   25.03    9.00
   1   6  10   42.55   10.10
   1   7 -13  527.56   34.78
  -1  -7  13  462.68   32.69
  -1  -7  13  472.83   36.01
   1   7 -13  376.47   27.34
  -1  -7  13  473.90   32.06
  -1  -7  12  524.75   35.40
   1   7 -12  441.36   30.13
  -1  -7  12  515.50   35.27
  -1  -7  12  528.95   34.80
   1   7 -12  560.56   32.95
  -1  -7  11   17.88    5.55
   1   7 -11   31.15    7.49
  -1  -7  11   29.02    8.86
   1   7 -11   26.23    7.60
  -1  -7  11   35.38    9.62
  -1  -7  10  343.68   23.43
   1   7 -10  309.83   23.00
   1   7 -10  346.00   21.51
  -1  -7  10  391.00   27.27
  -1  -7  10  313.10   27.94
  -1  -7   9 1295.30   46.15
  -1  -7   9 1241.88   41.29
   1   7  -9 1369.04   49.29
   1   7  -9 1196.56   37.47
   1   7  -9 1228.23   43.18
   1   7  -8  366.07   26.86
   1   7  -8  315.48   19.82
   1   7  -8  307.12   17.56
  -1  -7   8  374.00   28.99
  -1  -7   8  320.36   19.09
  -1  -7   8  338.89   21.63
  -1  -7   7  821.09   38.69
   1   7  -7  758.24   27.02
  -1  -7   7  762.01   30.11
   1   7  -7  746.50   26.18
  -1  -7   7  703.10   26.50
  -1  -7   6 1878.02   45.67
   1   7  -6 1778.52   38.54
  -1  -7   6 1835.57   42.01
   1   7  -6 1884.86   41.60
   1   7  -5  706.33   46.58
  -1  -7   5  664.01   23.25
  -1  -7   5  669.24   26.16
  -1  -7   5  641.21   24.90
   1   7  -5  666.77   23.09
   1   7  -5  656.33   19.79
   1   7  -4  175.71    8.65
  -1  -7   4  164.93   12.24
   1   7  -4  162.63   23.59
  -1  -7   4  150.28   10.49
   1   7  -4  164.85   11.01
  -1  -7   4  160.98   11.08
   1   7  -3 1661.78   25.58
  -1  -7   3 1729.62   35.51
  -1  -7   3 1630.76   34.86
   1   7  -3 1675.88   76.19
  -1  -7   3 1736.06   40.20
  -1  -7   3 1753.46   34.79
  -1  -7   2 1316.62   26.94
  -1  -7   2 1239.67   30.12
  -1  -7   2 1254.20   33.36
   1   7  -2 1156.84   61.67
  -1  -7   2 1240.24   28.92
   1   7  -2 1366.67   39.41
  -1  -7   1    4.66    2.36
  -1  -7   1    4.67    1.65
  -1  -7   1    2.43    2.09
  -1  -7   1    3.99    1.44
   1   7  -1    5.56    3.84
   1   7  -1    7.59    6.22
  -1  -7   1    5.07    2.17
   1   7   0 2045.15   70.83
  -1  -7   0 1923.06   42.18
  -1  -7   0 2018.53   35.88
  -1  -7   0 1999.04   40.90
  -1  -7   0 2059.02   39.08
   1   7   1 1746.11   60.14
  -1  -7  -1 1898.32   35.17
  -1  -7  -1 1889.22   42.77
   1   7   1 1777.02   61.20
  -1  -7  -1 1889.77   40.78
  -1  -7  -2  496.14   20.94
  -1  -7  -2  522.00   18.10
  -1  -7  -2  483.24   22.29
   1   7   2  555.41   33.88
   1   7   2  464.89   28.90
  -1  -7  -3  171.88   10.99
   1   7   3  192.26   19.53
   1   7   3  148.55   15.36
  -1  -7  -3  166.22   14.07
  -1  -7  -3  159.76   12.67
   1   7   4 1097.81   41.74
  -1  -7  -4 1130.75   41.32
   1   7   4 1248.25   47.54
  -1  -7  -4 1203.95   33.05
  -1  -7  -4 1166.77   38.85
  -1  -7  -5  822.25   36.64
  -1  -7  -5  875.68   30.95
   1   7   5  879.33   38.95
  -1  -7  -5  826.41   30.23
  -1  -7  -5  812.47   35.75
  -1  -7  -6   60.32   10.04
   1   7   6   52.61   11.06
  -1  -7  -6   60.18    8.83
  -1  -7  -6   53.18    9.23
   1   7   6   82.56   11.98
  -1  -7  -6   55.34    8.70
   1   7   7  224.76   18.99
  -1  -7  -7  219.46   22.73
  -1  -7  -7  220.26   17.80
   1   7   7  239.81   23.60
   1   7   8  660.79   32.17
   1   7   8  726.01   41.07
  -1  -7  -8  739.15   43.55
   1   7   9  284.84   25.42
  -1  -7  -9  238.38   24.88
   1   8 -13  421.87   31.23
  -1  -8  13  377.97   31.71
   1   8 -13  347.86   27.29
  -1  -8  12    5.94    7.26
  -1  -8  12   22.65    8.98
   1   8 -12   14.77    6.11
   1   8 -12   20.81    7.17
  -1  -8  12   22.49    8.09
  -1  -8  11   71.85   13.19
   1   8 -11  124.03   14.25
  -1  -8  11  119.39   15.48
  -1  -8  11  144.49   18.96
   1   8 -11   90.54   12.74
  -1  -8  10  620.32   31.75
   1   8 -10  550.22   29.73
  -1  -8  10  694.62   37.88
   1   8 -10  634.28   29.63
  -1  -8  10  536.23   37.60
  -1  -8   9  258.92   21.53
   1   8  -9  270.34   18.94
   1   8  -9  241.30   17.13
  -1  -8   9  230.95   24.79
  -1  -8   9  255.60   18.67
   1   8  -9  275.92   24.09
   1   8  -8    7.77    4.85
   1   8  -8   14.19    3.98
  -1  -8   8   12.85    5.36
  -1  -8   8   21.38    8.13
   1   8  -8   16.12    4.62
  -1  -8   8   13.07    4.39
  -1  -8   7  960.11   32.23
   1   8  -7  974.39   32.18
  -1  -8   7  953.52   35.76
   1   8  -7  975.14   29.93
  -1  -8   7 1056.13   42.38
   1   8  -6  861.98   24.92
  -1  -8   6  822.12   31.45
   1   8  -6  819.17   28.44
  -1  -8   6  914.93   34.45
  -1  -8   6  848.17   28.93
   1   8  -5   56.58    7.13
   1   8  -5   74.34   15.98
  -1  -8   5   73.38    9.11
  -1  -8   5   69.75    7.91
  -1  -8   5   66.81    8.06
  -1  -8   4  692.26   26.97
   1   8  -4  706.79   50.91
  -1  -8   4  654.46   23.07
  -1  -8   4  693.38   23.59
  -1  -8   4  694.88   23.87
  -1  -8   3 2411.38   42.42
   1   8  -3 2307.72   92.59
  -1  -8   3 2287.25   44.06
  -1  -8   3 2352.10   50.78
  -1  -8   2  842.17   24.87
   1   8  -2  902.39   55.51
  -1  -8   2  808.12   25.89
  -1  -8   2  839.98   28.77
   1   8  -1  392.32   34.54
   1   8  -1  371.24   22.41
  -1  -8   1  370.55   17.58
  -1  -8   1  391.50   16.81
  -1  -8   1  376.71   15.27
  -1  -8   1  371.08   18.85
   1   8   0 2250.20   76.87
  -1  -8   0 2264.29   44.09
  -1  -8   0 2176.74   48.49
  -1  -8   0 2195.01   46.33
  -1  -8   0 2325.85   41.00
  -1  -8  -1 1493.44   38.37
  -1  -8  -1 1497.75   32.47
   1   8   1 1445.72   57.15
  -1  -8  -1 1506.44   40.30
  -1  -8  -2   10.79    2.59
   1   8   2    9.73    5.02
   1   8   2   12.15    5.63
  -1  -8  -2    8.21    3.19
  -1  -8  -2    9.12    2.76
   1   8   3 1140.40   47.13
  -1  -8  -3 1114.18   39.38
   1   8   3 1007.30   43.39
  -1  -8  -3 1085.08   36.16
  -1  -8  -3 1151.03   30.71
  -1  -8  -4 1430.35   45.31
   1   8   4 1462.68   51.44
  -1  -8  -4 1434.97   48.45
   1   8   4 1511.24   52.99
  -1  -8  -5  351.09   24.08
  -1  -8  -5  372.15   25.41
   1   8   5  341.45   28.70
   1   8   5  351.68   24.93
  -1  -8  -5  339.77   20.20
  -1  -8  -6  140.16   17.06
  -1  -8  -6  161.93   17.20
  -1  -8  -6  161.58   15.03
   1   8   6  132.85   15.08
   1   8   6  124.56   17.84
   1   8   7  516.44   35.40
  -1  -8  -7  533.91   28.91
  -1  -8  -7  511.51   36.40
   1   8   7  500.80   28.69
   1   8   8  426.26   31.96
  -1  -8  -8  397.02   32.99
  -1  -9  13   77.54   15.77
  -1  -9  12   56.71   12.76
   1   9 -12   83.93   13.17
  -1  -9  12   92.65   15.14
   1   9 -12  103.70   14.50
  -1  -9  12   78.61   14.94
  -1  -9  11  375.07   30.83
   1   9 -11  348.32   24.48
  -1  -9  11  310.28   29.82
   1   9 -11  290.62   22.75
  -1  -9  11  370.86   26.95
   1   9 -10  274.03   20.33
  -1  -9  10  284.34   21.73
  -1  -9  10  307.27   25.93
  -1  -9  10  262.12   27.16
   1   9 -10  274.85   20.32
  -1  -9   9   18.26    6.99
  -1  -9   9   14.85    5.70
   1   9  -9   14.03    5.19
  -1  -9   9   14.60    7.03
   1   9  -9   10.72    5.87
   1   9  -9   21.62    5.68
  -1  -9   8  544.97   30.15
   1   9  -8  526.90   25.75
  -1  -9   8  563.29   26.77
  -1  -9   8  621.55   35.43
   1   9  -8  634.86   41.94
   1   9  -7  628.80   27.15
  -1  -9   7  622.39   30.10
  -1  -9   7  620.60   26.77
   1   9  -7  697.24   47.25
  -1  -9   7  647.84   31.81
  -1  -9   6   38.55    6.57
  -1  -9   6   48.25    8.08
   1   9  -6   37.39    6.64
  -1  -9   6   55.39    8.54
  -1  -9   5   49.41    6.87
  -1  -9   5   83.47   10.59
   1   9  -5   72.85   16.98
  -1  -9   5   80.41    8.99
  -1  -9   5   90.53    9.46
   1   9  -4 1161.32   68.41
  -1  -9   4 1216.08   33.59
  -1  -9   4 1201.98   38.23
  -1  -9   4 1144.49   33.53
  -1  -9   4 1247.63   32.59
  -1  -9   3  940.58   33.14
  -1  -9   3  886.30   29.15
  -1  -9   3  910.39   27.88
   1   9  -3  877.01   58.49
  -1  -9   2    9.60    3.02
  -1  -9   2   12.12    2.83
  -1  -9   2   17.88    4.03
  -1  -9   2   17.73    4.76
  -1  -9   1  985.76   31.22
  -1  -9   1  917.77   32.44
   1   9  -1  942.05   54.68
  -1  -9   1  979.41   26.63
  -1  -9   1  990.06   29.17
  -1  -9   0 1373.37   32.27
  -1  -9   0 1403.27   35.64
   1   9   0 1323.49   60.69
  -1  -9   0 1310.11   37.09
  -1  -9   0 1304.16   39.28
   1   9   1  554.36   36.38
  -1  -9  -1  546.77   24.33
   1   9   1  501.22   29.99
  -1  -9  -1  571.47   26.04
  -1  -9  -2  205.26   16.45
   1   9   2  172.64   18.15
   1   9   2  204.59   20.92
  -1  -9  -2  208.05   15.76
  -1  -9  -3 1310.74   45.95
   1   9   3 1303.28   52.25
   1   9   3 1230.92   49.14
  -1  -9  -3 1365.23   43.12
  -1  -9  -4  783.31   37.65
   1   9   4  771.74   37.80
  -1  -9  -4  822.15   36.16
   1   9   4  782.83   45.04
   1   9   4  808.84   40.44
   1   9   5   -5.30    7.79
  -1  -9  -5    2.18    4.54
  -1  -9  -5    3.08    3.73
  -1  -9  -5   -1.21    6.36
  -1  -9  -6  559.31   29.41
  -1  -9  -6  588.76   34.92
  -1  -9  -6  522.87   35.07
   1   9   6  557.53   37.98
  -1  -9  -7  756.05   36.08
  -1  -9  -7  797.27   46.48
   1   9   7  847.24   46.57
   1  10 -11  532.85   31.25
  -1 -10  11  548.13   33.05
  -1 -10  11  450.85   37.53
  -1 -10  11  588.95   40.00
  -1 -10  10   73.52   11.90
  -1 -10  10   91.73   16.51
  -1 -10  10   90.42   14.52
   1  10 -10   72.44   11.42
   1  10  -9  250.94   19.58
  -1 -10   9  283.91   26.32
   1  10  -9  303.84   29.40
  -1 -10   9  265.78   20.14
  -1 -10   9  251.73   22.84
   1  10  -8 1158.05   60.65
   1  10  -8 1026.50   38.38
  -1 -10   8 1037.68   43.55
  -1 -10   8 1001.55   37.08
  -1 -10   8 1049.94   44.30
  -1 -10   7  273.11   19.76
   1  10  -7  247.27   18.16
  -1 -10   7  237.86   19.56
  -1 -10   7  259.00   18.16
  -1 -10   6   46.68    7.59
  -1 -10   6   38.45    7.89
  -1 -10   6   50.41    7.92
  -1 -10   6   40.22    6.80
   1  10  -6   59.90   16.74
  -1 -10   5  852.99   30.18
   1  10  -5  842.25   60.33
  -1 -10   5  796.97   33.51
  -1 -10   5  804.53   30.34
  -1 -10   4  959.83   36.09
   1  10  -4 1010.26   66.45
  -1 -10   4  958.89   30.92
  -1 -10   4  898.23   31.89
  -1 -10   3   49.36    6.94
   1  10  -3   45.09   14.55
  -1 -10   3   45.65    6.43
  -1 -10   3   51.29    8.29
   1  10  -2  399.82   39.44
  -1 -10   2  368.82   20.13
  -1 -10   2  380.64   22.18
  -1 -10   2  372.62   18.60
  -1 -10   1  957.59   30.30
   1  10  -1  913.78   55.98
  -1 -10   1  913.64   34.33
  -1 -10   1  910.26   32.03
   1  10   0  495.47   38.24
  -1 -10   0  487.33   23.86
  -1 -10   0  512.83   25.87
  -1 -10  -1    4.82    3.24
   1  10   1    3.35    4.99
  -1 -10  -1    0.92    4.13
  -1 -10  -2  533.82   26.81
   1  10   2  489.52   34.70
  -1 -10  -2  520.75   28.37
  -1 -10  -3  495.49   29.45
   1  10   3  531.84   37.19
  -1 -10  -3  594.26   30.02
   1  10   3  556.43   36.09
  -1 -10  -4  175.38   18.40
   1  10   4  199.21   23.16
  -1 -10  -4  203.76   18.97
  -1 -10  -5  118.95   15.52
  -1 -10  -5  153.29   15.41
   1  10   5  125.46   18.43
  -1 -10  -5  142.88   17.36
  -1 -10  -6  531.88   30.07
  -1 -11  10    7.48    6.22
   1  11  -9  588.02   43.65
   1  11  -9  500.12   28.79
  -1 -11   9  519.20   33.75
  -1 -11   9  501.00   33.41
  -1 -11   9  515.32   29.01
  -1 -11   8  776.99   38.99
   1  11  -8  777.22   34.84
  -1 -11   8  780.33   33.87
   1  11  -8  877.72   56.56
   1  11  -7   38.81   13.01
  -1 -11   7   31.72    8.45
  -1 -11   7   21.85    5.40
  -1 -11   7   37.59    7.82
   1  11  -6  320.06   37.57
  -1 -11   6  315.11   22.55
  -1 -11   6  309.12   19.70
  -1 -11   6  307.65   20.15
  -1 -11   5 1655.65   46.96
  -1 -11   5 1690.17   45.22
  -1 -11   5 1621.34   50.90
  -1 -11   4  571.15   29.26
   1  11  -4  584.48   52.23
  -1 -11   4  518.83   25.39
  -1 -11   4  563.72   24.95
  -1 -11   3  122.81   12.15
  -1 -11   3  142.59   14.29
  -1 -11   3  124.62   11.30
  -1 -11   2 1044.43   39.35
   1  11  -2 1175.27   69.86
  -1 -11   2 1062.30   36.53
  -1 -11   2 1103.88   34.39
  -1 -11   1  595.65   29.56
  -1 -11   1  618.28   25.52
  -1 -11   1  576.70   27.02
  -1 -11   0   43.49    8.29
   1  11   0   49.16   13.27
  -1 -11   0   30.37    6.53
   1  11   1  336.50   31.67
  -1 -11  -1  311.04   22.24
  -1 -11  -1  341.22   21.84
   1  11   2  524.52   37.97
  -1 -11  -2  601.38   32.94
  -1 -11  -2  604.00   30.45
   1  11   2  568.98   39.43
   1  11   3  180.59   22.19
  -1 -11  -3  211.18   20.47
   1  11   3  215.38   23.80
  -1 -11  -3  208.05   18.86
  -1 -11  -4    2.58    6.18
   1  11   4   18.45    7.76
  -1 -11  -4   26.74    7.26
   1  12  -8  239.16   31.79
  -1 -12   8  244.72   19.65
  -1 -12   7   19.38    6.94
   1  12  -7   11.00    9.32
  -1 -12   7    9.75    4.83
  -1 -12   7   16.09    6.37
  -1 -12   6  637.30   33.82
  -1 -12   6  598.59   30.13
  -1 -12   6  648.52   29.81
  -1 -12   5  808.91   34.32
   1  12  -5  845.81   66.45
  -1 -12   5  814.61   32.49
  -1 -12   5  810.20   37.42
  -1 -12   4    7.68    4.18
   1  12  -4   -2.74    8.19
  -1 -12   4    2.06    4.41
  -1 -12   4   -0.18    3.27
  -1 -12   3  424.91   24.40
  -1 -12   3  417.38   26.04
  -1 -12   3  430.95   22.42
   1  12  -3  504.51   49.03
  -1 -12   2 1061.93   38.77
  -1 -12   2 1087.74   42.60
   1  12  -2 1177.10   71.94
  -1 -12   2 1116.08   36.37
  -1 -12   1  331.91   23.43
  -1 -12   1  319.40   21.24
   1  12  -1  386.32   38.96
  -1 -12   0   36.28    8.24
   1  12   0   57.97   15.15
  -1 -12   0   43.97    8.07
   1  12   1  864.91   52.26
  -1 -12  -1  835.87   39.27
   1  12   2  320.93   30.67
  -1 -13   5   87.13   11.04
  -2  12   4   38.28   10.65
  -2  12   3  208.17   24.62
  -2  12   2  847.36   51.46
   2 -12  -2  837.27   33.73
   2 -12  -2  830.28   35.82
  -2  12   1   75.45   15.98
   2 -12  -1   69.67    9.69
   2 -12  -1   63.67    9.76
  -2  12   0  384.48   40.17
   2 -12   0  320.27   20.78
   2 -12   0  338.74   21.57
   2 -12   1  829.73   34.17
   2 -12   1  832.16   34.00
   2 -12   2  330.41   21.25
  -2  12  -2  349.96   43.24
   2 -12   2  342.14   22.34
  -2  12  -3   26.65   12.67
   2 -12   3   34.54    7.69
   2 -12   3   24.79    5.90
  -2  12  -4  593.00   55.99
   2 -12   4  528.49   27.50
   2 -12   4  517.11   29.01
  -2  12  -5  490.24   48.72
   2 -12   5  425.24   24.96
   2 -12   5  428.67   27.40
  -2  12  -6   26.66   12.55
   2 -12   6   31.20    8.30
   2 -12   6   37.25    8.30
  -2  12  -7  121.35   21.56
  -2  12  -8  553.77   42.72
  -2  11   6  296.82   24.17
   2 -11  -5  145.41   16.01
   2 -11  -5  118.66   14.56
  -2  11   5  161.69   17.93
   2 -11  -4   23.75    5.84
  -2  11   4    9.16    4.87
  -2  11   3  579.14   39.67
   2 -11  -3  642.53   30.56
   2 -11  -3  643.90   28.46
  -2  11   2  505.35   38.77
   2 -11  -2  510.13   24.39
   2 -11  -2  508.86   26.14
   2 -11  -1    2.14    3.26
  -2  11   1   -0.59    6.85
   2 -11  -1   -4.83    4.94
   2 -11   0  635.51   27.97
   2 -11   0  621.62   27.38
  -2  11   0  702.11   53.28
   2 -11   1  792.28   31.61
  -2  11  -1  828.22   63.03
   2 -11   1  795.10   31.05
   2 -11   2  159.55   13.71
  -2  11  -2  211.97   32.96
   2 -11   2  183.51   15.57
  -2  11  -3  376.96   44.63
   2 -11   3  353.48   22.04
   2 -11   3  349.16   20.76
  -2  11  -4 1424.80   82.93
   2 -11   4 1308.71   41.46
   2 -11   4 1306.14   44.56
   2 -11   5  575.19   27.51
   2 -11   5  577.32   30.47
   2 -11   6    8.39    4.09
  -2  11  -6   12.37    6.85
  -2  11  -6    3.52    4.29
   2 -11   6   18.71    6.87
  -2  11  -7  796.55   35.41
  -2  11  -7  872.45   53.73
   2 -11   7  819.30   33.07
   2 -11   7  846.23   40.52
  -2  11  -8  486.12   37.53
   2 -11   8  511.45   33.88
   2 -11   8  494.52   27.16
   2 -11   8  482.54   37.38
  -2  11  -8  483.29   28.35
   2 -11   9  -15.17   10.39
   2 -11   9    3.88    4.47
   2 -10  -7  486.62   30.30
  -2  10   7  538.06   31.78
   2 -10  -7  553.77   35.74
   2 -10  -6  229.05   20.00
   2 -10  -6  257.09   22.40
  -2  10   6  254.93   21.84
   2 -10  -5   13.05    5.22
   2 -10  -5   24.46    7.00
  -2  10   5   23.66    7.95
  -2  10   5   18.27    7.23
  -2  10   4  425.21   31.06
   2 -10  -4  473.63   25.90
   2 -10  -4  467.80   26.09
  -2  10   3  611.15   39.64
   2 -10  -3  644.64   26.35
   2 -10  -3  640.23   28.87
  -2  10   3  732.35   39.03
   2 -10  -2   11.39    4.08
  -2  10   2    7.21    5.57
   2 -10  -2    5.56    3.51
  -2  10   1  266.84   31.84
   2 -10  -1  286.58   17.76
   2 -10  -1  274.39   16.58
  -2  10   0  884.32   60.19
   2 -10   0  920.99   31.73
   2 -10   0  909.93   31.57
   2 -10   1  728.20   27.88
  -2  10  -1  776.38   57.75
   2 -10   1  767.05   29.52
  -2  10  -2    0.10    8.11
   2 -10   2    5.43    3.89
   2 -10   2   -0.27    3.94
   2 -10   3 1112.40   37.69
   2 -10   3 1087.18   34.96
  -2  10  -3 1201.00   75.66
  -2  10  -4 1535.77   82.08
   2 -10   4 1399.74   43.94
   2 -10   4 1546.00   38.06
   2 -10   4 1359.56   39.69
   2 -10   5  160.02   12.49
  -2  10  -5  159.68   25.53
   2 -10   5  152.86   15.03
  -2  10  -5  142.45   13.33
  -2  10  -6  464.26   21.75
  -2  10  -6  447.04   24.40
   2 -10   6  436.13   26.44
   2 -10   6  514.28   33.94
  -2  10  -6  500.47   40.80
   2 -10   6  451.24   22.15
  -2  10  -7 1144.93   40.39
   2 -10   7 1098.16   54.68
   2 -10   7 1167.38   38.46
  -2  10  -7 1175.55   37.94
   2 -10   7 1192.23   46.64
  -2  10  -7 1149.19   57.61
  -2  10  -8  408.23   31.86
   2 -10   8  410.27   24.19
  -2  10  -8  422.95   23.81
   2 -10   8  439.62   30.30
   2 -10   8  384.02   32.37
  -2  10  -8  447.78   26.25
   2 -10   9   20.91    7.32
  -2  10  -9   39.82    8.44
   2 -10   9   25.36    9.04
   2 -10   9   22.78    6.93
  -2  10  -9   21.82    6.75
   2 -10  10  413.78   33.89
  -2  10 -10  396.08   27.36
   2 -10  10  405.39   28.34
   2 -10  10  421.31   33.94
   2  -9  -9   48.47   10.30
   2  -9  -8  587.65   34.26
  -2   9   8  629.55   33.13
   2  -9  -8  616.60   39.57
   2  -9  -7  665.76   34.40
   2  -9  -7  703.94   38.56
  -2   9   7  716.18   35.51
  -2   9   6    4.09    4.46
   2  -9  -6    0.44    5.38
   2  -9  -6    6.41    4.49
   2  -9  -5  660.65   30.92
  -2   9   5  637.37   34.68
   2  -9  -5  675.51   31.17
  -2   9   5  732.38   37.60
   2  -9  -4 1402.32   38.77
   2  -9  -4 1356.61   41.60
   2  -9  -3  219.62   14.03
  -2   9   3  253.04   24.38
   2  -9  -3  220.74   15.55
  -2   9   3  260.53   15.63
  -2   9   3  282.84   24.03
  -2   9   2  316.79   17.06
  -2   9   2  304.11   30.20
  -2   9   2  339.23   26.71
   2  -9  -2  281.91   15.74
   2  -9  -2  294.67   17.28
  -2   9   1 1584.94   57.61
   2  -9  -1 1562.46   40.05
   2  -9  -1 1521.76   38.06
   2  -9   0 1058.79   31.97
   2  -9   0 1062.08   32.04
  -2   9   0 1113.41   65.16
   2  -9   1   -0.14    3.20
  -2   9  -1   -2.47    6.79
   2  -9   1    2.69    2.88
   2  -9   1   -0.36    2.16
  -2   9  -2 1146.37   27.47
   2  -9   2  989.53   30.67
   2  -9   2 1052.73   27.00
   2  -9   2 1053.23   33.69
  -2   9  -2  994.19   66.78
   2  -9   3 1496.11   38.50
  -2   9  -3 1473.98   80.75
  -2   9  -3 1617.82   34.62
   2  -9   3 1655.91   35.86
   2  -9   3 1577.31   42.79
   2  -9   4  364.19   23.99
   2  -9   4  311.11   19.44
   2  -9   4  356.32   17.02
  -2   9  -4  325.85   18.53
  -2   9  -4  337.03   16.23
  -2   9  -4  323.57   36.43
   2  -9   5   50.65   11.26
   2  -9   5   40.01    6.38
  -2   9  -5   42.14    6.44
   2  -9   5   42.97    7.92
  -2   9  -5   38.90   12.77
  -2   9  -5   36.98    6.86
   2  -9   6  905.84   30.52
   2  -9   6  887.51   36.10
  -2   9  -6  863.59   32.17
   2  -9   6  838.37   46.35
  -2   9  -6  889.52   30.29
  -2   9  -6  913.69   51.18
  -2   9  -7  756.08   30.95
  -2   9  -7  784.41   30.36
   2  -9   7  701.56   42.80
  -2   9  -7  776.37   43.42
   2  -9   7  779.19   36.26
   2  -9   7  799.24   30.83
   2  -9   8   73.81   14.02
  -2   9  -8   67.50   10.33
  -2   9  -8   73.51   12.73
  -2   9  -8   73.30   10.20
   2  -9   8   94.06   14.40
   2  -9   8   84.73   11.07
  -2   9  -9  260.04   20.58
   2  -9   9  289.70   26.04
   2  -9   9  274.79   21.42
  -2   9  -9  268.60   20.66
   2  -9   9  287.54   26.91
   2  -9  10  761.33   44.81
  -2   9 -10  757.69   37.98
   2  -9  10  808.77   40.02
  -2   9 -10  822.76   38.43
   2  -9  10  832.85   45.57
   2  -9  11  301.22   26.91
   2  -9  11  211.80   25.64
  -2   9 -11  255.80   23.37
   2  -9  11  287.52   26.12
   2  -8 -10   21.69    7.11
   2  -8  -9  393.68   32.56
   2  -8  -9  356.62   26.70
  -2   8   9  346.90   24.16
   2  -8  -8  441.73   31.81
   2  -8  -8  453.50   28.98
  -2   8   8  453.54   27.50
   2  -8  -7  175.62   18.22
  -2   8   7  210.14   18.60
   2  -8  -7  191.04   17.85
   2  -8  -6  173.30   16.07
  -2   8   6  207.73   19.07
  -2   8   6  157.68   15.69
   2  -8  -6  179.20   16.56
  -2   8   5 1673.73   55.68
  -2   8   5 1423.99   49.50
   2  -8  -5 1519.78   44.54
  -2   8   5 1619.51   40.85
   2  -8  -5 1498.56   45.32
   2  -8  -5 1517.98   41.04
  -2   8   4 1655.25   39.81
   2  -8  -4 1682.70   39.36
   2  -8  -4 1599.34   42.44
  -2   8   3   -0.30    3.97
   2  -8  -3    1.31    2.46
  -2   8   3    9.89    7.32
  -2   8   3   11.69    3.68
   2  -8  -3   -2.70    4.33
  -2   8   2 1840.88   39.87
   2  -8  -2 1736.62   37.93
   2  -8  -2 1763.47   41.27
  -2   8   2 1799.45   69.14
   2  -8  -1 2655.58   40.93
  -2   8   1 2838.14   50.86
   2  -8  -1 2776.06   51.62
  -2   8   1 2736.29   77.33
   2  -8  -1 2662.74   49.17
  -2   8   0  160.21   16.83
  -2   8   0  146.66   24.01
   2  -8   0  168.44   11.77
   2  -8   0  154.83    8.80
   2  -8   0  157.57   11.21
   2  -8   1  755.51   25.89
  -2   8  -1  779.74   56.24
   2  -8   1  720.47   24.09
   2  -8   1  767.33   20.55
   2  -8   2 2550.04   51.05
   2  -8   2 2474.45   41.28
  -2   8  -2 2461.74   40.87
   2  -8   2 2555.99   52.61
  -2   8  -3  738.47   22.56
  -2   8  -3  739.56   53.43
   2  -8   3  764.76   32.50
   2  -8   3  742.21   27.32
   2  -8   3  768.80   22.59
  -2   8  -3  730.98   25.34
   2  -8   4   38.93    9.20
   2  -8   4   37.25    6.50
  -2   8  -4   40.57    5.86
   2  -8   4   43.95    5.89
  -2   8  -4   65.83   15.27
  -2   8  -4   37.77    5.99
   2  -8   5  935.28   45.72
  -2   8  -5 1020.34   30.06
   2  -8   5 1035.61   29.86
  -2   8  -5 1010.20   31.59
  -2   8  -5 1094.37   56.90
   2  -8   5  958.46   33.93
   2  -8   6  894.18   35.12
  -2   8  -6  930.73   30.34
   2  -8   6  936.31   30.44
  -2   8  -6  957.32   48.04
  -2   8  -6  897.21   30.77
   2  -8   6  829.23   43.71
  -2   8  -7  127.11   16.17
   2  -8   7  117.38   11.66
  -2   8  -7  114.28   11.31
   2  -8   7  126.93   14.63
  -2   8  -7  119.52   11.70
   2  -8   7  123.10   17.12
  -2   8  -8  188.86   15.61
  -2   8  -8  188.45   18.82
   2  -8   8  228.00   23.13
   2  -8   8  193.81   19.39
   2  -8   8  205.40   17.03
  -2   8  -8  174.85   15.60
  -2   8  -9  660.78   31.28
  -2   8  -9  627.21   32.15
   2  -8   9  632.81   37.24
   2  -8   9  666.95   33.75
   2  -8   9  687.00   39.38
  -2   8 -10  241.46   20.80
   2  -8  10  212.50   23.74
  -2   8 -10  234.34   21.21
   2  -8  10  246.64   22.51
   2  -8  10  283.72   25.02
   2  -8  11   12.10    6.65
   2  -8  11    5.43    5.00
  -2   8 -11   20.20    7.30
   2  -8  11   22.98    8.14
  -2   8 -11   20.17    7.71
   2  -8  12  285.70   27.93
   2  -7 -11   22.22    7.31
  -2   7  10  230.20   19.36
   2  -7 -10  231.30   24.37
   2  -7 -10  255.34   22.75
   2  -7  -9  316.73   24.49
  -2   7   9  319.11   22.75
   2  -7  -9  332.72   28.89
  -2   7   8  404.93   25.15
   2  -7  -8  441.99   28.54
   2  -7  -8  403.32   29.75
  -2   7   7    1.83    3.98
   2  -7  -7    5.24    3.31
  -2   7   6  832.11   34.20
   2  -7  -6  845.65   34.45
   2  -7  -6  842.02   34.84
  -2   7   6  838.81   37.55
  -2   7   5 1526.35   52.13
   2  -7  -5 1389.23   40.44
   2  -7  -5 1423.51   42.63
  -2   7   5 1369.26   45.79
   2  -7  -5 1425.94   36.43
   2  -7  -4  266.89   13.77
  -2   7   4  226.45   19.43
   2  -7  -4  241.60   14.88
   2  -7  -3  595.28   22.29
   2  -7  -3  615.25   20.03
  -2   7   3  639.59   21.77
  -2   7   3  589.83   34.32
  -2   7   2 2290.39   42.65
   2  -7  -2 2227.31   43.70
   2  -7  -2 2239.55   40.91
  -2   7   2 2323.62   77.28
  -2   7   1 1974.91   38.73
   2  -7  -1 1929.92   37.99
   2  -7  -1 1960.28   39.75
   2  -7  -1 1943.14   31.42
  -2   7   1 1972.55   76.48
  -2   7   1 1958.35   65.31
  -2   7   0   11.06    4.93
  -2   7   0    4.53    7.02
  -2   7   0    0.11    2.35
   2  -7   0    6.93    2.29
   2  -7   0    2.51    2.18
   2  -7   0    1.51    1.32
   2  -7   0    1.13    2.05
   2  -7   1 1286.42   31.78
   2  -7   1 1211.46   29.28
   2  -7   1 1233.58   32.48
  -2   7  -1 1163.67   24.85
  -2   7  -1 1199.51   71.23
   2  -7   1 1232.43   24.75
  -2   7  -1 1189.77   36.37
  -2   7  -2 2373.34   97.79
   2  -7   2 2556.03   39.75
  -2   7  -2 2498.57   45.13
  -2   7  -2 2474.70   40.30
   2  -7   2 2567.32   48.29
   2  -7   2 2463.85   57.86
   2  -7   3  268.23   15.28
  -2   7  -3  280.31   12.91
  -2   7  -3  275.64   14.27
   2  -7   3  266.99   21.78
   2  -7   3  270.99   12.57
  -2   7  -3  266.06   29.92
   2  -7   4  711.04   26.24
  -2   7  -4  744.32   23.33
  -2   7  -4  801.78   49.56
  -2   7  -4  717.75   23.81
   2  -7   4  751.50   22.81
  -2   7  -5 2201.82   75.21
   2  -7   5 2093.61   49.94
  -2   7  -5 2141.01   44.81
  -2   7  -5 2173.14   44.26
   2  -7   5 2180.80   44.05
  -2   7  -6  461.27   30.32
   2  -7   6  433.42   20.58
   2  -7   6  437.33   24.00
  -2   7  -6  426.54   20.00
  -2   7  -6  430.03   20.21
   2  -7   6  484.13   32.95
  -2   7  -7   90.39   12.57
   2  -7   7   85.99   11.90
   2  -7   7  108.83   15.54
   2  -7   7   86.02   10.42
  -2   7  -7   87.93    9.47
  -2   7  -7   97.14   10.60
  -2   7  -8  942.80   34.32
  -2   7  -8  941.90   38.80
   2  -7   8 1092.05   48.09
   2  -7   8  945.51   42.33
  -2   7  -8  927.55   36.23
   2  -7   8  969.85   38.21
   2  -7   9  388.33   28.62
  -2   7  -9  362.95   23.13
  -2   7  -9  324.20   23.47
   2  -7   9  327.26   26.98
   2  -7   9  350.94   25.29
   2  -7  10   -1.26    5.80
  -2   7 -10    6.04    4.45
   2  -7  10    8.11    4.84
   2  -7  10   -6.62    6.91
  -2   7 -10    3.07    4.39
  -2   7 -11  422.11   29.68
   2  -7  11  320.31   28.24
  -2   7 -11  348.42   28.01
   2  -7  11  374.93   31.40
   2  -7  11  387.84   27.27
   2  -7  12  266.59   26.23
  -2   7 -12  303.21   26.98
  -2   7 -12  226.17   23.91
   2  -7  12  247.11   26.06
   2  -7  12  272.68   22.73
   2  -6 -12  193.76   19.54
  -2   6  11   10.28    5.43
   2  -6 -11   16.56    7.86
   2  -6 -11   20.74    7.38
   2  -6 -10  806.11   39.62
   2  -6 -10  772.03   42.49
  -2   6  10  748.98   34.04
   2  -6  -9  637.43   33.90
  -2   6   9  629.92   30.97
   2  -6  -9  631.57   38.50
   2  -6  -8   55.37   11.23
  -2   6   8   55.00    9.33
   2  -6  -8   45.57    8.83
   2  -6  -7  984.39   39.25
   2  -6  -7  947.02   41.26
  -2   6   7  924.78   38.12
  -2   6   6 1901.28   50.09
   2  -6  -6 1974.14   52.70
   2  -6  -6 1989.66   52.93
   2  -6  -6 1936.41   45.06
  -2   6   6 2115.91   59.14
  -2   6   5  519.53   26.20
   2  -6  -5  561.31   25.39
   2  -6  -5  559.20   20.70
   2  -6  -5  544.73   23.58
  -2   6   5  619.99   32.28
   2  -6  -4  180.79   13.48
   2  -6  -4  179.38   10.26
  -2   6   4  196.08   18.82
   2  -6  -4  167.96   11.66
  -2   6   4  181.02   16.52
  -2   6   3 1309.40   49.59
   2  -6  -3 1292.01   27.42
   2  -6  -3 1245.10   30.43
   2  -6  -2 2091.29   26.72
  -2   6   2 2101.00   69.67
   2  -6  -2 2030.77   38.23
  -2   6   2 2010.65   37.61
  -2   6   2 2111.10   64.12
   2  -6  -2 2076.90   35.99
   2  -6  -1  225.42    6.62
  -2   6   1  202.47   18.44
  -2   6   1  247.72   11.95
   2  -6  -1  261.08    8.84
   2  -6  -1  244.66   12.12
   2  -6  -1  243.79    8.99
  -2   6   1  227.55   24.95
   2  -6  -1  241.78   11.60
   2  -6   0  193.11    8.20
   2  -6   0  186.41   10.37
  -2   6   0  194.87   10.68
   2  -6   0  198.75   10.58
   2  -6   0  195.15   11.43
  -2   6   0  173.54   15.08
  -2   6   0  181.73   24.09
   2  -6   1 2584.96   41.37
   2  -6   1 2621.65   44.41
  -2   6  -1 2545.06   41.76
   2  -6   1 2492.13   56.67
   2  -6   1 2574.11   35.94
  -2   6  -1 2494.33   37.19
   2  -6   2 2046.56   39.99
  -2   6  -2 2033.81   34.88
   2  -6   2 2102.69   33.33
  -2   6  -2 2022.89   26.57
  -2   6  -2 2029.48   37.12
  -2   6  -3   12.03    2.85
  -2   6  -3   15.54    3.40
  -2   6  -3   17.25    7.54
   2  -6   3    4.38    3.51
   2  -6   3    7.18    3.39
   2  -6   3   11.60    2.85
  -2   6  -4  933.45   25.76
   2  -6   4  950.46   29.57
  -2   6  -4  984.92   26.22
  -2   6  -4 1060.46   52.03
   2  -6   4  953.13   25.50
   2  -6   4 1029.29   47.66
  -2   6  -5 1275.63   32.71
  -2   6  -5 1259.27   31.83
   2  -6   5 1277.31   37.86
  -2   6  -5 1358.49   52.92
   2  -6   5 1303.76   33.25
  -2   6  -6   75.63   11.14
   2  -6   6   77.46   10.07
  -2   6  -6   82.79    8.96
  -2   6  -6   76.10    8.20
   2  -6   6  105.24   15.78
   2  -6   6   85.65    9.54
  -2   6  -7  464.69   26.06
  -2   6  -7  467.45   21.81
   2  -6   7  478.85   24.98
   2  -6   7  454.62   26.81
  -2   6  -7  466.23   23.25
  -2   6  -8 1439.35   46.61
   2  -6   8 1426.18   49.12
   2  -6   8 1394.85   51.83
  -2   6  -8 1501.18   43.42
   2  -6   9  185.12   19.76
  -2   6  -9  176.26   17.72
  -2   6  -9  193.98   17.09
   2  -6   9  169.04   18.16
   2  -6   9  184.31   18.61
   2  -6  10  131.12   16.79
   2  -6  10  154.93   19.57
  -2   6 -10  152.47   17.81
  -2   6 -10  173.54   17.64
   2  -6  10  168.67   17.33
  -2   6 -11  558.33   36.12
  -2   6 -11  688.56   38.42
   2  -6  11  627.49   40.29
   2  -6  11  629.23   33.09
   2  -6  11  651.34   39.36
  -2   6 -12  157.26   20.11
   2  -6  12  197.68   21.50
  -2   6 -12  231.62   23.77
   2  -6  12  187.76   18.41
   2  -6  12  195.81   22.63
   2  -6  13   14.07    6.61
   2  -5 -13  522.97   29.80
  -2   5  12   26.94    7.02
   2  -5 -12   26.10    6.79
   2  -5 -12   40.61    9.49
   2  -5 -12   42.68   10.03
  -2   5  11  445.36   26.03
   2  -5 -11  497.16   29.57
   2  -5 -10 1057.65   43.24
  -2   5  10  938.49   37.20
   2  -5 -10 1048.03   47.33
   2  -5  -9  787.17   36.73
  -2   5   9  762.99   33.27
   2  -5  -9  824.63   41.76
   2  -5  -8  185.06   17.21
   2  -5  -8  195.13   19.99
  -2   5   8  189.83   16.83
   2  -5  -7 2724.04   65.91
   2  -5  -7 2643.19   70.22
  -2   5   7 2800.08   66.62
  -2   5   6 1489.09   48.60
  -2   5   6 1406.48   39.44
   2  -5  -6 1527.70   37.38
   2  -5  -6 1466.41   43.94
   2  -5  -6 1437.75   44.75
   2  -5  -5   28.09    5.05
   2  -5  -5   24.08    5.46
  -2   5   5   38.63    8.64
   2  -5  -5   30.45    4.89
  -2   5   5   23.37    5.67
   2  -5  -5   24.60    3.92
   2  -5  -4 2006.05   37.85
   2  -5  -4 2089.04   34.80
   2  -5  -4 2057.98   45.34
  -2   5   4 1963.60   53.43
   2  -5  -4 1956.57   40.18
  -2   5   3 3230.42   76.37
   2  -5  -3 3118.37   42.78
   2  -5  -3 3064.90   47.79
   2  -5  -3 3126.98   42.99
  -2   5   3 3222.77   75.44
   2  -5  -2 1689.29   28.98
   2  -5  -2 1656.31   31.04
  -2   5   2 1685.17   58.49
   2  -5  -2 1601.89   18.53
   2  -5  -2 1666.95   21.18
   2  -5  -1  492.07   15.53
   2  -5  -1  456.23    8.28
  -2   5   1  497.34   34.56
   2  -5  -1  437.77   16.00
   2  -5  -1  492.60   14.96
  -2   5   1  474.00   15.50
   2  -5  -1  486.20   11.36
   2  -5   0 2344.87   36.47
  -2   5   0 2256.97   32.61
   2  -5   0 2356.53   37.46
  -2   5   0 2351.42   37.04
   2  -5   0 2322.09   30.09
   2  -5   0 1996.70   50.73
  -2   5   0 2051.57   76.08
  -2   5   0 2304.34   48.25
  -2   5  -1 2112.63   31.48
   2  -5   1 2033.25   35.50
  -2   5  -1 1997.20   31.09
  -2   5  -1 2045.07   33.44
   2  -5   1 2018.00   28.80
  -2   5  -2   26.42    3.59
   2  -5   2   29.73    4.55
  -2   5  -2   29.16    3.89
  -2   5  -2   25.86    9.36
   2  -5   2   33.28    8.50
   2  -5   3  835.33   42.68
   2  -5   3  744.83   23.40
   2  -5   3  743.04   13.35
  -2   5  -3  724.08   20.10
   2  -5   3  755.89   19.93
  -2   5  -3  803.43   43.21
  -2   5  -3  740.62   20.70
   2  -5   4 1324.59   35.06
  -2   5  -4 1322.53   29.54
   2  -5   4 1344.66   18.47
  -2   5  -4 1388.47   31.05
   2  -5   4 1354.65   31.04
  -2   5  -5  313.91   14.75
  -2   5  -5  345.56   23.00
  -2   5  -5  315.00   15.54
   2  -5   5  333.24   16.98
  -2   5  -6   22.99    5.71
   2  -5   6   17.05    7.77
   2  -5   6   14.80    5.02
  -2   5  -6   11.23    3.62
  -2   5  -6   23.17    5.72
   2  -5   7 1124.00   41.00
  -2   5  -7 1131.62   37.34
  -2   5  -7 1153.41   38.02
  -2   5  -7 1177.55   35.26
  -2   5  -8  518.13   27.95
  -2   5  -8  548.29   26.27
   2  -5   8  572.20   32.77
   2  -5   8  481.16   29.21
   2  -5   9    4.22    5.35
  -2   5  -9    9.80    5.25
   2  -5   9    3.84    5.50
  -2   5  -9    4.31    4.30
   2  -5  10  693.77   40.16
  -2   5 -10  718.23   36.67
  -2   5 -10  606.73   35.44
   2  -5  10  671.73   33.14
  -2   5 -11  880.09   43.48
   2  -5  11  761.10   35.50
  -2   5 -11  690.55   39.76
   2  -5  11  881.11   45.45
  -2   5 -12   80.26   13.79
   2  -5  12   84.97   12.29
   2  -5  12   73.42   13.02
  -2   5 -12   60.03   11.52
   2  -5  13  168.41   17.30
   2  -4 -13   64.41   10.38
   2  -4 -13   64.34   11.04
  -2   4  13   58.51    9.83
  -2   4  12   97.20   12.22
   2  -4 -12  102.02   12.79
   2  -4 -12  118.27   14.10
   2  -4 -12   99.24   13.77
   2  -4 -11 1029.88   40.64
   2  -4 -11 1016.77   42.97
  -2   4  11  912.96   36.51
   2  -4 -10  874.09   37.38
  -2   4  10  795.76   33.80
   2  -4 -10  838.34   39.19
  -2   4   9   59.04    9.44
   2  -4  -9   69.29   10.43
   2  -4  -9   55.54   10.44
   2  -4  -8 1000.69   30.30
   2  -4  -8  939.78   37.79
   2  -4  -8  885.21   40.55
  -2   4   8  951.41   37.55
  -2   4   7 2602.65   63.84
   2  -4  -7 2401.86   59.90
  -2   4   7 2362.55   46.23
   2  -4  -7 2611.46   50.49
   2  -4  -7 2461.00   68.14
  -2   4   6 1076.32   40.27
   2  -4  -6 1047.73   28.31
   2  -4  -6 1002.56   35.79
  -2   4   6  984.24   30.35
   2  -4  -6 1113.16   30.86
   2  -4  -6  984.64   36.91
   2  -4  -5  217.44   12.79
   2  -4  -5  175.21   13.41
  -2   4   5  180.94   13.56
   2  -4  -5  159.19    9.86
   2  -4  -5  168.30   12.49
  -2   4   5  195.32   17.10
  -2   4   4 3602.78   70.81
   2  -4  -4 3499.90   55.17
   2  -4  -4 3557.01   46.02
  -2   4   4 3617.54   77.63
   2  -4  -4 3551.04   60.74
  -2   4   3 4854.78   89.39
   2  -4  -3 4350.86   49.79
   2  -4  -3 4331.73   56.80
   2  -4  -3 4711.04   56.83
   2  -4  -3 4448.97   64.11
   2  -4  -2   32.55    2.51
  -2   4   2   26.51    5.94
   2  -4  -2   32.96    3.28
   2  -4  -2   38.39    3.61
   2  -4  -2   31.48    3.71
  -2   4   2   36.64    8.21
  -2   4   1 2676.98   37.83
   2  -4  -1 2796.71   36.32
   2  -4  -1 2807.49   37.03
  -2   4   1 2841.48   78.01
  -2   4   1 2709.85   52.49
   2  -4  -1 2811.90   29.01
  -2   4   0 4567.02   53.20
  -2   4   0 4370.31   54.46
   2  -4   0 4340.40   75.57
   2  -4   0 4480.17   52.93
   2  -4   0 4457.38   51.22
  -2   4   0 4647.56   51.88
   2  -4   0 4408.92   44.31
  -2   4   0 4146.47   49.14
  -2   4   0 4893.46  108.22
  -2   4  -1  998.98   14.22
   2  -4   1 1033.00   39.33
  -2   4  -1  997.75   19.74
   2  -4   1  971.38   21.96
  -2   4  -1  926.62   44.50
   2  -4   1  975.87   17.45
  -2   4  -1  965.83   20.58
  -2   4  -1  948.27   19.49
  -2   4  -2 1957.03   32.10
   2  -4   2 1967.72   35.81
   2  -4   2 1991.53   61.00
  -2   4  -2 1957.27   31.16
  -2   4  -2 2098.20   65.54
   2  -4   2 2016.41   30.95
   2  -4   3 1764.86   32.72
   2  -4   3 1726.11   22.21
   2  -4   3 1661.38   57.72
  -2   4  -3 1775.06   32.38
  -2   4  -3 1700.68   30.53
  -2   4  -4  727.03   25.46
   2  -4   4  709.18   13.46
  -2   4  -4  717.27   20.23
  -2   4  -4  793.51   33.17
  -2   4  -4  709.24   21.55
   2  -4   4  685.80   22.97
   2  -4   4  701.84   38.14
   2  -4   5  119.68   11.04
  -2   4  -5  116.62    9.60
   2  -4   5  130.66    6.43
  -2   4  -5  125.43   11.00
  -2   4  -5  115.73   11.58
   2  -4   5  137.87   16.27
  -2   4  -5  113.08    8.57
  -2   4  -6 1067.51   33.45
  -2   4  -6 1160.01   35.12
  -2   4  -6 1111.17   34.40
   2  -4   6 1272.81   26.61
   2  -4   6 1241.80   47.93
   2  -4   6 1117.03   39.17
  -2   4  -6 1140.44   31.90
   2  -4   7 1236.24   46.39
  -2   4  -7 1175.85   34.85
  -2   4  -7 1215.19   34.09
   2  -4   7 1078.00   42.20
  -2   4  -7 1187.57   39.73
  -2   4  -7 1244.70   37.32
   2  -4   8   23.67    7.68
  -2   4  -8   17.45    6.08
  -2   4  -8   14.30    4.61
   2  -4   9  466.43   27.91
  -2   4  -9  516.88   28.97
   2  -4   9  520.44   32.40
  -2   4  -9  449.22   29.06
   2  -4  10  795.46   40.46
  -2   4 -10  723.23   37.36
  -2   4 -10  643.24   36.98
   2  -4  10  747.26   34.28
  -2   4 -11  226.16   22.16
  -2   4 -11  153.10   18.19
   2  -4  11  214.50   18.31
   2  -4  11  190.43   19.82
  -2   4 -12   33.29    7.96
   2  -4  12   36.56    8.76
  -2   4 -12   52.92    9.53
   2  -4  12   49.88    9.85
   2  -4  13  810.91   40.26
  -2   4 -13  759.85   38.03
   2  -4  13  780.13   35.98
   2  -3 -14  373.84   23.44
  -2   3  13   41.04    8.29
   2  -3 -13   42.96    8.21
   2  -3 -13   44.43    8.47
  -2   3  12  643.88   30.27
   2  -3 -12  703.53   32.71
   2  -3 -12  693.02   31.30
  -2   3  11  798.81   33.45
  -2   3  11  813.72   30.57
   2  -3 -11  804.45   33.89
   2  -3 -11  844.95   35.64
   2  -3 -11  836.06   36.36
  -2   3  10  217.22   15.68
   2  -3 -10  211.98   17.43
  -2   3  10  233.99   17.84
   2  -3 -10  236.71   19.49
   2  -3  -9  293.32   20.36
   2  -3  -9  316.14   16.81
  -2   3   9  297.68   20.53
   2  -3  -9  314.48   22.14
  -2   3   8 2688.41   64.38
   2  -3  -8 2690.20   52.97
   2  -3  -8 2473.11   60.85
   2  -3  -8 2438.07   64.47
   2  -3  -7 1150.47   39.32
  -2   3   7 1154.50   27.89
   2  -3  -7 1182.22   43.44
  -2   3   7 1188.91   27.73
  -2   3   6  211.57   17.28
   2  -3  -6  198.65   16.70
   2  -3  -6  194.22   15.28
  -2   3   6  210.22    9.63
  -2   3   6  195.11   11.76
   2  -3  -6  240.60   15.00
  -2   3   5 1247.10   20.65
   2  -3  -5 1264.48   37.50
   2  -3  -5 1192.45   26.06
  -2   3   5 1258.91   33.96
  -2   3   5 1293.02   43.54
   2  -3  -5 1198.04   35.96
   2  -3  -4 2494.73   44.51
   2  -3  -4 2544.54   49.55
   2  -3  -4 2538.93   34.62
   2  -3  -4 2619.37   45.57
   2  -3  -3 1615.42   27.25
   2  -3  -3 1800.08   36.63
  -2   3   3 1621.25   44.53
   2  -3  -3 1833.82   24.13
   2  -3  -3 1890.13   31.46
  -2   3   3 2026.55   51.83
   2  -3  -2  647.71   12.89
   2  -3  -2  621.67   14.72
  -2   3   2  659.71   24.09
  -2   3   1 3175.75   45.05
  -2   3   1 3145.48   75.85
   2  -3  -1 3272.08   38.29
   2  -3  -1 3209.67   37.64
  -2   3   0 2981.26   32.95
   2  -3   0 3022.67   37.77
   2  -3   0 3002.01   30.33
  -2   3   0 2943.78   35.06
  -2   3   0 2928.05   35.72
  -2   3  -1   37.94    4.81
  -2   3  -1   31.45    3.34
   2  -3   1   38.72    5.47
  -2   3  -1   31.93    3.32
  -2   3  -1   29.08    1.53
   2  -3   1   47.27    3.49
  -2   3  -1   40.44    3.36
  -2   3  -1   44.38    9.06
  -2   3  -2 3003.91   47.75
  -2   3  -2 3156.36   70.47
   2  -3   2 3106.25   60.93
  -2   3  -2 3063.83   40.73
  -2   3  -2 2978.34   38.14
  -2   3  -2 3123.13   47.28
   2  -3   2 3004.12   41.86
  -2   3  -3 2765.52   46.08
  -2   3  -3 2808.64   61.49
  -2   3  -3 2846.64   55.55
   2  -3   3 2638.00   30.64
  -2   3  -3 2567.29   40.13
   2  -3   3 2762.31   63.95
  -2   3  -3 2617.62   38.15
   2  -3   3 2657.92   46.77
   2  -3   4   13.15    4.26
   2  -3   4   12.68    2.17
  -2   3  -4   20.51    5.56
  -2   3  -4   14.81    3.71
  -2   3  -4    8.20    3.04
   2  -3   4   15.16    4.39
  -2   3  -4   16.59    3.58
   2  -3   4   16.37    2.22
  -2   3  -4   10.87    2.83
   2  -3   5 1316.87   27.72
  -2   3  -5 1278.76   33.10
  -2   3  -5 1344.88   32.21
   2  -3   5 1387.99   25.88
   2  -3   5 1227.04   40.31
  -2   3  -5 1339.85   33.93
  -2   3  -5 1294.26   34.93
   2  -3   6 3092.53   49.71
  -2   3  -6 3052.92   57.71
  -2   3  -6 3189.90   74.65
  -2   3  -6 2991.44   51.72
   2  -3   6 3219.21   50.25
   2  -3   6 2752.54   70.63
   2  -3   6 2808.51   69.17
  -2   3  -6 2938.63   59.52
  -2   3  -6 2700.63   53.18
   2  -3   7  177.54   11.54
   2  -3   7  178.73   17.92
  -2   3  -7  155.38   11.77
  -2   3  -7  147.05   14.10
   2  -3   7  159.08   11.85
   2  -3   7  158.29   16.23
   2  -3   8  790.69   37.51
  -2   3  -8  753.41   33.52
  -2   3  -8  686.75   33.46
   2  -3   8  699.69   33.41
   2  -3   9 1275.29   48.24
  -2   3  -9 1227.38   46.51
   2  -3   9 1167.58   42.90
   2  -3  10  634.68   31.36
  -2   3 -10  633.21   35.50
  -2   3 -10  542.90   32.04
   2  -3  10  641.05   34.15
  -2   3 -11   60.96   11.15
   2  -3  11   79.25   11.35
   2  -3  11   47.69    9.03
  -2   3 -11   28.11    7.62
   2  -3  12  588.36   30.07
  -2   3 -12  568.12   31.81
  -2   3 -12  613.34   36.94
   2  -3  12  606.61   32.59
   2  -3  13  591.66   32.67
  -2   3 -13  533.47   30.37
  -2   3 -13  611.23   36.68
   2  -3  13  616.63   31.37
   2  -2 -14   40.57    8.32
  -2   2  14   27.90    6.21
   2  -2 -14   39.89    7.66
   2  -2 -14   24.18    7.50
  -2   2  13  343.11   22.10
   2  -2 -13  366.56   22.36
  -2   2  13  326.89   20.58
   2  -2 -13  332.91   22.16
  -2   2  12 1464.26   43.52
  -2   2  12 1432.59   45.61
   2  -2 -12 1501.87   44.78
   2  -2 -12 1455.84   45.83
   2  -2 -11  930.74   34.70
  -2   2  11  964.17   34.39
   2  -2 -11  937.83   35.69
  -2   2  11  937.20   36.37
  -2   2  10   51.30    8.90
   2  -2 -10   61.29    8.97
  -2   2  10   51.14    8.12
   2  -2 -10   56.57    9.29
   2  -2 -10   64.97    9.42
   2  -2  -9 2115.94   53.54
   2  -2  -9 2195.77   44.39
   2  -2  -9 2136.53   54.64
   2  -2  -9 2106.96   55.36
  -2   2   9 2325.31   53.51
  -2   2   9 2235.65   57.53
  -2   2   9 2061.26   47.39
   2  -2  -8 1999.53   52.04
   2  -2  -8 2185.48   45.12
  -2   2   8 2282.12   58.19
   2  -2  -8 2075.36   54.70
  -2   2   8 1909.20   44.49
   2  -2  -7  169.47   14.33
   2  -2  -7  190.86   15.86
   2  -2  -7  172.97   12.41
  -2   2   7  185.38   16.28
  -2   2   7  171.96   11.68
   2  -2  -6  868.12   32.77
  -2   2   6  849.88   22.37
  -2   2   6  847.43   34.45
   2  -2  -6  878.96   33.90
  -2   2   6  963.51   25.26
  -2   2   5 3484.08   45.94
   2  -2  -5 3585.65   67.42
  -2   2   5 3792.92   56.63
   2  -2  -5 3565.01   70.43
  -2   2   5 3292.14   54.03
   2  -2  -4 1859.78   26.72
  -2   2   4 1880.01   26.53
   2  -2  -4 2035.34   46.82
   2  -2  -4 1832.44   40.18
  -2   2   4 1827.27   47.16
  -2   2   4 2005.11   44.03
  -2   2   4 2165.04   43.44
   2  -2  -3   10.72    3.27
  -2   2   3   15.82    3.92
  -2   2   3    9.55    3.71
   2  -2  -3    8.64    1.89
  -2   2   3   11.89    3.87
   2  -2  -3    9.63    1.13
   2  -2  -2  830.94   21.51
  -2   2   2  848.96   20.34
  -2   2   2  806.69   30.43
  -2   2   2  849.10   32.29
   2  -2  -2  850.46   15.75
   2  -2  -2  847.67   12.22
   2  -2  -1 1072.27   15.54
  -2   2   1  923.87   34.98
  -2   2   1  973.71   36.55
   2  -2  -1 1074.84   16.12
  -2   2   1 1050.84   21.53
  -2   2   1 1028.10   17.51
  -2   2   0  508.88    8.95
  -2   2   0  465.88   16.79
   2  -2   0  512.32    9.86
  -2   2   0  467.46   11.06
  -2   2   0  437.96   23.77
  -2   2   0  501.17   25.85
  -2   2   0  495.43    9.49
  -2   2   0  486.86   11.33
  -2   2   0  482.57   14.08
  -2   2  -1 2714.28   33.19
  -2   2  -1 2846.57   32.11
  -2   2  -1 2701.57   59.63
  -2   2  -1 2693.92   60.74
  -2   2  -1 2665.16   54.76
  -2   2  -1 2864.57   35.44
  -2   2  -1 2853.21   40.48
   2  -2   2 1601.91   34.45
  -2   2  -2 1568.73   41.73
  -2   2  -2 1613.05   41.46
   2  -2   2 1586.44   21.24
  -2   2  -2 1631.92   47.29
  -2   2  -2 1547.57   26.18
  -2   2  -2 1571.00   24.54
  -2   2  -2 1613.41   30.00
  -2   2  -3 1057.64   30.89
  -2   2  -3 1133.62   42.14
   2  -2   3 1105.33   18.57
  -2   2  -3  999.90   22.73
   2  -2   3 1079.37   32.28
  -2   2  -3 1074.98   22.89
  -2   2  -3 1103.11   25.90
   2  -2   4  153.11   13.35
  -2   2  -4  166.19   10.27
   2  -2   4  145.41    4.17
  -2   2  -4  182.88   11.45
   2  -2   4  171.85    7.96
  -2   2  -4  179.57   16.58
  -2   2  -4  165.42   10.35
   2  -2   4  140.22    9.79
  -2   2  -4  160.96   10.20
  -2   2  -5 2623.03   44.35
   2  -2   5 2673.68   42.77
   2  -2   5 2977.15   52.55
  -2   2  -5 2745.81   66.42
  -2   2  -5 2508.95   46.49
   2  -2   5 2265.86   59.82
  -2   2  -5 2595.61   50.93
  -2   2  -5 2565.97   50.21
  -2   2  -6 2084.76   56.95
   2  -2   6 2285.13   45.27
  -2   2  -6 1977.92   49.27
  -2   2  -6 2083.38   35.44
   2  -2   6 2053.18   42.83
  -2   2  -6 2026.26   49.78
  -2   2  -6 2159.01   35.90
  -2   2  -6 1897.96   41.44
  -2   2  -7  116.16    8.69
   2  -2   7  103.01   12.84
   2  -2   7   94.59    9.85
  -2   2  -7  105.45   12.31
  -2   2  -7  110.75   12.67
   2  -2   7  128.49   10.45
  -2   2  -7  102.44   11.88
  -2   2  -7  104.41    9.42
  -2   2  -8 1500.14   35.46
   2  -2   8 1749.09   54.13
  -2   2  -8 1441.46   50.21
  -2   2  -8 1516.39   49.86
  -2   2  -8 1399.85   44.99
   2  -2   8 1327.43   39.97
   2  -2   8 1434.65   47.13
   2  -2   8 1651.31   39.05
  -2   2  -9 1382.60   44.15
   2  -2   9 1307.07   38.38
  -2   2  -9 1470.43   51.92
   2  -2   9 1317.47   44.57
  -2   2  -9 1234.77   47.23
   2  -2   9 1495.73   49.70
  -2   2 -10   77.16   11.22
   2  -2  10  101.08   12.94
   2  -2  10   91.60   12.63
  -2   2 -10  114.41   15.03
  -2   2 -11  339.38   23.39
   2  -2  11  342.72   23.56
  -2   2 -11  361.25   26.37
   2  -2  11  351.35   22.57
  -2   2 -12 1185.71   47.96
  -2   2 -12 1061.17   41.62
   2  -2  12 1121.16   40.69
   2  -2  12 1141.54   43.48
  -2   2 -13  191.25   17.51
  -2   2 -13  230.98   21.19
   2  -2  13  202.96   17.93
   2  -2  13  204.67   18.94
  -2   1  14   55.16    9.36
   2  -1 -14   62.88    9.93
   2  -1 -14   33.03    8.13
   2  -1 -14   51.44    8.63
  -2   1  14   46.12    8.34
   2  -1 -13  689.02   31.95
   2  -1 -13  707.52   30.43
  -2   1  13  630.05   29.82
  -2   1  13  703.08   31.83
  -2   1  12 1240.37   42.66
   2  -1 -12 1240.60   40.25
  -2   1  12 1252.77   41.67
   2  -1 -12 1211.43   41.52
   2  -1 -11  104.27   11.46
   2  -1 -11   94.70   11.67
  -2   1  11  105.40   10.67
  -2   1  11  107.75   12.50
  -2   1  11  113.19   12.58
   2  -1 -10  733.73   31.02
   2  -1 -10  754.51   30.69
  -2   1  10  841.84   34.95
  -2   1  10  839.22   33.35
  -2   1  10  801.04   30.30
  -2   1   9 3357.22   72.84
   2  -1  -9 3285.48   67.07
  -2   1   9 3416.89   69.72
   2  -1  -9 3358.61   55.24
   2  -1  -9 3242.38   67.98
  -2   1   8 1129.82   40.53
   2  -1  -8 1131.01   37.72
   2  -1  -8 1147.57   31.05
   2  -1  -8 1091.16   38.05
   2  -1  -8 1147.86   37.97
  -2   1   8 1185.40   38.72
   2  -1  -7  243.00   17.13
   2  -1  -7  232.21   17.32
   2  -1  -7  235.50   17.16
   2  -1  -7  253.66   14.84
  -2   1   7  234.96   10.01
  -2   1   7  224.70   16.11
  -2   1   7  217.19   16.99
  -2   1   7  220.53   14.69
   2  -1  -6 3580.47   70.61
  -2   1   6 2946.29   66.13
   2  -1  -6 3946.47   74.49
  -2   1   6 2971.22   59.96
   2  -1  -6 3804.97   64.62
  -2   1   6 3623.60   50.42
  -2   1   6 3491.49   58.97
   2  -1  -5 2867.06   63.48
  -2   1   5 2884.84   58.73
   2  -1  -5 3218.35   61.16
  -2   1   5 2807.66   51.33
  -2   1   5 3116.52   48.85
   2  -1  -5 2766.19   60.35
  -2   1   5 3032.80   46.84
  -2   1   4   57.89    6.83
   2  -1  -4   78.85    9.67
  -2   1   4   62.80    6.78
  -2   1   4   58.95    6.73
  -2   1   4   57.77    4.64
   2  -1  -4   57.71    7.78
  -2   1   4   60.39    5.26
   2  -1  -4   56.10    7.68
  -2   1   3 4545.40   48.81
   2  -1  -3 4751.52   78.93
   2  -1  -3 4275.57   71.98
  -2   1   3 4198.49   68.40
  -2   1   3 4751.25   70.99
   2  -1  -3 4583.62   67.08
  -2   1   3 4231.40   54.29
  -2   1   3 4334.25   43.31
  -2   1   3 4212.62   46.06
  -2   1   2 3689.76   41.16
  -2   1   2 3405.26   62.81
   2  -1  -2 4015.37   65.82
   2  -1  -2 3010.86   56.53
  -2   1   2 3239.34   60.42
   2  -1  -2 3567.95   39.11
  -2   1   2 3557.03   30.67
  -2   1   2 3453.34   40.64
   2  -1  -1  106.16    7.93
  -2   1   1   91.31    5.04
   2  -1  -1   89.00    2.75
   2  -1  -1   85.86    7.54
  -2   1   1   67.37    8.40
  -2   1   1   81.97    8.98
  -2   1   1   87.45    4.07
  -2   1   1   90.22    3.08
  -2   1   0  772.30   11.71
  -2   1   0  789.14   13.01
   2  -1   0  807.26   20.26
   2  -1   0  877.59   15.31
  -2   1   0  824.63   11.04
  -2   1   0  748.84   26.47
  -2   1   0  818.46   14.35
  -2   1   0  808.68   30.30
  -2   1   0  834.34   14.41
  -2   1   0  772.15   16.68
   2  -1   1 1412.82   22.49
  -2   1  -1 1358.15   19.96
  -2   1  -1 1436.89   38.25
   2  -1   1 1392.10   19.50
  -2   1  -1 1397.87   27.81
  -2   1  -1 1416.18   21.48
  -2   1  -1 1425.64   35.14
  -2   1  -1 1388.92   25.31
  -2   1  -2  395.07   16.60
  -2   1  -2  362.60   11.12
  -2   1  -2  386.04   17.21
   2  -1   2  384.21   10.15
   2  -1   2  374.59    7.89
  -2   1  -2  381.27   18.34
  -2   1  -2  399.06   14.09
  -2   1  -2  365.30   12.24
  -2   1  -3  238.81   16.58
   2  -1   3  282.35   14.22
  -2   1  -3  265.84   12.59
  -2   1  -3  262.54   12.87
  -2   1  -3  289.98    6.95
   2  -1   3  284.54    9.96
  -2   1  -3  272.91   12.78
  -2   1  -3  271.65   11.08
  -2   1  -4 2494.72   49.86
  -2   1  -4 2709.15   45.97
  -2   1  -4 2582.76   32.61
  -2   1  -4 2648.03   46.12
   2  -1   4 2751.18   41.43
  -2   1  -4 2451.40   41.24
   2  -1   4 2505.72   52.10
  -2   1  -4 2405.94   58.61
  -2   1  -5 2385.06   35.74
  -2   1  -5 2386.61   46.24
  -2   1  -5 2337.73   58.99
  -2   1  -5 2245.18   52.44
   2  -1   5 2547.74   46.22
   2  -1   5 2305.15   55.41
  -2   1  -5 2574.99   51.44
   2  -1   6   57.23    8.89
  -2   1  -6   67.60    9.85
  -2   1  -6   68.56    9.53
  -2   1  -6   75.47    6.47
  -2   1  -6   76.93    8.21
   2  -1   6   73.76    8.57
  -2   1  -6   78.97   10.33
   2  -1   6   94.55    9.79
  -2   1  -7  774.42   34.15
  -2   1  -7  742.43   31.77
   2  -1   7  599.96   29.76
  -2   1  -7  701.23   22.39
   2  -1   7  694.95   29.17
   2  -1   7  825.80   29.23
  -2   1  -7  665.01   32.33
  -2   1  -7  781.46   27.68
   2  -1   8 1031.74   38.41
  -2   1  -8 1100.03   38.66
   2  -1   8  985.87   36.05
  -2   1  -8 1185.82   44.91
  -2   1  -8 1123.33   30.90
  -2   1  -8  940.95   40.52
   2  -1   8 1146.74   33.99
  -2   1  -9  929.17   35.55
   2  -1   9 1029.81   32.34
  -2   1  -9  992.93   40.99
   2  -1   9  921.98   33.68
   2  -1   9  993.72   37.32
   2  -1  10   23.26    6.63
   2  -1  10   34.13    6.53
  -2   1 -10   19.19    5.64
   2  -1  10   30.53    6.96
  -2   1 -10   33.74    7.57
  -2   1 -10   25.65    5.96
   2  -1  10   29.06    7.52
  -2   1 -11  750.88   32.03
  -2   1 -11  747.34   33.52
  -2   1 -11  853.04   38.26
   2  -1  11  815.47   35.51
   2  -1  11  838.12   34.34
   2  -1  12  901.88   35.42
  -2   1 -12  888.46   39.39
   2  -1  12  881.72   37.66
  -2   1 -13   54.21    9.11
   2  -1  13   72.87   10.68
  -2   1 -13   64.95   11.22
   2  -1  13   64.94   10.74
  -2   0  15   -0.27    4.50
  -2   0  15   -8.62    5.57
   2   0 -14  283.09   19.53
   2   0 -14  269.39   20.84
   2   0 -14  238.71   19.86
  -2   0  14  304.31   21.14
  -2   0  14  264.66   20.24
   2   0 -13  871.07   34.24
  -2   0  13  922.49   37.36
  -2   0  13  898.63   37.42
   2   0 -13  893.98   37.65
  -2   0  13  860.29   32.03
   2   0 -12  399.93   22.81
   2   0 -12  409.82   24.76
  -2   0  12  382.90   24.03
  -2   0  12  430.64   25.50
  -2   0  12  397.77   21.77
  -2   0  11   64.91    9.85
  -2   0  11   52.55    8.07
   2   0 -11   67.71    9.21
  -2   0  11   65.60    9.86
   2   0 -11   61.70    9.48
   2   0 -10 1171.18   39.38
  -2   0  10 1218.37   43.12
  -2   0  10 1235.74   43.64
   2   0 -10 1176.00   42.03
  -2   0  10 1200.76   39.53
   2   0  -9 1184.98   39.72
  -2   0   9 1141.15   41.36
  -2   0   9 1073.61   37.76
   2   0  -9 1280.48   43.43
   2   0  -9 1236.30   31.46
  -2   0   9 1116.07   40.58
  -2   0   8   61.07    8.77
  -2   0   8   55.50    8.35
  -2   0   8   62.78    9.09
   2   0  -8   65.10    9.29
   2   0  -8   81.25   10.67
  -2   0   8   82.72    5.73
   2   0  -8   70.77    7.63
  -2   0   7  950.77   35.31
   2   0  -7 1073.77   39.14
  -2   0   7 1036.61   23.38
   2   0  -7 1124.40   32.53
  -2   0   7  962.64   34.10
   2   0  -7  914.29   34.08
  -2   0   7  881.15   32.46
   2   0  -6 3750.53   63.76
   2   0  -6 3719.46   74.09
  -2   0   6 3845.75   53.42
  -2   0   6 3728.57   65.70
  -2   0   6 3836.53   66.66
  -2   0   6 3817.44   62.62
  -2   0   5  586.43   20.70
  -2   0   5  530.78   19.24
  -2   0   5  568.34   19.43
   2   0  -5  521.87   20.90
   2   0  -5  461.71   19.58
  -2   0   5  530.20   17.32
   2   0  -5  524.90   24.49
  -2   0   4  589.08   16.91
  -2   0   4  569.68    9.05
  -2   0   4  581.41   14.15
   2   0  -4  583.23   23.59
   2   0  -4  569.08   20.39
   2   0  -4  567.54   18.05
  -2   0   4  594.12   16.86
  -2   0   4  598.55   11.74
  -2   0   3 4307.61   43.28
  -2   0   3 4082.09   48.13
   2   0  -3 4130.80   58.95
  -2   0   3 4027.44   47.98
   2   0  -3 4045.57   62.86
  -2   0   3 4239.43   43.52
  -2   0   2 1540.84   18.73
  -2   0   2 1674.17   23.35
  -2   0   2 1486.31   21.92
   2   0  -2 1589.51   29.55
  -2   0   2 1533.70   39.33
   2   0  -2 1555.29   15.90
   2   0  -2 1537.83   28.84
  -2   0   2 1565.89   22.62
  -2   0   2 1634.03   22.05
  -2   0   1  156.19    5.40
   2   0  -1  179.09    6.43
  -2   0   1  165.36   12.59
  -2   0   1  164.45    6.72
   2   0  -1  160.18    7.37
  -2   0   1  152.05    4.76
  -2   0   0 6125.27   57.55
   2   0   0 5806.98   56.10
  -2   0   0 6292.62   87.22
   2   0   0 5947.17   58.39
  -2   0   0 5956.65   55.84
  -2   0   0 5844.74   64.98
   2   0   0 6059.02   49.29
  -2   0   0 5994.56   58.65
  -2   0  -1 3781.22   45.73
   2   0   1 3780.38   41.95
  -2   0  -1 4084.36   64.04
  -2   0  -1 3880.17   41.02
  -2   0  -1 3636.87   52.45
   2   0   1 3836.46   38.57
  -2   0  -1 3982.70   52.70
  -2   0  -2   48.61    3.80
  -2   0  -2   52.57    5.30
  -2   0  -2   47.56    2.72
   2   0   2   51.23    4.24
   2   0   2   49.43    2.57
  -2   0  -2   58.09    6.01
  -2   0  -2   50.65    6.34
  -2   0  -3 3283.74   57.93
  -2   0  -3 3256.22   40.38
  -2   0  -3 3480.64   56.90
   2   0   3 3473.65   47.42
  -2   0  -3 3317.73   47.59
  -2   0  -3 3301.22   45.24
  -2   0  -3 3426.10   62.90
  -2   0  -3 3565.25   67.50
  -2   0  -4 2834.41   41.82
  -2   0  -4 3249.09   51.67
   2   0   4 3009.55   49.83
  -2   0  -4 2674.94   39.19
   2   0   4 3026.69   53.32
  -2   0  -4 2824.68   61.77
  -2   0  -4 2977.89   55.36
  -2   0  -4 3189.73   67.45
  -2   0  -5  283.63   19.74
  -2   0  -5  274.06   16.48
  -2   0  -5  251.78   12.26
  -2   0  -5  203.03    8.29
  -2   0  -5  208.63   16.54
   2   0   5  261.56   16.72
   2   0   5  253.45   15.47
  -2   0  -5  259.99   15.96
  -2   0  -6  832.04   32.99
   2   0   6  722.63   30.79
  -2   0  -6  720.45   31.79
  -2   0  -6  863.83   34.80
  -2   0  -6  834.43   24.77
  -2   0  -6  833.85   30.42
   2   0   6  785.34   30.84
   2   0   6  722.95   30.01
  -2   0  -7 1873.50   44.61
   2   0   7 1455.08   46.39
  -2   0  -7 1867.89   40.21
  -2   0  -7 1623.27   48.77
  -2   0  -7 1645.97   51.81
   2   0   7 1509.88   47.12
  -2   0  -7 1801.01   51.10
   2   0   7 1651.96   46.68
   2   0   8 1152.41   40.39
   2   0   8 1070.55   38.84
  -2   0  -8 1156.50   40.31
  -2   0  -8  951.92   39.00
  -2   0  -8 1344.42   43.82
   2   0   8 1292.44   40.38
  -2   0  -9   88.30   11.21
  -2   0  -9   95.11   11.74
  -2   0  -9   97.83   11.64
   2   0   9   97.03   11.56
   2   0   9   88.75   11.34
   2   0   9  101.82   11.05
  -2   0 -10  359.72   22.39
   2   0  10  416.61   21.93
   2   0  10  389.95   22.74
  -2   0 -10  399.86   24.22
   2   0  10  419.13   23.66
  -2   0 -10  385.77   22.97
   2   0  11  981.27   35.33
  -2   0 -11  963.56   36.81
  -2   0 -11 1004.71   39.90
  -2   0 -11  928.15   35.36
   2   0  11 1014.88   34.94
   2   0  11 1003.20   36.56
  -2   0 -12  218.65   16.90
  -2   0 -12  239.09   19.66
   2   0  12  234.31   19.68
  -2   0 -13   33.78    6.46
  -2  -1  15  133.02   15.26
   2   1 -15  139.72   14.43
   2   1 -15  137.83   15.69
  -2  -1  14  802.00   35.81
   2   1 -14  760.23   32.94
   2   1 -14  669.13   32.32
   2   1 -14  768.47   36.98
  -2  -1  14  775.35   36.36
  -2  -1  14  658.13   29.14
  -2  -1  13  765.89   34.87
   2   1 -13  658.17   30.98
   2   1 -13  718.75   31.98
   2   1 -13  694.43   35.21
  -2  -1  13  744.02   35.66
  -2  -1  13  677.68   29.65
   2   1 -12   -7.47    6.86
   2   1 -12    1.53    2.93
  -2  -1  12    1.59    4.92
  -2  -1  12   -0.70    4.19
  -2  -1  12    0.61    6.12
  -2  -1  11  607.14   32.46
   2   1 -11  599.92   29.61
   2   1 -11  613.11   33.12
  -2  -1  11  626.13   31.55
  -2  -1  11  613.32   29.39
   2   1 -10  917.13   37.32
  -2  -1  10  896.81   38.88
  -2  -1  10  879.04   37.27
   2   1 -10  940.18   39.63
  -2  -1  10  890.80   36.13
   2   1  -9  246.24   14.18
   2   1  -9  230.12   18.23
  -2  -1   9  220.22   18.72
  -2  -1   9  222.74   17.96
  -2  -1   9  226.78   18.23
   2   1  -9  260.70   19.43
  -2  -1   8  335.52   14.22
   2   1  -8  310.36   16.46
   2   1  -8  291.37   19.61
  -2  -1   8  292.66   19.79
   2   1  -8  283.76   18.71
  -2  -1   8  300.63   19.29
  -2  -1   7  853.84   28.39
   2   1  -7  729.66   29.63
   2   1  -7  722.03   25.01
  -2  -1   7  797.40   28.29
  -2  -1   7  683.34   25.39
   2   1  -7  774.41   27.89
  -2  -1   7  745.87   31.88
  -2  -1   6  591.77   20.25
  -2  -1   6  572.43   15.86
   2   1  -6  499.98   19.70
  -2  -1   6  573.71   19.98
   2   1  -6  538.86   23.28
  -2  -1   6  596.36   26.28
   2   1  -6  575.71   20.58
   2   1  -5  121.90    9.06
  -2  -1   5  126.57    7.83
   2   1  -5  136.86    8.04
   2   1  -5  126.64    9.95
  -2  -1   5  132.12    7.95
  -2  -1   5  124.73    5.90
  -2  -1   5  129.78   10.40
  -2  -1   4 1944.25   30.11
  -2  -1   4 2132.49   22.60
   2   1  -4 1953.47   27.76
   2   1  -4 1912.92   35.61
  -2  -1   4 1878.73   24.79
  -2  -1   4 2028.55   35.13
   2   1  -4 2033.84   37.03
  -2  -1   4 1940.45   29.27
  -2  -1   3 2718.40   34.20
   2   1  -3 2681.08   37.85
   2   1  -3 2787.91   29.79
   2   1  -3 2808.73   40.78
  -2  -1   3 2706.24   30.87
  -2  -1   3 2650.97   37.01
  -2  -1   3 2829.84   31.86
  -2  -1   3 2709.69   33.07
  -2  -1   2  220.47    7.23
  -2  -1   2  222.25    8.14
   2   1  -2  212.50    6.21
   2   1  -2  231.33    9.21
   2   1  -2  219.91    7.50
  -2  -1   2  213.97    6.83
  -2  -1   2  224.05    7.11
  -2  -1   2  225.98    9.23
   2   1  -2  205.94    4.81
  -2  -1   1 1390.90   15.73
   2   1  -1 1381.06   22.58
  -2  -1   1 1336.23   19.47
   2   1  -1 1383.57   19.36
   2   1  -1 1367.65   17.96
  -2  -1   1 1346.77   24.15
  -2  -1   0 4192.13   58.66
   2   1   0 4173.81   45.62
   2   1   0 4253.33   45.89
  -2  -1   0 4255.17   45.77
  -2  -1  -1 1117.37   26.29
  -2  -1  -1 1137.20   21.62
   2   1   1 1136.48   21.53
  -2  -1  -1 1143.78   30.92
  -2  -1  -1 1188.74   16.96
   2   1   1 1202.68   18.60
  -2  -1  -2  567.01   12.86
  -2  -1  -2  590.32   17.45
  -2  -1  -2  592.46   11.93
  -2  -1  -2  618.38   25.70
   2   1   2  586.01   17.07
   2   1   2  626.00   12.68
  -2  -1  -3 5181.04   71.20
  -2  -1  -3 5253.33   61.43
   2   1   3 5110.56   69.72
  -2  -1  -3 5195.55   86.28
  -2  -1  -4 2197.87   39.11
  -2  -1  -4 2059.05   32.31
  -2  -1  -4 2236.25   49.05
   2   1   4 2243.38   48.08
  -2  -1  -4 2184.16   54.76
   2   1   4 2324.15   43.29
  -2  -1  -4 2366.33   43.90
  -2  -1  -5    7.62    4.51
   2   1   5    7.69    3.04
  -2  -1  -5    7.62    2.53
  -2  -1  -5    7.92    1.62
   2   1   5    8.55    2.84
  -2  -1  -5   18.94    4.55
  -2  -1  -5   14.52    3.36
  -2  -1  -5   13.34    5.24
  -2  -1  -6 1998.36   40.02
  -2  -1  -6 1732.27   51.29
  -2  -1  -6 1955.45   53.96
   2   1   6 1631.08   49.73
   2   1   6 1764.26   47.79
  -2  -1  -6 1995.65   53.10
  -2  -1  -6 2049.34   51.66
  -2  -1  -6 1923.87   51.69
  -2  -1  -7 2081.65   57.57
  -2  -1  -7 2377.96   58.37
  -2  -1  -7 2495.48   45.79
   2   1   7 1988.12   56.98
   2   1   7 1951.09   52.89
   2   1   7 2136.45   58.46
  -2  -1  -7 1891.89   54.90
  -2  -1  -7 2287.03   52.46
  -2  -1  -7 2290.88   56.76
  -2  -1  -8  468.45   25.35
  -2  -1  -8  446.66   21.65
  -2  -1  -8  387.40   22.32
   2   1   8  419.99   25.00
   2   1   8  407.77   24.59
   2   1   8  425.63   23.59
  -2  -1  -8  439.49   25.61
  -2  -1  -9  477.74   25.85
  -2  -1  -9  494.09   26.92
   2   1   9  476.31   24.60
  -2  -1  -9  427.94   23.14
   2   1   9  468.62   25.89
   2   1   9  522.73   27.06
  -2  -1 -10 1256.76   43.54
   2   1  10 1350.54   41.63
  -2  -1 -10 1177.41   38.98
   2   1  10 1351.52   44.05
  -2  -1 -10 1288.00   43.87
   2   1  10 1354.98   43.23
   2   1  11  447.78   24.77
   2   1  11  475.12   25.54
  -2  -1 -11  437.91   25.25
  -2  -1 -11  443.58   25.78
   2   1  12    3.31    3.74
  -2  -1 -12   -1.25    4.07
  -2  -1 -12   -0.69    2.76
  -2  -1 -12   -1.37    3.39
   2   1  12    1.11    3.77
   2   2 -15  285.16   20.75
  -2  -2  15  321.88   24.76
   2   2 -15  323.68   22.11
  -2  -2  15  283.14   19.88
   2   2 -15  325.90   25.57
   2   2 -14 1143.98   42.61
   2   2 -14 1234.43   50.52
   2   2 -14  997.39   39.21
  -2  -2  14 1046.75   38.42
  -2  -2  14 1206.14   48.33
  -2  -2  13  133.18   15.88
  -2  -2  13  149.91   15.65
   2   2 -13  126.22   15.75
   2   2 -13  121.77   13.65
   2   2 -13  130.48   13.77
  -2  -2  13  122.18   12.99
  -2  -2  12  355.14   22.90
   2   2 -12  384.84   25.00
  -2  -2  12  414.39   26.17
  -2  -2  12  340.60   25.75
   2   2 -12  399.54   28.22
  -2  -2  11 1493.20   50.35
  -2  -2  11 1363.09   51.67
  -2  -2  11 1473.15   48.32
   2   2 -11 1552.32   50.87
   2   2 -11 1435.82   51.67
  -2  -2  10  658.18   30.97
  -2  -2  10  630.21   33.56
   2   2 -10  651.64   31.47
  -2  -2  10  639.89   27.80
   2   2 -10  572.34   30.16
  -2  -2  10  597.67   31.15
  -2  -2   9   16.67    4.59
  -2  -2   9   17.89    4.99
  -2  -2   9   17.99    5.07
   2   2  -9   15.44    3.69
   2   2  -9   26.37    6.15
   2   2  -9   15.20    5.01
  -2  -2   9   23.39    7.03
  -2  -2   8  913.74   29.47
   2   2  -8  818.41   31.37
   2   2  -8  868.95   30.33
  -2  -2   8  922.61   28.37
   2   2  -8  792.77   26.23
  -2  -2   8  901.49   32.70
  -2  -2   8  711.81   34.71
  -2  -2   7 1419.92   32.73
   2   2  -7 1345.36   33.26
   2   2  -7 1243.35   32.49
  -2  -2   7 1421.38   31.02
   2   2  -7 1271.40   36.40
  -2  -2   7 1311.21   44.76
  -2  -2   7 1412.31   35.92
  -2  -2   6    4.87    2.02
  -2  -2   6   15.72    5.48
  -2  -2   6    8.63    2.58
   2   2  -6   18.70    3.72
   2   2  -6    5.06    2.61
   2   2  -6   12.40    2.82
  -2  -2   6    9.35    3.05
   2   2  -5 1371.06   29.65
  -2  -2   5 1317.91   23.59
  -2  -2   5 1327.73   24.81
   2   2  -5 1345.44   29.75
   2   2  -5 1359.21   24.19
  -2  -2   5 1314.94   26.39
  -2  -2   5 1417.12   35.16
  -2  -2   4 2133.28   30.47
   2   2  -4 2120.22   34.10
   2   2  -4 2198.16   36.93
  -2  -2   4 2022.91   29.34
   2   2  -4 2109.13   28.65
  -2  -2   4 2088.33   31.90
  -2  -2   4 2035.29   36.64
  -2  -2   3  285.04   10.91
  -2  -2   3  278.04    9.33
   2   2  -3  293.42   11.72
   2   2  -3  282.63    9.96
  -2  -2   3  282.55    9.62
  -2  -2   3  284.30    9.12
   2   2  -3  277.94    7.31
   2   2  -3  266.43    7.78
   2   2  -2 1402.16   19.97
  -2  -2   2 1406.98   23.51
   2   2  -2 1352.11   18.88
   2   2  -2 1455.00   26.14
  -2  -2   2 1427.55   24.00
  -2  -2   2 1356.94   21.98
  -2  -2   1 1579.41   24.00
   2   2  -1 1540.98   26.31
   2   2  -1 1611.98   24.06
  -2  -2   1 1619.35   27.22
  -2  -2   1 1602.99   21.32
  -2  -2   0 2553.24   33.49
  -2  -2   0 2594.17   41.88
   2   2   0 2582.09   36.26
  -2  -2   0 2641.88   32.57
  -2  -2   0 2530.81   34.15
  -2  -2  -1   60.06    2.92
  -2  -2  -1   50.27    4.43
  -2  -2  -1   42.24    4.08
   2   2   1   55.71    5.28
  -2  -2  -1   41.69    5.53
   2   2   1   51.40    4.13
  -2  -2  -2 2114.63   35.61
  -2  -2  -2 2016.38   40.90
  -2  -2  -2 2146.52   26.83
  -2  -2  -2 1989.67   45.23
   2   2   2 2078.73   40.96
   2   2   2 2183.03   31.58
  -2  -2  -3 3095.09   50.93
  -2  -2  -3 3113.01   42.34
   2   2   3 2998.04   58.03
  -2  -2  -3 3121.30   62.22
  -2  -2  -3 3036.85   63.34
  -2  -2  -4 1223.09   33.46
  -2  -2  -4 1372.28   36.13
  -2  -2  -4 1307.27   43.13
  -2  -2  -4 1316.25   29.21
   2   2   4 1294.37   40.46
  -2  -2  -4 1454.18   32.54
  -2  -2  -5  423.31   20.55
  -2  -2  -5  403.88   13.05
  -2  -2  -5  400.73   17.16
  -2  -2  -5  388.99   23.55
   2   2   5  338.41   21.92
   2   2   5  410.16   18.98
  -2  -2  -5  384.16   21.36
  -2  -2  -6 2730.87   50.90
   2   2   6 2683.89   58.17
  -2  -2  -6 2793.03   65.95
  -2  -2  -6 2787.85   66.96
  -2  -2  -7 1531.87   47.72
  -2  -2  -7 1264.09   39.88
   2   2   7 1403.97   49.57
   2   2   7 1383.81   47.31
  -2  -2  -7 1425.86   48.43
   2   2   7 1248.45   40.35
  -2  -2  -7 1608.57   37.89
  -2  -2  -8    1.30    3.49
  -2  -2  -8    7.45    4.99
  -2  -2  -8    3.49    3.85
   2   2   8    8.65    4.36
   2   2   8   13.06    5.52
  -2  -2  -8    2.30    3.03
   2   2   8   14.39    5.77
  -2  -2  -8    0.53    3.17
  -2  -2  -9  973.61   39.77
  -2  -2  -9 1019.54   39.18
  -2  -2  -9  874.25   32.60
   2   2   9  917.53   37.61
   2   2   9 1027.49   41.77
  -2  -2 -10  918.33   32.51
  -2  -2 -10  966.73   39.22
  -2  -2 -10 1001.99   39.26
   2   2  10  954.86   37.90
   2   2  10 1020.33   40.05
  -2  -2 -11  157.99   15.81
  -2  -2 -11  147.95   15.42
   2   2  11  139.67   14.60
   2   2  11  152.16   15.55
  -2  -2 -12  161.04   16.28
  -2  -2 -12  156.88   15.54
   2   2  12  136.27   13.87
   2   2  12  168.74   16.34
   2   3 -15  684.97   39.87
  -2  -3  15  730.87   39.46
   2   3 -15  671.02   33.59
  -2  -3  15  614.36   30.05
   2   3 -14  433.90   31.85
   2   3 -14  387.17   25.63
   2   3 -14  364.78   23.30
  -2  -3  14  413.55   29.87
  -2  -3  14  346.95   22.62
   2   3 -13   14.16    6.92
  -2  -3  13    6.53    4.55
   2   3 -13   18.81    6.17
   2   3 -13    6.04    3.54
  -2  -3  13   -0.51    8.17
  -2  -3  12  686.81   33.65
  -2  -3  12  621.64   32.03
   2   3 -12  704.45   35.21
   2   3 -12  620.11   30.67
   2   3 -12  629.27   35.62
  -2  -3  12  643.86   37.42
   2   3 -11  832.59   37.12
  -2  -3  11  899.83   36.00
   2   3 -11  832.81   38.35
  -2  -3  11  905.16   43.82
  -2  -3  11  886.60   39.33
  -2  -3  10  228.96   16.40
  -2  -3  10  222.65   20.07
  -2  -3  10  237.90   17.84
   2   3 -10  196.35   17.05
   2   3 -10  228.47   18.08
  -2  -3  10  203.42   18.78
   2   3  -9 1055.90   35.14
  -2  -3   9 1008.25   37.91
  -2  -3   9 1009.84   31.54
   2   3  -9  976.36   35.51
  -2  -3   9 1058.71   34.73
   2   3  -9  939.82   29.48
   2   3  -8 3012.01   58.51
   2   3  -8 2503.47   55.13
  -2  -3   8 2880.43   53.57
   2   3  -8 2756.78   52.29
  -2  -3   8 2718.19   57.09
   2   3  -8 2355.83   49.06
  -2  -3   8 2244.55   65.08
  -2  -3   8 2806.80   49.00
  -2  -3   7  539.62   19.32
   2   3  -7  480.18   19.90
   2   3  -7  530.73   21.55
  -2  -3   7  523.17   17.51
  -2  -3   7  499.98   20.36
  -2  -3   7  550.44   29.67
   2   3  -7  519.69   18.61
  -2  -3   6  404.50   13.65
   2   3  -6  420.14   14.38
   2   3  -6  404.53   16.71
  -2  -3   6  381.97   15.48
   2   3  -6  388.74   16.76
  -2  -3   6  402.89   14.86
   2   3  -5 4433.74   43.38
   2   3  -5 4495.88   59.97
  -2  -3   5 4472.86   58.58
  -2  -3   5 4568.47   54.00
  -2  -3   5 4550.77   57.24
   2   3  -5 4622.38   54.92
  -2  -3   5 4696.60   70.90
   2   3  -5 4563.25   64.18
  -2  -3   4  962.01   21.80
   2   3  -4  960.28   24.66
  -2  -3   4  992.41   19.42
   2   3  -4  969.26   14.78
  -2  -3   4  903.91   20.80
   2   3  -4  964.01   19.02
  -2  -3   4  902.57   23.79
  -2  -3   3 1226.30   24.90
  -2  -3   3 1224.78   24.26
   2   3  -3 1308.67   19.59
   2   3  -3 1326.49   28.06
   2   3  -3 1222.77   20.73
  -2  -3   3 1257.74   23.88
  -2  -3   2 4039.42   48.81
  -2  -3   2 3967.99   50.60
  -2  -3   2 3929.17   47.83
   2   3  -2 3921.47   53.20
  -2  -3   1 3453.37   40.58
   2   3  -1 3156.69   45.66
   2   3  -1 3255.77   44.84
  -2  -3   1 3413.16   46.76
  -2  -3   1 3378.04   39.83
  -2  -3   1 3220.55   41.92
  -2  -3   0  495.37   13.71
   2   3   0  511.36   17.64
   2   3   0  537.79   15.99
  -2  -3   0  496.82   13.38
  -2  -3   0  489.89   14.08
  -2  -3   0  498.86   17.12
   2   3   1 1340.80   32.76
  -2  -3  -1 1237.73   31.17
  -2  -3  -1 1284.45   23.37
  -2  -3  -1 1294.48   24.31
  -2  -3  -2 5013.23   63.40
   2   3   2 5207.75   82.46
  -2  -3  -2 5081.26   68.90
  -2  -3  -3 1532.49   24.94
  -2  -3  -3 1468.41   32.54
   2   3   3 1364.17   42.61
  -2  -3  -3 1414.10   40.84
  -2  -3  -3 1351.25   37.90
  -2  -3  -4   91.45   10.77
  -2  -3  -4  100.16    9.24
  -2  -3  -4  101.39    7.82
   2   3   4   80.86   10.77
  -2  -3  -4  109.57    8.08
  -2  -3  -4   92.60   11.31
  -2  -3  -5 1199.56   31.56
  -2  -3  -5 1234.16   38.18
   2   3   5 1255.56   32.97
  -2  -3  -5 1162.87   32.66
  -2  -3  -5 1245.75   45.60
   2   3   6 1755.13   56.00
  -2  -3  -6 2000.55   55.33
  -2  -3  -6 2034.50   44.97
  -2  -3  -6 1669.53   43.39
   2   3   6 1965.52   47.79
  -2  -3  -6 1924.59   58.07
  -2  -3  -7  243.13   20.22
  -2  -3  -7  271.48   21.31
   2   3   7  264.59   17.44
  -2  -3  -7  234.26   15.35
   2   3   7  265.61   20.75
  -2  -3  -7  282.62   16.85
   2   3   7  248.18   21.53
  -2  -3  -8  180.22   17.78
   2   3   8  177.79   16.91
  -2  -3  -8  194.79   18.00
   2   3   8  163.32   18.16
   2   3   9  959.48   42.81
   2   3   9  931.73   38.87
  -2  -3  -9  977.00   40.20
  -2  -3  -9 1018.63   41.28
  -2  -3  -9  913.40   40.13
  -2  -3 -10  531.35   29.94
   2   3  10  517.69   28.39
   2   3  10  573.71   31.90
  -2  -3 -10  538.83   30.10
   2   3  11   13.67    7.05
  -2  -3 -11    8.80    4.84
  -2  -3 -11    5.87    4.99
   2   3  11   12.79    5.59
  -2  -3 -12  361.92   23.90
   2   3  12  313.30   21.30
   2   3  12  372.56   25.10
   2   4 -15  358.87   25.71
   2   4 -15  431.82   33.30
  -2  -4  15  399.56   30.77
  -2  -4  14   -7.01    5.89
   2   4 -14   -3.47    6.29
   2   4 -14    6.54    4.06
   2   4 -14   -8.82    9.62
  -2  -4  14  -12.51    9.83
  -2  -4  13  215.67   22.74
   2   4 -13  252.66   23.61
   2   4 -13  262.05   22.40
   2   4 -13  242.44   19.62
  -2  -4  13  244.51   20.67
   2   4 -12  616.23   32.94
   2   4 -12  621.74   34.75
  -2  -4  12  592.75   37.92
   2   4 -12  576.06   29.75
  -2  -4  12  572.04   32.31
  -2  -4  11  229.76   20.19
   2   4 -11  228.04   19.14
   2   4 -11  256.80   20.65
   2   4 -11  245.00   19.42
  -2  -4  11  263.76   20.56
  -2  -4  11  249.95   22.61
  -2  -4  10  119.26   11.03
  -2  -4  10   99.68   13.04
   2   4 -10  127.70   13.45
  -2  -4  10  133.98   15.12
   2   4 -10  132.17   14.83
   2   4 -10  138.41   13.78
  -2  -4  10  139.13   14.46
  -2  -4   9 1354.28   42.47
  -2  -4   9 1337.31   33.26
   2   4  -9 1267.82   39.79
   2   4  -9 1227.68   35.87
   2   4  -9 1577.75   43.70
  -2  -4   9 1426.49   41.77
   2   4  -9 1299.02   37.37
  -2  -4   9 1000.09   44.71
   2   4  -8  861.33   29.35
  -2  -4   8  883.37   24.50
   2   4  -8 1041.26   32.76
   2   4  -8 1082.44   40.52
  -2  -4   8  845.23   29.83
  -2  -4   8  828.46   39.14
  -2  -4   8  940.51   30.36
   2   4  -8  898.38   27.25
  -2  -4   7   61.19   10.80
   2   4  -7   70.02    7.87
  -2  -4   7   56.33    6.80
   2   4  -7   57.96    6.25
   2   4  -7   52.60    7.04
  -2  -4   7   62.15    7.11
  -2  -4   7   62.18    5.86
   2   4  -6 2241.70   46.47
  -2  -4   6 2412.27   36.33
   2   4  -6 2322.69   25.33
   2   4  -6 2370.34   39.33
  -2  -4   6 2298.55   42.32
  -2  -4   6 2283.37   42.53
   2   4  -5 2528.35   47.53
   2   4  -5 2591.58   38.95
  -2  -4   5 2525.81   42.24
   2   4  -5 2426.45   28.36
  -2  -4   5 2410.15   41.59
  -2  -4   5 2518.25   49.14
   2   4  -4  234.49    8.29
   2   4  -4  238.06    9.89
  -2  -4   4  240.95   11.43
  -2  -4   4  243.83   11.41
   2   4  -4  222.84   12.62
  -2  -4   4  243.22   12.15
  -2  -4   3 1889.54   33.14
  -2  -4   3 1867.14   34.05
   2   4  -3 1948.49   31.61
  -2  -4   3 1872.95   32.29
   2   4  -3 1828.59   29.51
   2   4  -3 1995.25   38.60
   2   4  -2 4406.16   59.40
   2   4  -2 4473.18   48.25
  -2  -4   2 4335.23   53.41
  -2  -4   2 4267.40   50.90
  -2  -4   2 4298.44   57.56
  -2  -4   2 4149.97   53.20
   2   4  -2 4317.08   60.90
   2   4  -1 2522.20   43.47
  -2  -4   1 2587.65   34.80
   2   4  -1 2611.92   48.54
  -2  -4   1 2549.80   42.09
  -2  -4   1 2581.15   36.70
  -2  -4   0  908.23   20.43
   2   4   0  926.81   24.43
  -2  -4   0  876.81   20.95
  -2  -4   0  903.49   20.60
   2   4   0  893.19   30.54
  -2  -4   0  903.67   24.93
  -2  -4  -1 7950.17   85.07
  -2  -4  -1 8159.52  101.21
   2   4   1 7902.79  114.38
  -2  -4  -1 7915.81   87.61
  -2  -4  -2 2405.27   36.78
  -2  -4  -2 2385.16   49.90
   2   4   2 2331.46   58.53
   2   4   2 2276.81   17.67
  -2  -4  -3   49.81    5.84
  -2  -4  -3   50.89    8.10
  -2  -4  -3   59.47    3.77
   2   4   3   43.31    8.41
  -2  -4  -3   44.12    6.35
  -2  -4  -4 1377.14   31.30
  -2  -4  -4 1346.45   35.11
  -2  -4  -4 1336.68   42.92
   2   4   4 1126.98   36.69
   2   4   4 1136.45   45.48
  -2  -4  -4 1544.17   28.06
  -2  -4  -4 1327.60   43.01
  -2  -4  -5 2108.81   44.10
   2   4   5 2305.10   44.72
   2   4   5 1903.73   45.15
   2   4   5 1904.95   59.92
  -2  -4  -5 2160.86   50.81
  -2  -4  -5 2076.18   61.58
  -2  -4  -6  458.10   25.47
  -2  -4  -6  444.60   29.24
  -2  -4  -6  477.45   22.13
   2   4   6  448.88   27.68
  -2  -4  -7   91.59   10.02
  -2  -4  -7   79.08   11.34
   2   4   7   83.89   13.32
  -2  -4  -7   89.15   13.12
   2   4   7   86.35   12.54
  -2  -4  -8  723.14   36.18
   2   4   8  665.60   37.78
   2   4   8  733.37   35.36
  -2  -4  -8  759.73   38.40
  -2  -4  -9  559.97   31.87
  -2  -4  -9  623.50   34.27
   2   4   9  607.88   35.61
   2   4   9  554.79   30.50
   2   4  10   41.55    9.66
  -2  -4 -10   41.89    9.06
   2   4  10   33.11    8.49
  -2  -4 -10   22.79    7.29
  -2  -4 -10   30.46    8.06
   2   4  11  201.62   17.82
  -2  -4 -11  221.72   19.42
  -2  -4 -11  243.50   20.95
   2   4  11  259.75   22.29
   2   5 -14  133.36   14.27
   2   5 -14  155.71   19.93
  -2  -5  14  115.76   17.82
  -2  -5  14  112.88   14.51
   2   5 -13  556.63   35.01
  -2  -5  13  480.57   36.05
  -2  -5  13  515.19   31.41
   2   5 -13  442.65   26.64
  -2  -5  12  207.04   22.13
   2   5 -12  183.96   17.46
  -2  -5  12  188.70   19.51
   2   5 -12  220.99   20.65
  -2  -5  11  117.17   15.75
  -2  -5  11   77.77   11.67
   2   5 -11  119.14   13.91
   2   5 -11  100.12   13.12
  -2  -5  11  114.15   14.51
  -2  -5  10 1039.08   40.32
   2   5 -10  839.24   38.53
   2   5 -10  977.66   35.01
  -2  -5  10 1009.89   39.68
  -2  -5  10  750.52   40.31
   2   5  -9  641.90   25.37
  -2  -5   9  647.98   21.28
  -2  -5   9  720.75   30.34
   2   5  -9  765.13   34.15
   2   5  -9  648.89   33.79
  -2  -5   9  544.70   33.87
   2   5  -9  646.30   27.36
  -2  -5   9  664.86   28.57
  -2  -5   8   40.87    9.33
  -2  -5   8   45.39    5.22
  -2  -5   8   55.90    8.07
   2   5  -8   39.26    6.81
   2   5  -8   66.97   11.84
  -2  -5   8   44.79    7.26
   2   5  -8   41.18    8.20
   2   5  -8   37.68    5.80
   2   5  -7  363.55   23.53
  -2  -5   7  419.07   19.41
   2   5  -7  366.87   15.99
  -2  -5   7  382.33   17.98
   2   5  -7  375.69   19.93
  -2  -5   7  407.07   25.74
   2   5  -6 1747.67   35.04
  -2  -5   6 1724.85   38.67
  -2  -5   6 1717.74   37.59
   2   5  -6 1881.64   48.60
  -2  -5   6 1914.97   48.35
   2   5  -6 1688.06   42.83
  -2  -5   5  526.95   21.22
   2   5  -5  564.77   22.74
   2   5  -5  574.10   17.87
  -2  -5   5  503.55   19.13
   2   5  -5  531.17   17.32
  -2  -5   5  545.16   19.29
   2   5  -5  542.34   22.44
  -2  -5   4  264.71   13.17
   2   5  -4  243.52   11.23
   2   5  -4  285.19   13.29
  -2  -5   4  239.40   12.66
  -2  -5   4  267.64   12.80
   2   5  -4  267.32   14.41
   2   5  -4  276.02   15.33
  -2  -5   3 2521.24   40.61
   2   5  -3 2709.36   54.85
  -2  -5   3 2408.14   43.01
   2   5  -3 2389.53   47.60
   2   5  -3 2345.27   37.72
  -2  -5   3 2365.67   40.13
   2   5  -3 2663.03   35.09
   2   5  -2 2725.83   28.77
  -2  -5   2 2791.17   40.54
   2   5  -2 2756.77   49.96
  -2  -5   2 2673.99   40.53
  -2  -5   2 2649.66   46.08
  -2  -5   2 2670.15   41.87
  -2  -5   1  130.87    8.23
  -2  -5   1  121.08    7.75
   2   5  -1  132.11   13.41
  -2  -5   1  130.97    9.49
  -2  -5   1  133.47    8.14
   2   5  -1  136.37   10.11
  -2  -5   0 2531.80   39.65
  -2  -5   0 2444.10   40.22
   2   5   0 2540.71   65.98
  -2  -5   0 2492.99   46.75
  -2  -5   0 2483.74   40.98
  -2  -5  -1 3414.63   49.42
  -2  -5  -1 3570.07   61.73
   2   5   1 3414.36   81.79
  -2  -5  -1 3407.01   51.97
   2   5   2  539.24   30.98
   2   5   2  580.87   33.22
  -2  -5  -2  623.49   21.70
  -2  -5  -2  655.56   20.28
  -2  -5  -2  660.45   27.23
  -2  -5  -3  424.38   17.52
   2   5   3  424.38   24.44
   2   5   3  382.47   26.91
  -2  -5  -3  429.09   20.45
  -2  -5  -3  412.31   23.58
  -2  -5  -4 1790.28   50.21
  -2  -5  -4 1918.87   42.73
   2   5   4 1653.84   47.10
  -2  -5  -4 1895.09   53.84
   2   5   4 1731.05   57.51
  -2  -5  -5 2002.58   44.29
  -2  -5  -5 1948.96   59.59
   2   5   5 1878.83   59.03
  -2  -5  -5 2050.34   57.84
  -2  -5  -5 2056.50   49.60
  -2  -5  -6    0.83    4.42
  -2  -5  -6    2.89    2.13
   2   5   6    6.73    4.71
  -2  -5  -6    1.73    5.10
  -2  -5  -7  758.17   36.46
   2   5   7  717.49   35.42
  -2  -5  -7  812.99   41.94
   2   5   7  712.98   40.56
  -2  -5  -8  657.32   34.95
  -2  -5  -8  679.30   38.78
   2   5   8  685.29   40.03
   2   5   8  709.09   35.07
  -2  -5  -9   61.99   11.30
   2   5   9   70.96   13.55
  -2  -5  -9   59.48   10.94
   2   5   9   58.12   10.57
   2   5  10  290.00   21.77
  -2  -5 -10  285.08   22.89
  -2  -5 -10  333.01   26.23
   2   5  10  278.37   24.22
  -2  -5 -11  292.62   22.24
  -2  -6  14  407.83   34.65
   2   6 -14  374.69   25.08
   2   6 -14  437.59   33.57
  -2  -6  14  416.29   29.09
   2   6 -13  435.09   27.65
  -2  -6  13  458.40   34.79
   2   6 -13  510.52   33.48
  -2  -6  13  460.11   31.31
  -2  -6  12    9.87    7.01
  -2  -6  12   -9.84    9.64
   2   6 -12   -1.20    4.19
   2   6 -12    7.99    6.10
  -2  -6  12   -6.11    6.85
  -2  -6  11  628.98   35.29
  -2  -6  11  434.92   32.12
   2   6 -11  563.27   28.83
   2   6 -11  442.62   28.51
  -2  -6  11  554.12   32.61
  -2  -6  10 1022.40   39.27
   2   6 -10 1031.19   35.67
   2   6 -10  917.08   41.04
  -2  -6  10 1212.21   45.40
  -2  -6  10  812.67   43.88
  -2  -6   9  113.22   15.87
   2   6  -9  142.61   16.13
   2   6  -9  107.36   13.62
  -2  -6   9  141.59   14.27
   2   6  -9  116.74   12.72
  -2  -6   9  115.73   12.26
   2   6  -9  115.22   10.84
   2   6  -8  390.74   22.73
   2   6  -8  412.45   24.30
   2   6  -8  397.99   18.75
  -2  -6   8  422.15   20.85
  -2  -6   8  404.62   21.85
  -2  -6   8  459.29   29.93
   2   6  -7 2137.68   43.15
   2   6  -7 2049.10   51.29
  -2  -6   7 2032.22   47.48
   2   6  -7 1955.02   51.61
  -2  -6   7 2009.30   45.12
  -2  -6   7 2155.46   58.22
  -2  -6   6  992.52   28.96
   2   6  -6  951.56   26.70
   2   6  -6  900.38   33.28
   2   6  -6 1005.73   30.72
  -2  -6   6  955.53   29.91
  -2  -6   6  980.36   33.47
  -2  -6   5   60.62    6.90
  -2  -6   5   58.41    7.21
   2   6  -5   69.72    7.16
   2   6  -5   61.67   15.73
   2   6  -5   58.34    6.36
   2   6  -5   65.20    8.74
  -2  -6   5   61.94    7.43
   2   6  -4 1543.06   41.35
   2   6  -4 1497.68   31.93
  -2  -6   4 1562.52   34.21
   2   6  -4 1582.69   76.62
   2   6  -4 1494.78   43.83
  -2  -6   4 1510.24   36.14
   2   6  -4 1672.43   29.13
  -2  -6   4 1574.05   34.30
   2   6  -3 1757.72   76.48
   2   6  -3 1696.35   42.03
  -2  -6   3 1635.19   32.65
  -2  -6   3 1724.26   38.03
   2   6  -3 1783.60   24.78
  -2  -6   3 1783.77   33.94
  -2  -6   3 1703.52   34.68
  -2  -6   2  354.30   13.13
   2   6  -2  341.16   18.02
   2   6  -2  403.94   35.29
  -2  -6   2  335.94   13.97
   2   6  -2  335.45   25.89
  -2  -6   2  345.52   16.29
  -2  -6   2  342.78   14.40
  -2  -6   1  303.02   13.67
   2   6  -1  286.36   30.15
   2   6  -1  290.33   25.46
  -2  -6   1  305.31   15.59
  -2  -6   1  308.33   13.15
  -2  -6   1  297.72   13.65
  -2  -6   0 1896.62   37.36
  -2  -6   0 1933.21   36.04
   2   6   0 1854.47   68.32
   2   6   0 1973.50   67.22
  -2  -6   0 1982.41   43.34
  -2  -6   0 1810.07   36.77
  -2  -6  -1  674.53   26.23
   2   6   1  718.26   39.34
  -2  -6  -1  716.83   21.30
  -2  -6  -1  659.73   22.15
  -2  -6  -2  187.12   12.58
   2   6   2  189.66   18.06
  -2  -6  -2  189.30   15.20
  -2  -6  -2  198.50   11.69
   2   6   2  184.97   19.50
  -2  -6  -3  574.03   21.16
   2   6   3  512.40   27.89
   2   6   3  605.61   34.35
  -2  -6  -3  558.59   28.46
  -2  -6  -3  548.70   24.05
  -2  -6  -4 1724.46   53.63
  -2  -6  -4 1741.28   41.60
   2   6   4 1589.48   48.01
   2   6   4 1697.69   57.23
  -2  -6  -4 1732.26   49.74
  -2  -6  -5  341.25   19.63
  -2  -6  -5  343.33   23.96
  -2  -6  -5  347.43   18.34
  -2  -6  -5  299.33   22.84
   2   6   5  338.72   25.08
  -2  -6  -6  261.56   19.16
  -2  -6  -6  268.43   17.44
  -2  -6  -6  250.20   23.04
   2   6   6  250.03   21.59
  -2  -6  -7  672.22   34.50
   2   6   7  705.76   35.56
  -2  -6  -7  737.97   42.09
   2   6   7  644.86   40.02
   2   6   8  350.68   28.96
   2   6   8  342.37   24.51
  -2  -6  -8  337.47   25.23
  -2  -6  -8  378.50   30.40
   2   6   9   26.29    9.38
  -2  -6  -9   23.87    7.14
   2   6   9   14.45    6.44
  -2  -6  -9   22.05    8.71
   2   7 -14  259.42   22.13
   2   7 -14  338.68   29.43
   2   7 -13  153.73   17.00
  -2  -7  13  202.96   23.05
   2   7 -13  195.89   20.86
  -2  -7  13  170.20   20.46
   2   7 -12   56.14    9.89
  -2  -7  12   75.71   14.05
  -2  -7  12   42.17    9.62
   2   7 -12   71.34   11.95
  -2  -7  12   68.55   12.93
  -2  -7  11  765.20   40.49
   2   7 -11  692.69   31.97
   2   7 -11  578.86   33.01
  -2  -7  11  697.29   35.60
  -2  -7  11  539.15   37.31
   2   7 -10  836.93   32.40
  -2  -7  10  938.28   41.63
   2   7 -10  707.42   34.75
  -2  -7  10  766.89   43.97
  -2  -7  10  839.19   35.59
   2   7  -9   50.88   10.10
   2   7  -9   30.40    6.93
  -2  -7   9   36.71    9.86
   2   7  -9   37.03    7.53
  -2  -7   9   42.02    8.53
  -2  -7   9   36.87    7.05
   2   7  -9   39.61    6.67
   2   7  -8 1208.01   43.49
  -2  -7   8 1345.02   42.54
  -2  -7   8 1441.77   52.12
   2   7  -8 1274.14   40.33
   2   7  -8 1321.01   36.40
  -2  -7   8 1308.58   38.55
   2   7  -7 2489.59   51.81
  -2  -7   7 2468.90   52.04
  -2  -7   7 2402.68   54.86
   2   7  -7 2458.12   49.83
   2   7  -7 2337.35   60.69
  -2  -7   7 2513.97   61.28
   2   7  -6  148.52   14.41
   2   7  -6  178.67   24.51
  -2  -7   6  159.42   12.84
  -2  -7   6  157.03   11.89
   2   7  -6  159.16   11.37
   2   7  -6  167.17   11.40
  -2  -7   6  163.79   13.22
   2   7  -5  941.15   23.00
   2   7  -5  918.33   58.19
  -2  -7   5  917.56   28.59
   2   7  -5  862.70   33.82
   2   7  -5  893.21   26.95
  -2  -7   5  876.79   27.50
  -2  -7   5  891.11   29.71
  -2  -7   4 2676.07   48.49
   2   7  -4 2561.03   58.83
  -2  -7   4 2544.53   45.66
  -2  -7   4 2568.95   52.09
  -2  -7   4 2646.32   47.49
  -2  -7   3  921.88   26.22
   2   7  -3  860.52   58.92
  -2  -7   3  956.54   29.86
   2   7  -3  853.39   36.64
  -2  -7   3  899.32   25.31
  -2  -7   3  987.98   25.43
   2   7  -2   15.00    6.61
  -2  -7   2   17.58    3.17
  -2  -7   2   14.11    3.20
  -2  -7   2    9.81    2.91
  -2  -7   2   16.51    3.31
   2   7  -2    7.00    7.19
  -2  -7   1 1571.23   35.68
  -2  -7   1 1655.88   34.11
   2   7  -1 1593.35   70.04
  -2  -7   1 1597.95   35.30
  -2  -7   1 1611.81   39.83
  -2  -7   0 1376.81   33.88
   2   7   0 1304.39   59.18
   2   7   0 1462.51   58.56
  -2  -7   0 1432.24   38.95
  -2  -7   0 1478.88   32.64
  -2  -7   0 1420.98   33.91
  -2  -7  -1  204.37   11.89
   2   7   1  227.71   22.66
   2   7   1  190.99   20.54
  -2  -7  -1  204.68   15.05
  -2  -7  -1  191.79   12.61
  -2  -7  -2  255.27   15.67
   2   7   2  232.61   21.32
  -2  -7  -2  242.76   17.91
  -2  -7  -2  266.48   14.15
   2   7   2  283.90   24.91
  -2  -7  -3  888.34   27.71
  -2  -7  -3  814.09   36.05
  -2  -7  -3  849.33   31.69
  -2  -7  -4  451.91   21.08
  -2  -7  -4  407.21   26.58
   2   7   4  491.84   31.37
   2   7   4  442.87   26.27
  -2  -7  -4  433.19   25.09
   2   7   5   18.80    7.08
  -2  -7  -5    6.20    2.77
  -2  -7  -5   18.20    5.10
  -2  -7  -5   11.85    5.66
  -2  -7  -5    9.25    3.83
  -2  -7  -6  394.41   23.93
  -2  -7  -6  387.26   22.01
  -2  -7  -6  356.78   28.26
   2   7   6  365.07   26.00
  -2  -7  -6  398.07   27.46
  -2  -7  -7  296.03   23.08
  -2  -7  -7  290.49   27.58
   2   7   7  267.96   26.37
   2   7   7  320.80   24.00
   2   7   8   60.88   11.18
  -2  -7  -8   68.20   13.93
   2   7   8   83.63   15.47
   2   8 -13   11.58    4.35
   2   8 -13   26.37    8.12
  -2  -8  13    9.97    6.08
  -2  -8  13   26.95    9.85
   2   8 -12  387.46   26.43
  -2  -8  12  426.17   34.16
  -2  -8  12  369.06   28.59
   2   8 -12  337.95   25.79
  -2  -8  12  286.27   28.09
   2   8 -11  700.60   32.65
  -2  -8  11  744.04   36.74
   2   8 -11  576.46   32.12
  -2  -8  11  785.19   42.58
  -2  -8  11  607.15   41.04
   2   8 -10   98.69   12.74
  -2  -8  10  119.28   17.94
   2   8 -10   94.84   11.26
   2   8 -10  128.46   16.45
  -2  -8  10  114.79   15.29
  -2  -8  10  109.44   13.16
  -2  -8   9  357.12   21.79
   2   8  -9  378.53   29.19
   2   8  -9  318.73   20.32
  -2  -8   9  363.27   24.70
   2   8  -9  331.64   19.83
  -2  -8   9  378.38   29.61
  -2  -8   8 1191.68   38.36
  -2  -8   8 1169.32   41.73
   2   8  -8 1180.98   36.80
   2   8  -8 1351.77   59.97
   2   8  -8 1179.06   36.08
  -2  -8   8 1297.29   47.75
  -2  -8   7  644.38   26.39
  -2  -8   7  586.55   27.48
   2   8  -7  613.84   25.24
  -2  -8   7  671.55   30.02
  -2  -8   6   61.97    8.50
   2   8  -6   73.21    8.50
  -2  -8   6   70.20    8.90
   2   8  -6   72.05   15.64
  -2  -8   6   65.70    8.34
  -2  -8   5 1238.30   37.87
   2   8  -5 1323.17   71.24
  -2  -8   5 1195.57   32.53
  -2  -8   5 1286.26   34.67
  -2  -8   5 1322.82   35.62
  -2  -8   4 2651.91   48.61
  -2  -8   4 2439.02   47.83
  -2  -8   4 2535.91   54.87
   2   8  -4 2556.06  102.24
  -2  -8   4 2553.36   49.73
  -2  -8   3  327.39   16.14
  -2  -8   3  368.48   15.56
   2   8  -3  383.59   38.36
  -2  -8   3  351.31   19.11
  -2  -8   3  358.47   16.92
  -2  -8   2  650.24   23.32
  -2  -8   2  654.23   26.31
   2   8  -2  656.79   47.93
   2   8  -2  670.00   35.33
  -2  -8   2  653.72   23.02
  -2  -8   2  673.57   21.96
   2   8  -1 2610.54   90.12
  -2  -8   1 2599.62   55.41
  -2  -8   1 2586.29   46.79
  -2  -8   1 2592.65   49.30
  -2  -8   1 2618.91   50.34
   2   8   0  555.05   35.80
  -2  -8   0  535.10   22.06
  -2  -8   0  567.49   25.49
  -2  -8   0  580.99   20.94
   2   8   0  563.10   37.77
   2   8   1   42.14   10.66
  -2  -8  -1   44.76    5.94
  -2  -8  -1   59.66    8.26
  -2  -8  -1   44.00    6.64
   2   8   1   50.26   12.36
  -2  -8  -2 1195.18   37.08
   2   8   2 1129.09   47.79
  -2  -8  -2 1178.25   42.19
  -2  -8  -2 1216.77   32.76
  -2  -8  -3  772.48   26.97
   2   8   3  696.47   36.15
   2   8   3  827.52   41.82
  -2  -8  -3  782.29   31.82
  -2  -8  -3  744.01   36.06
  -2  -8  -4    0.25    4.22
   2   8   4    2.68    4.77
   2   8   4    5.72    3.96
  -2  -8  -4    8.83    2.50
  -2  -8  -4   -2.71    5.06
  -2  -8  -5  502.52   24.83
  -2  -8  -5  479.28   30.57
   2   8   5  469.22   29.62
  -2  -8  -5  455.73   29.98
  -2  -8  -6  321.03   25.81
   2   8   6  354.09   25.50
  -2  -8  -6  309.39   27.04
   2   8   6  319.64   30.18
   2   8   7   74.92   12.30
   2   8   7   67.82   13.58
  -2  -8  -7   74.47   14.25
   2   9 -13  261.54   23.72
   2   9 -12  482.06   30.67
   2   9 -12  634.63   34.38
  -2  -9  12  626.34   42.19
  -2  -9  12  592.86   35.90
  -2  -9  12  455.06   37.04
  -2  -9  11  166.56   17.76
   2   9 -11  148.68   15.90
  -2  -9  11  160.41   22.37
  -2  -9  11  183.18   21.47
   2   9 -11  159.28   16.30
  -2  -9  10  209.36   21.21
   2   9 -10  197.54   22.03
   2   9 -10  194.56   16.78
  -2  -9  10  211.92   18.76
  -2  -9  10  220.63   24.95
  -2  -9   9  748.90   36.94
   2   9  -9  705.44   30.67
   2   9  -9  779.34   45.47
  -2  -9   9  670.41   30.99
  -2  -9   9  734.03   39.38
   2   9  -8  578.15   26.94
  -2  -9   8  593.20   27.60
   2   9  -8  675.55   44.88
  -2  -9   8  619.83   31.95
  -2  -9   8  589.94   30.63
   2   9  -7   38.31   11.40
  -2  -9   7   31.30    6.69
  -2  -9   7   35.11    7.17
   2   9  -7   27.19    5.94
  -2  -9   7   35.39    7.09
  -2  -9   6  195.82   14.07
  -2  -9   6  223.34   15.58
   2   9  -6  227.66   29.84
  -2  -9   6  234.54   15.99
  -2  -9   6  219.03   16.96
  -2  -9   5 1321.15   35.97
   2   9  -5 1297.21   73.45
  -2  -9   5 1180.54   39.43
  -2  -9   5 1182.01   34.68
  -2  -9   5 1311.70   37.06
   2   9  -4  512.84   45.53
  -2  -9   4  474.05   23.99
  -2  -9   4  445.49   20.62
  -2  -9   4  459.37   20.88
   2   9  -3   35.98   12.15
  -2  -9   3   52.92    8.05
  -2  -9   3   53.18    7.11
  -2  -9   3   48.17    6.80
   2   9  -2 1217.18   65.54
  -2  -9   2 1169.77   31.14
  -2  -9   2 1115.46   33.52
  -2  -9   2 1174.57   38.12
  -2  -9   2 1171.63   33.04
  -2  -9   1 1278.54   32.73
   2   9  -1 1284.06   62.88
  -2  -9   1 1193.50   35.02
   2   9  -1 1150.18   46.70
  -2  -9   1 1270.95   40.06
  -2  -9   1 1247.76   34.56
  -2  -9   0   82.88    8.32
   2   9   0   78.93   14.52
  -2  -9   0   87.99    9.59
   2   9   0   84.64   13.46
  -2  -9   0   86.27   10.40
  -2  -9  -1  397.50   18.60
   2   9   1  361.48   27.95
  -2  -9  -1  374.28   23.44
   2   9   1  370.69   30.02
  -2  -9  -1  367.57   20.48
  -2  -9  -2 1093.94   32.39
  -2  -9  -2 1088.78   43.37
   2   9   2 1207.17   50.66
  -2  -9  -2 1092.76   37.69
  -2  -9  -3  137.17   15.88
   2   9   3  155.57   17.90
   2   9   3  145.22   17.24
  -2  -9  -3  146.78   14.52
  -2  -9  -4  160.80   17.99
   2   9   4  177.89   18.91
  -2  -9  -4  150.23   16.12
  -2  -9  -5  841.92   34.37
  -2  -9  -5  847.51   42.77
  -2  -9  -5  805.95   41.79
   2   9   5  810.21   48.44
   2   9   5  746.36   37.55
  -2  -9  -6  231.74   22.79
   2   9   6  217.66   25.28
   2   9   6  225.66   20.63
  -2  -9  -6  199.38   22.82
  -2 -10  12  511.83   39.38
  -2 -10  11   14.61    8.87
  -2 -10  11    9.09    7.03
   2  10 -11    8.86    5.43
  -2 -10  11   19.95    7.67
   2  10 -10  639.71   31.84
  -2 -10  10  700.17   39.97
  -2 -10  10  646.38   33.31
   2  10 -10  712.62   44.43
  -2 -10  10  690.90   41.68
  -2 -10   9  832.17   40.85
   2  10  -9  846.67   35.31
   2  10  -9  948.55   53.45
  -2 -10   9  821.13   40.69
  -2 -10   9  853.75   35.94
  -2 -10   8  223.99   17.65
   2  10  -8  205.52   16.76
   2  10  -8  251.10   29.08
  -2 -10   8  188.52   18.42
  -2 -10   8  221.96   18.73
  -2 -10   7  242.65   17.79
  -2 -10   7  209.38   16.14
  -2 -10   7  245.95   19.65
   2  10  -7  280.53   32.17
  -2 -10   7  218.41   16.71
   2  10  -6  817.00   58.00
  -2 -10   6  782.80   34.42
  -2 -10   6  776.82   30.17
  -2 -10   6  808.44   31.03
  -2 -10   5  655.85   27.31
  -2 -10   5  694.95   27.88
   2  10  -5  712.06   55.35
  -2 -10   5  639.04   30.44
  -2 -10   4    1.96    4.19
  -2 -10   4    3.82    2.64
  -2 -10   4    4.15    2.83
  -2 -10   3  439.49   19.68
   2  10  -3  453.08   43.37
  -2 -10   3  450.20   21.30
  -2 -10   3  426.58   24.08
  -2 -10   3  422.82   21.48
  -2 -10   2  532.81   27.18
   2  10  -2  568.33   45.23
  -2 -10   2  530.91   21.74
  -2 -10   2  515.16   23.94
  -2 -10   2  528.33   23.16
  -2 -10   1   79.30   10.79
   2  10  -1   90.86   17.33
  -2 -10   1   80.02    8.31
  -2 -10   1   66.57    8.85
  -2 -10   1   82.22    9.25
   2  10   0   42.68   10.84
  -2 -10   0   56.07    9.19
  -2 -10   0   63.12    8.77
  -2 -10  -1  604.10   28.15
   2  10   1  532.92   33.41
  -2 -10  -1  638.08   32.56
   2  10   1  596.24   39.37
   2  10   2  309.40   25.55
  -2 -10  -2  315.47   21.14
   2  10   2  338.65   28.51
  -2 -10  -2  309.84   24.00
   2  10   3   -4.31    4.93
  -2 -10  -3   -8.14    6.43
   2  10   3    0.89    4.01
  -2 -10  -3   -4.12    5.89
  -2 -10  -4  366.42   29.11
   2  10   4  366.35   26.89
  -2 -10  -4  390.10   27.84
  -2 -10  -5  303.99   26.94
  -2 -11  10  841.08   44.62
   2  11 -10  909.60   52.98
  -2 -11  10  836.48   45.31
  -2 -11   9  568.00   30.63
  -2 -11   9  594.03   35.40
   2  11  -9  644.26   46.97
   2  11  -9  588.58   30.87
  -2 -11   9  590.06   33.50
   2  11  -8    0.08    7.35
  -2 -11   8    3.46    4.75
  -2 -11   8   -6.73    5.06
  -2 -11   8    1.59    3.69
   2  11  -7  655.87   52.31
  -2 -11   7  586.73   28.46
  -2 -11   7  572.83   31.54
  -2 -11   7  544.69   27.67
  -2 -11   6 1129.57   39.29
   2  11  -6 1210.24   73.60
  -2 -11   6 1174.19   44.26
  -2 -11   6 1203.15   39.93
   2  11  -5   56.18   17.07
  -2 -11   5   58.27    9.81
  -2 -11   5   70.60    9.42
  -2 -11   5   65.55    9.19
  -2 -11   4  400.22   19.96
  -2 -11   4  394.65   22.09
  -2 -11   4  381.95   24.30
   2  11  -4  367.09   40.91
  -2 -11   4  395.09   21.37
  -2 -11   3  604.74   27.55
   2  11  -3  678.78   53.89
  -2 -11   3  597.46   30.40
  -2 -11   3  593.25   26.09
   2  11  -2  294.24   33.28
  -2 -11   2  276.98   20.75
  -2 -11   2  243.95   17.45
  -2 -11   2  260.69   17.09
  -2 -11   1   85.42   10.38
   2  11  -1   86.75   17.51
  -2 -11   1   74.10   11.26
  -2 -11   0  471.21   28.67
  -2 -11   0  422.06   23.88
   2  11   0  452.55   37.29
   2  11   1  341.80   31.58
  -2 -11  -1  355.83   22.96
  -2 -11  -1  345.66   25.96
   2  11   2    8.43    5.74
  -2 -11  -2  -10.41    8.56
  -2 -11  -2   -0.11    4.99
  -2 -11  -3  180.28   20.29
  -2 -12   7  594.44   30.31
  -2 -12   7  603.69   30.14
  -2 -12   6  351.10   22.90
  -2 -12   6  401.64   23.65
   2  12  -6  402.26   44.85
  -2 -12   6  382.81   26.28
   2  12  -5   17.74    9.94
  -2 -12   5   24.27    7.11
  -2 -12   5   25.31    6.49
  -2 -12   5   32.46    6.96
  -2 -12   4  502.49   25.45
  -2 -12   4  518.69   29.91
  -2 -12   4  494.73   26.62
   2  12  -4  582.70   52.77
  -2 -12   3  509.09   29.80
  -2 -12   3  473.80   25.84
   2  12  -3  558.32   49.89
  -2 -12   3  475.53   24.53
   2  12  -2    7.87    6.53
  -2 -12   2   16.90    6.61
  -2 -12   2   11.91    4.27
  -2 -12   2   15.55    4.84
  -2 -12   1  348.26   25.53
  -2 -12   1  300.18   21.06
   2  12  -1  328.60   34.75
   3 -13   0  466.93   26.11
  -3  12   4  581.78   40.32
  -3  12   3  714.99   47.12
  -3  12   2    1.03    5.01
   3 -12  -2   -7.09    5.38
   3 -12  -1  539.56   27.57
   3 -12  -1  530.76   26.24
   3 -12   0  926.00   35.69
   3 -12   0  908.97   35.07
   3 -12   1  158.94   15.07
   3 -12   1  147.26   14.17
   3 -12   2  177.83   16.33
   3 -12   2  170.92   15.43
  -3  12  -2  181.67   31.96
  -3  12  -3  809.55   66.98
   3 -12   3  765.14   34.51
   3 -12   3  776.56   33.19
  -3  12  -4  385.68   44.86
   3 -12   4  328.53   21.96
   3 -12   4  351.73   24.18
  -3  12  -5   -3.31    8.77
   3 -12   5   12.75    6.08
   3 -12   5    1.95    3.46
  -3  12  -6  225.54   30.81
   3 -11  -5  272.62   22.33
  -3  11   5  278.00   26.02
   3 -11  -5  290.08   22.24
   3 -11  -4 1037.35   42.50
  -3  11   4 1020.25   51.33
   3 -11  -4 1114.23   41.30
  -3  11   3  438.74   35.48
   3 -11  -3  451.35   24.94
   3 -11  -2  137.32   12.15
  -3  11   2  156.17   23.67
   3 -11  -2  135.14   13.18
  -3  11   1  996.74   63.02
   3 -11  -1  936.58   34.23
   3 -11  -1  875.16   31.82
   3 -11   0  881.58   32.80
   3 -11   0  892.74   32.81
   3 -11   1    2.97    3.29
   3 -11   1   10.43    4.35
  -3  11  -1    2.13    9.83
  -3  11  -2  737.63   62.05
   3 -11   2  679.20   28.73
   3 -11   2  675.13   30.03
   3 -11   3 1198.49   41.53
   3 -11   3 1148.78   38.53
   3 -11   4  167.91   15.92
   3 -11   4  171.99   14.99
  -3  11  -4  203.00   30.82
   3 -11   5  150.69   14.31
  -3  11  -5  194.47   28.11
   3 -11   5  179.56   17.27
  -3  11  -6  906.98   56.84
   3 -11   6  893.97   40.66
  -3  11  -6  863.83   36.13
   3 -11   7  235.45   21.93
  -3  11  -7  245.43   27.27
  -3  11  -7  243.27   19.74
  -3  11  -7  241.41   18.05
   3 -11   8   15.70    6.78
  -3  11  -8   32.13    8.31
  -3  11  -8   32.23    7.59
  -3  11  -9  314.35   23.57
   3 -11   9  318.76   30.69
  -3  10   8  555.80   32.56
   3 -10  -7   96.04   13.84
  -3  10   7  113.24   15.22
   3 -10  -7   87.50   13.52
  -3  10   6  309.03   25.24
   3 -10  -6  270.26   22.22
   3 -10  -6  288.45   22.63
  -3  10   5 1106.20   48.21
   3 -10  -5  946.28   40.04
  -3  10   5  917.70   45.29
   3 -10  -5 1034.61   39.68
  -3  10   4  602.27   37.61
   3 -10  -4  601.61   30.86
  -3  10   4  657.78   28.55
   3 -10  -4  654.73   29.62
  -3  10   3   43.93   11.08
  -3  10   3   46.55    7.59
   3 -10  -3   39.20    7.23
   3 -10  -2  550.18   23.16
  -3  10   2  620.73   26.96
   3 -10  -2  554.72   25.21
  -3  10   2  580.88   43.73
   3 -10  -1  978.55   31.69
   3 -10  -1  958.00   32.44
  -3  10   0  533.18   48.68
   3 -10   0  479.62   22.62
   3 -10   0  550.88   23.90
   3 -10   1   77.85    8.94
   3 -10   1   94.25   10.40
  -3  10  -1   85.77   20.88
  -3  10  -2 1201.64   77.65
   3 -10   2 1081.68   34.33
   3 -10   2 1118.04   36.86
  -3  10  -3  796.92   60.78
   3 -10   3  781.60   31.55
   3 -10   3  738.17   28.58
   3 -10   4    1.85    3.98
  -3  10  -4    2.63    3.20
   3 -10   4    1.99    3.01
  -3  10  -4    0.01    2.30
  -3  10  -4    7.01    6.72
  -3  10  -5  815.18   32.64
  -3  10  -5  922.18   58.33
  -3  10  -5  848.71   30.31
   3 -10   5  830.57   35.58
  -3  10  -6  991.90   55.48
   3 -10   6  920.86   49.90
   3 -10   6  960.12   40.45
  -3  10  -6 1032.51   35.29
  -3  10  -6 1023.56   37.53
  -3  10  -7    2.65    6.03
   3 -10   7    7.98    4.88
   3 -10   7   15.50    6.04
  -3  10  -7   19.32    5.87
  -3  10  -7   22.54    5.91
   3 -10   7   25.04    6.10
  -3  10  -8  244.64   19.67
  -3  10  -8  233.92   18.87
   3 -10   8  233.33   23.16
   3 -10   8  239.99   25.46
   3 -10   8  259.44   19.67
   3 -10   9  571.11   38.34
  -3  10  -9  552.65   31.14
   3 -10   9  528.74   30.33
   3 -10   9  613.56   40.93
  -3  10  -9  531.29   30.76
   3 -10  10  133.47   16.57
  -3   9   9 1023.61   42.69
   3  -9  -9 1068.64   54.50
  -3   9   8  264.43   21.97
   3  -9  -8  245.20   22.49
   3  -9  -8  257.24   24.77
  -3   9   7  111.37   14.81
   3  -9  -7   90.52   13.13
   3  -9  -7  102.70   13.95
   3  -9  -6 1384.66   48.93
  -3   9   6 1416.11   52.10
   3  -9  -6 1411.02   48.30
  -3   9   5 1366.62   52.91
  -3   9   5 1294.04   39.62
   3  -9  -5 1203.02   40.39
  -3   9   5 1105.49   46.96
   3  -9  -5 1149.35   42.62
  -3   9   4   33.43    9.06
   3  -9  -4   33.19    7.56
  -3   9   4   20.76    7.25
  -3   9   4   20.36    5.15
   3  -9  -4   16.27    4.43
  -3   9   3  700.49   42.44
  -3   9   3  780.27   28.35
   3  -9  -3  787.28   25.84
  -3   9   3  683.19   37.29
   3  -9  -3  755.32   28.49
   3  -9  -2  984.75   31.77
   3  -9  -2 1019.63   29.75
  -3   9   2 1087.54   33.20
  -3   9   2 1082.48   58.12
  -3   9   1  657.20   50.09
   3  -9  -1  622.96   23.46
   3  -9  -1  602.24   23.99
  -3   9   1  666.12   25.75
   3  -9   0   74.15    8.35
   3  -9   0   64.60    7.57
  -3   9  -1  936.75   68.46
   3  -9   1  899.35   29.03
   3  -9   1  940.60   30.74
   3  -9   2  972.66   30.39
  -3   9  -2 1005.10   68.69
   3  -9   2  990.49   33.01
  -3   9  -2 1042.60   28.71
  -3   9  -3    8.73    3.83
   3  -9   3   12.04    4.64
  -3   9  -3    6.75    3.00
  -3   9  -3   12.74    6.81
   3  -9   3    7.50    2.73
  -3   9  -4  225.34   14.28
   3  -9   4  217.57   13.12
  -3   9  -4  206.65   28.16
   3  -9   4  206.01   15.89
   3  -9   4  205.36   21.15
  -3   9  -4  206.32   14.85
  -3   9  -5  668.12   27.59
  -3   9  -5  663.12   46.08
   3  -9   5  547.42   36.87
   3  -9   5  663.68   24.57
   3  -9   5  608.86   29.28
  -3   9  -5  672.56   26.52
  -3   9  -6  134.26   19.06
  -3   9  -6  138.86   12.48
   3  -9   6  145.72   15.50
  -3   9  -6  137.80   13.19
   3  -9   6  134.77   18.12
   3  -9   6  146.65   12.42
   3  -9   7   58.04   12.49
  -3   9  -7   58.56   11.79
  -3   9  -7   50.47    8.49
   3  -9   7   56.79   10.74
   3  -9   7   53.41    8.26
  -3   9  -7   59.86    9.52
  -3   9  -8  570.86   29.31
   3  -9   8  623.77   39.28
   3  -9   8  528.22   34.12
  -3   9  -8  520.09   27.58
   3  -9   8  558.66   28.73
   3  -9   9  699.35   41.19
   3  -9   9  602.71   39.12
  -3   9  -9  636.91   32.82
   3  -9   9  636.52   33.44
  -3   9  -9  641.62   34.00
   3  -9  10    7.12    5.39
   3  -9  10    0.23    6.68
  -3   9 -10   14.94    7.27
  -3   9 -10    1.44    4.08
   3  -9  10    9.40    5.35
  -3   8  10  634.83   32.46
   3  -8 -10  727.67   40.20
   3  -8 -10  703.08   43.44
  -3   8   9  523.46   29.88
   3  -8  -9  532.79   33.35
   3  -8  -9  515.94   36.77
  -3   8   8   90.74   12.72
   3  -8  -8   72.55   12.24
   3  -8  -8   72.63   12.37
  -3   8   7  515.65   30.78
   3  -8  -7  461.62   28.76
   3  -8  -7  507.62   30.02
   3  -8  -6 1332.44   46.55
   3  -8  -6 1386.16   45.40
  -3   8   6 1332.25   48.25
   3  -8  -5  610.60   29.73
  -3   8   5  596.69   32.74
  -3   8   5  653.20   26.12
   3  -8  -5  629.55   27.22
  -3   8   5  688.98   37.09
   3  -8  -4  161.96   12.73
   3  -8  -4  166.90   14.81
  -3   8   4  149.77   17.39
  -3   8   4  162.44   12.61
   3  -8  -4  171.88   11.22
  -3   8   4  147.41   17.43
   3  -8  -3 1726.24   41.21
   3  -8  -3 1780.52   37.45
  -3   8   3 1717.89   65.14
  -3   8   3 1839.66   42.23
   3  -8  -2 1491.09   36.76
  -3   8   2 1494.05   37.43
   3  -8  -2 1561.34   34.71
  -3   8   2 1569.12   68.30
  -3   8   2 1404.24   50.15
  -3   8   1  101.44   12.11
  -3   8   1   85.63    8.74
  -3   8   1   72.91   16.29
   3  -8  -1   81.16    7.85
   3  -8  -1   76.06    7.82
   3  -8   0 1426.30   34.64
  -3   8   0 1477.39   78.27
   3  -8   0 1510.09   36.25
   3  -8   1 1256.95   34.02
   3  -8   1 1245.39   32.00
   3  -8   2   47.04    5.13
   3  -8   2   45.84    6.86
  -3   8  -2   40.67    5.48
   3  -8   2   48.54    6.23
  -3   8  -2   40.19    6.11
  -3   8  -2   42.36   13.57
   3  -8   2   54.54    9.89
  -3   8  -3  366.34   17.99
  -3   8  -3  387.74   39.10
   3  -8   3  375.17   15.45
   3  -8   3  355.75   18.96
  -3   8  -3  357.64   16.94
   3  -8   3  308.86   25.84
  -3   8  -4  719.60   49.41
   3  -8   4  631.83   26.67
  -3   8  -4  668.85   25.08
   3  -8   4  670.62   22.43
  -3   8  -4  651.83   24.22
  -3   8  -5  332.97   18.12
   3  -8   5  339.59   17.16
   3  -8   5  285.48   19.42
  -3   8  -5  337.61   30.44
   3  -8   5  345.39   29.27
  -3   8  -5  365.23   18.66
   3  -8   6   76.24   14.18
   3  -8   6   51.12    8.97
  -3   8  -6   67.19    8.65
   3  -8   6   54.08    7.61
  -3   8  -6   53.70    7.91
  -3   8  -6   58.46   11.05
   3  -8   7  361.05   25.42
  -3   8  -7  367.86   27.38
   3  -8   7  409.93   31.59
  -3   8  -7  362.59   21.07
  -3   8  -7  350.90   21.11
   3  -8   7  367.12   21.41
   3  -8   8  529.81   33.25
  -3   8  -8  541.10   28.45
   3  -8   8  573.49   29.59
   3  -8   8  611.73   37.50
  -3   8  -8  545.96   27.31
   3  -8   9    4.72    5.82
  -3   8  -9   11.42    5.26
  -3   8  -9   14.59    6.18
   3  -8   9    7.77    5.47
   3  -8   9   10.89    5.30
  -3   8 -10  278.02   23.15
   3  -8  10  273.26   24.66
   3  -8  10  213.46   24.42
  -3   8 -10  263.05   23.80
   3  -8  10  286.49   24.50
  -3   8 -11  707.39   39.80
   3  -8  11  633.25   43.59
  -3   8 -11  617.34   38.61
   3  -8  11  666.33   36.76
   3  -8  11  561.56   38.04
  -3   7  11  320.50   22.96
   3  -7 -11  350.60   27.56
   3  -7 -11  366.77   29.82
  -3   7  10  792.84   35.93
   3  -7 -10  866.36   42.76
   3  -7 -10  889.44   47.36
   3  -7  -9  192.74   19.47
  -3   7   9  181.15   17.08
   3  -7  -9  180.70   21.27
  -3   7   8   18.02    6.62
   3  -7  -8   15.89    5.39
   3  -7  -8    5.92    5.01
   3  -7  -7  832.92   37.85
  -3   7   7  929.76   40.74
   3  -7  -7  840.94   37.92
  -3   7   6 1232.75   47.59
   3  -7  -6 1144.04   41.69
  -3   7   6 1081.02   41.65
   3  -7  -6 1185.19   40.08
  -3   7   5  150.67   15.58
   3  -7  -5  128.54   11.55
   3  -7  -5  137.17   13.64
  -3   7   5  132.13   15.93
   3  -7  -4  669.96   28.05
  -3   7   4  657.64   35.40
   3  -7  -4  675.53   20.62
   3  -7  -4  642.84   23.88
  -3   7   4  646.02   35.40
  -3   7   3 1607.68   37.40
  -3   7   3 1732.07   63.16
   3  -7  -3 1624.32   32.94
   3  -7  -3 1600.57   36.77
  -3   7   2  838.92   36.87
  -3   7   2  887.85   49.16
  -3   7   2  848.39   25.89
   3  -7  -2  844.47   24.93
   3  -7  -2  867.75   23.40
  -3   7   1  319.82   19.47
  -3   7   1  308.90   31.68
   3  -7  -1  303.49   14.06
  -3   7   1  297.20   14.97
   3  -7  -1  289.59   14.09
  -3   7   0 1541.60   33.14
   3  -7   0 1519.09   25.76
  -3   7   0 1499.69   76.37
   3  -7   0 1541.23   34.19
   3  -7   0 1487.95   32.74
  -3   7   0 1547.85   35.35
   3  -7   1 1061.70   42.13
  -3   7  -1 1129.32   66.49
   3  -7   1 1293.54   31.94
   3  -7   1 1275.72   29.76
   3  -7   1 1277.72   24.47
  -3   7  -1 1307.51   28.43
   3  -7   2    5.15    3.29
   3  -7   2    6.03    2.60
  -3   7  -2    3.54    2.29
  -3   7  -2    3.51    2.24
  -3   7  -2    8.01    6.50
   3  -7   2    4.51    1.88
   3  -7   3  939.66   29.81
  -3   7  -3  969.49   27.23
   3  -7   3  957.04   24.40
  -3   7  -3  920.90   27.09
   3  -7   3  880.28   45.81
  -3   7  -4 1358.80   61.67
   3  -7   4 1423.79   59.88
  -3   7  -4 1167.15   31.69
   3  -7   4 1189.18   36.22
  -3   7  -4 1224.94   32.46
   3  -7   4 1203.61   30.10
  -3   7  -5   34.74    5.86
   3  -7   5   50.24   12.97
  -3   7  -5   37.77    9.44
  -3   7  -5   42.56    6.51
   3  -7   5   38.86    5.85
   3  -7   5   37.03    7.10
  -3   7  -6  821.78   28.71
  -3   7  -6  887.55   41.80
   3  -7   6  816.79   35.59
  -3   7  -6  818.01   29.71
   3  -7   6  844.38   30.41
   3  -7   7  978.48   42.03
  -3   7  -7  998.68   42.47
   3  -7   7 1017.95   37.44
  -3   7  -7  983.64   33.83
  -3   7  -7  984.61   35.62
  -3   7  -8  169.73   14.90
   3  -7   8  167.09   19.17
  -3   7  -8  180.97   16.69
   3  -7   8  169.15   16.96
   3  -7   8  217.25   22.18
  -3   7  -9  281.27   21.05
   3  -7   9  288.80   24.13
   3  -7   9  270.62   25.19
  -3   7  -9  273.87   22.55
   3  -7   9  278.96   23.76
   3  -7  10  585.61   39.13
   3  -7  10  581.75   36.81
  -3   7 -10  657.49   35.06
  -3   7 -10  559.00   34.65
   3  -7  10  698.83   36.83
   3  -7  11  222.37   25.16
  -3   7 -11  244.69   23.51
  -3   7 -11  181.65   21.54
   3  -7  11  210.39   23.75
   3  -7  11  232.38   21.45
   3  -6 -12  287.42   25.00
   3  -6 -12  291.32   24.34
  -3   6  11  882.96   37.58
   3  -6 -11  980.13   44.59
   3  -6 -11  957.83   46.51
   3  -6 -10  590.91   34.50
  -3   6  10  560.53   29.79
   3  -6 -10  618.54   29.18
   3  -6 -10  632.19   38.35
  -3   6   9   22.72    6.97
   3  -6  -9   19.34    7.23
   3  -6  -9   23.20    8.14
  -3   6   8 1115.09   43.45
   3  -6  -8 1062.71   43.64
   3  -6  -8 1062.48   47.45
  -3   6   7 1813.32   56.46
   3  -6  -7 1747.95   54.56
  -3   6   7 1651.92   46.54
   3  -6  -7 1702.50   54.48
  -3   6   6  239.33   20.55
   3  -6  -6  253.01   18.90
  -3   6   6  226.96   17.55
   3  -6  -6  231.29   17.01
   3  -6  -5  189.48   15.27
  -3   6   5  207.76   17.78
  -3   6   5  179.09   18.09
   3  -6  -5  205.56   10.80
   3  -6  -5  205.68   13.98
   3  -6  -4 1183.94   36.33
   3  -6  -4 1210.85   25.70
  -3   6   4 1227.69   46.98
   3  -6  -4 1202.61   31.06
  -3   6   3  496.51   28.00
  -3   6   3  545.57   34.15
   3  -6  -3  519.59   16.06
   3  -6  -3  533.12   18.90
  -3   6   2   87.05   11.27
   3  -6  -2   77.52    6.27
  -3   6   2   74.36    7.15
  -3   6   2   87.03   14.83
   3  -6  -2   72.17    6.57
  -3   6   1  995.58   29.41
  -3   6   1  961.84   54.08
  -3   6   1  936.87   25.27
   3  -6  -1  973.39   23.72
   3  -6  -1  922.83   23.63
   3  -6  -1  930.40   16.61
  -3   6   0 1483.81   27.81
   3  -6   0 1494.20   31.34
   3  -6   0 1451.94   29.91
  -3   6   0 1558.85   32.77
   3  -6   0 1504.28   23.62
  -3   6  -1  434.48   15.22
  -3   6  -1  451.79   10.55
  -3   6  -1  383.80   35.60
  -3   6  -1  416.90   15.51
   3  -6   1  412.30   16.50
   3  -6   1  421.29   12.52
  -3   6  -2  325.49   31.86
  -3   6  -2  329.74   14.48
   3  -6   2  298.37   26.83
   3  -6   2  350.56   12.50
   3  -6   2  330.76   15.67
  -3   6  -2  336.55   14.24
  -3   6  -3 1945.56   73.08
   3  -6   3 1895.04   27.21
   3  -6   3 1748.02   40.99
  -3   6  -3 1744.66   35.62
   3  -6   3 1817.52   68.72
   3  -6   3 1771.61   33.98
  -3   6  -3 1822.53   37.53
   3  -6   4 1020.48   33.36
  -3   6  -4 1084.41   29.95
   3  -6   4 1066.23   28.33
  -3   6  -4 1045.06   28.15
  -3   6  -5  209.76   12.89
  -3   6  -5  221.57   14.09
  -3   6  -5  222.87   20.21
   3  -6   5  206.70   16.29
   3  -6   5  225.53   23.83
   3  -6   5  228.54   14.48
  -3   6  -6 1401.44   48.58
  -3   6  -6 1327.50   38.16
  -3   6  -6 1318.67   36.06
   3  -6   6 1369.12   40.90
  -3   6  -7 1228.66   37.43
  -3   6  -7 1166.13   42.41
  -3   6  -7 1157.87   38.75
   3  -6   7 1174.14   42.36
   3  -6   8   13.38    7.63
  -3   6  -8    8.39    4.37
  -3   6  -8   17.80    6.18
   3  -6   8   -1.79    5.16
   3  -6   9  678.95   36.08
  -3   6  -9  699.48   33.39
  -3   6  -9  663.51   35.38
  -3   6 -10  966.06   46.52
   3  -6  10 1027.55   43.87
  -3   6 -10 1137.75   46.92
   3  -6  10  995.17   49.07
   3  -6  11  135.64   15.99
  -3   6 -11  167.79   19.56
   3  -6  11  139.60   18.53
  -3   6 -11  124.98   18.02
  -3   6 -12   84.56   15.88
   3  -6  12  133.74   18.17
   3  -6  12  112.79   15.21
  -3   6 -12  125.82   17.41
   3  -6  12  100.31   15.80
   3  -5 -13   18.31    6.91
   3  -5 -13   22.47    8.25
  -3   5  12  517.42   28.45
   3  -5 -12  544.82   31.74
   3  -5 -12  539.33   32.64
   3  -5 -12  607.57   33.06
   3  -5 -11 1495.79   53.45
  -3   5  11 1495.21   48.92
   3  -5 -11 1613.89   57.74
   3  -5 -10  322.46   19.86
   3  -5 -10  351.12   26.96
   3  -5 -10  319.28   24.31
  -3   5  10  306.03   21.79
  -3   5   9  544.02   29.51
   3  -5  -9  558.92   31.61
   3  -5  -9  509.91   32.46
  -3   5   8 2404.72   64.76
   3  -5  -8 2304.32   63.47
   3  -5  -8 2421.34   72.14
  -3   5   7  777.97   35.94
  -3   5   7  714.97   27.98
   3  -5  -7  751.46   34.24
   3  -5  -7  744.67   35.32
  -3   5   6   78.60   11.68
   3  -5  -6   76.51   10.50
   3  -5  -6   85.96   10.02
  -3   5   6   88.56   10.25
   3  -5  -5 1628.16   44.94
  -3   5   5 1632.52   48.70
   3  -5  -5 1701.97   30.20
   3  -5  -5 1713.95   40.86
   3  -5  -4 1622.18   27.33
   3  -5  -4 1618.70   41.43
   3  -5  -4 1622.26   34.97
  -3   5   3  119.00   13.16
  -3   5   3  124.75   15.58
   3  -5  -3  111.49    9.92
   3  -5  -3   98.20    6.20
   3  -5  -3  118.35    6.68
   3  -5  -3  112.78    7.93
   3  -5  -2 1009.89   23.11
  -3   5   2 1139.62   52.22
   3  -5  -2 1081.58   21.87
  -3   5   2 1077.11   32.61
  -3   5   1 1710.47   69.85
  -3   5   1 1606.61   32.08
  -3   5   1 1621.98   32.05
   3  -5  -1 1626.07   29.14
   3  -5  -1 1549.54   40.69
   3  -5  -1 1635.14   29.52
   3  -5  -1 1702.59   21.45
  -3   5   0  325.24   10.35
  -3   5   0  282.28   28.47
  -3   5   0  322.10   13.20
   3  -5   0  305.24    8.65
   3  -5   0  317.00   11.84
   3  -5   0  342.99   21.50
   3  -5   0  318.50   12.66
  -3   5   0  313.22   12.04
  -3   5  -1  624.59   41.99
  -3   5  -1  727.30   11.86
  -3   5  -1  664.01   18.80
   3  -5   1  774.94   36.23
   3  -5   1  672.38   20.34
  -3   5  -1  717.91   20.15
  -3   5  -1  680.41   18.13
   3  -5   1  675.03   15.24
  -3   5  -2 2365.41   40.09
  -3   5  -2 2499.96   81.26
   3  -5   2 2294.94   43.23
  -3   5  -2 2288.94   37.57
   3  -5   2 2368.81   36.10
   3  -5   2 2440.95   71.24
  -3   5  -3  785.17   21.43
   3  -5   3  772.20   15.93
  -3   5  -3  884.71   43.45
  -3   5  -3  809.97   23.39
   3  -5   3  848.11   43.96
   3  -5   3  818.97   22.41
   3  -5   4    3.88    5.16
  -3   5  -4   17.05    5.99
  -3   5  -4   11.15    4.41
   3  -5   4   17.53    2.25
  -3   5  -4   13.95    3.91
  -3   5  -4   18.63    3.65
   3  -5   4   29.17    5.03
   3  -5   5 1011.02   47.14
  -3   5  -5 1040.05   30.76
   3  -5   5 1152.09   21.04
  -3   5  -5 1083.25   41.18
  -3   5  -5 1062.37   28.95
  -3   5  -5 1067.07   38.59
   3  -5   5 1177.70   35.76
  -3   5  -6 1248.30   43.18
   3  -5   6 1317.18   52.69
   3  -5   6 1295.58   42.52
  -3   5  -6 1404.96   44.13
  -3   5  -6 1329.35   38.13
  -3   5  -6 1376.82   36.31
   3  -5   7  382.74   25.03
  -3   5  -7  443.73   22.31
  -3   5  -7  419.93   23.45
   3  -5   7  460.23   29.85
  -3   5  -7  466.07   23.88
  -3   5  -8  322.62   22.68
   3  -5   8  278.20   23.00
  -3   5  -8  337.97   21.71
   3  -5   8  319.75   24.70
  -3   5  -9 1411.37   49.55
  -3   5  -9 1225.17   49.33
   3  -5   9 1267.89   49.10
   3  -5   9 1401.93   56.14
  -3   5 -10  900.49   42.32
   3  -5  10  869.64   44.65
  -3   5 -10  788.00   42.54
   3  -5  10  827.96   38.94
  -3   5 -11   -2.45    5.72
   3  -5  11    2.32    4.45
  -3   5 -11    0.56    4.89
   3  -5  11   -4.77    8.11
   3  -5  12  566.50   35.40
  -3   5 -12  552.09   37.01
   3  -5  12  513.51   30.47
  -3   4  13  215.74   18.14
   3  -4 -13  243.21   20.13
   3  -4 -13  214.62   18.78
  -3   4  12  739.49   33.66
   3  -4 -12  870.54   37.24
   3  -4 -12  810.25   36.78
   3  -4 -12  850.23   38.56
   3  -4 -11  618.19   32.37
   3  -4 -11  625.23   33.03
  -3   4  11  557.95   29.48
   3  -4 -10   22.65    5.45
   3  -4 -10   28.95    8.04
  -3   4  10   18.50    5.54
   3  -4 -10   22.38    6.63
   3  -4  -9 1210.97   45.00
   3  -4  -9 1275.78   38.36
  -3   4   9 1305.74   46.38
   3  -4  -9 1254.40   47.96
  -3   4   8 1673.89   53.02
   3  -4  -8 1591.06   50.77
   3  -4  -8 1630.21   54.94
  -3   4   7  146.15   15.56
   3  -4  -7  150.75   14.81
   3  -4  -7  150.92   15.80
  -3   4   7  138.31   11.37
  -3   4   6  376.70   24.99
   3  -4  -6  431.03   24.32
  -3   4   6  418.01   20.83
   3  -4  -6  393.65   22.19
   3  -4  -5 2698.31   37.64
  -3   4   5 2741.50   60.91
   3  -4  -5 2747.08   53.01
   3  -4  -5 2679.73   58.96
  -3   4   4  973.19   38.71
  -3   4   4  832.25   34.05
   3  -4  -4  887.04   29.52
   3  -4  -4  977.01   25.25
   3  -4  -4  868.70   16.76
   3  -4  -3  422.57   14.20
  -3   4   3  484.91   30.01
  -3   4   3  470.50   22.02
   3  -4  -3  427.42   11.38
   3  -4  -3  429.34   18.72
  -3   4   2 4239.80   60.71
   3  -4  -2 4275.68   48.68
   3  -4  -2 4292.65   51.46
  -3   4   1 1472.73   26.22
   3  -4  -1 1508.04   25.77
  -3   4   1 1469.20   60.09
  -3   4   1 1540.29   28.63
   3  -4  -1 1532.65   25.50
   3  -4  -1 1552.01   17.77
  -3   4   0  604.02   16.89
  -3   4   0  643.93   13.09
   3  -4   0  584.56   16.56
  -3   4   0  579.49   14.68
  -3   4   0  572.11   16.08
  -3   4   0  574.05   37.17
   3  -4   0  637.13   11.82
  -3   4  -1 3424.93   57.79
  -3   4  -1 3283.70   32.33
  -3   4  -1 3303.11   45.95
  -3   4  -1 3514.23   93.15
  -3   4  -1 3348.72   46.52
   3  -4   1 3520.55   63.00
  -3   4  -1 3343.08   42.49
   3  -4   1 3422.47   40.94
   3  -4   2 1455.40   22.42
  -3   4  -2 1452.53   36.78
   3  -4   2 1360.37   27.40
   3  -4   2 1434.56   43.11
  -3   4  -2 1424.39   29.31
  -3   4  -2 1411.39   26.19
  -3   4  -3    8.34    3.61
   3  -4   3   12.94    1.94
   3  -4   3   12.02    4.27
  -3   4  -3   20.43    3.82
  -3   4  -3   11.90    5.06
  -3   4  -3   11.68    2.59
   3  -4   3   17.84    4.37
  -3   4  -4 1851.66   45.63
  -3   4  -4 1739.67   34.72
  -3   4  -4 1787.90   50.16
   3  -4   4 1802.01   27.21
  -3   4  -4 1912.44   53.28
  -3   4  -4 1808.82   37.96
   3  -4   4 1774.72   56.70
   3  -4   4 1813.17   43.87
  -3   4  -5 2535.60   56.62
  -3   4  -5 2768.31   68.69
   3  -4   5 2672.45   37.51
  -3   4  -5 2496.95   49.44
   3  -4   5 2459.30   58.63
  -3   4  -5 2642.01   59.34
  -3   4  -5 2555.66   47.28
  -3   4  -6  755.08   30.74
   3  -4   6  674.62   36.35
   3  -4   6  918.67   22.87
  -3   4  -6  770.95   28.98
  -3   4  -6  829.72   28.32
   3  -4   6  719.76   33.79
  -3   4  -6  842.64   30.28
  -3   4  -7  184.67   14.81
  -3   4  -7  187.54   16.07
  -3   4  -7  188.58   15.00
   3  -4   7  175.06   18.88
   3  -4   7  160.20   16.96
  -3   4  -8  969.58   40.54
  -3   4  -8 1057.14   39.81
   3  -4   8  934.80   41.34
   3  -4   8 1096.07   46.80
   3  -4   9  989.73   44.86
  -3   4  -9  839.71   41.35
  -3   4  -9  941.08   41.00
   3  -4   9  884.02   39.87
  -3   4 -10   95.15   14.01
  -3   4 -10   77.38   13.22
   3  -4  10  105.81   14.30
   3  -4  10   91.78   13.94
  -3   4 -11  262.76   25.09
   3  -4  11  338.92   24.74
  -3   4 -11  334.61   27.24
   3  -4  11  352.86   26.46
  -3   4 -12  584.69   35.84
  -3   4 -12  693.76   41.67
   3  -4  12  694.96   35.03
   3  -4  12  697.72   36.82
   3  -3 -14  101.76   12.68
   3  -3 -14   84.68   11.82
  -3   3  14   82.60   11.59
  -3   3  13  665.61   32.34
   3  -3 -13  711.91   32.78
   3  -3 -13  659.92   31.34
  -3   3  12  702.25   33.01
   3  -3 -12  671.05   31.54
   3  -3 -12  700.41   31.88
   3  -3 -11   33.25    7.38
  -3   3  11   36.75    7.66
   3  -3 -11   43.55    8.41
   3  -3 -11   41.30    8.61
   3  -3 -10  514.18   22.76
  -3   3  10  526.23   29.26
   3  -3 -10  513.66   27.74
  -3   3  10  537.03   24.68
   3  -3 -10  522.21   28.05
  -3   3   9 1040.67   41.52
   3  -3  -9  982.74   38.43
   3  -3  -9 1012.38   32.71
  -3   3   9 1118.48   35.22
   3  -3  -9 1000.08   39.15
   3  -3  -8  189.11   16.52
   3  -3  -8  197.32   14.37
  -3   3   8  207.09   18.52
  -3   3   8  234.23   15.50
   3  -3  -8  204.11   17.81
   3  -3  -7   36.05    6.53
  -3   3   7   14.05    3.69
  -3   3   7   45.92    5.98
   3  -3  -7   33.91    6.61
  -3   3   7   31.70    4.34
   3  -3  -7   28.25    6.48
  -3   3   7   35.73    5.99
  -3   3   6 1356.82   36.58
  -3   3   6 1413.20   26.07
   3  -3  -6 1457.94   44.81
  -3   3   6 1401.18   34.69
   3  -3  -6 1392.14   44.20
  -3   3   5 2069.99   55.51
   3  -3  -5 2153.64   53.32
   3  -3  -5 2118.97   29.64
  -3   3   5 2210.92   52.08
  -3   3   5 1978.21   37.67
   3  -3  -5 1944.86   45.41
  -3   3   5 2053.69   49.72
   3  -3  -4    7.68    2.23
  -3   3   4   14.41    4.71
  -3   3   4   12.96    4.77
  -3   3   4   16.35    2.37
   3  -3  -4   10.31    2.39
   3  -3  -4    8.09    1.28
   3  -3  -3 1824.28   29.93
  -3   3   3 1790.42   36.99
   3  -3  -3 1767.35   40.23
  -3   3   3 1850.36   55.38
  -3   3   3 1898.55   54.16
   3  -3  -3 1783.34   22.67
  -3   3   2 2063.73   33.81
   3  -3  -2 2151.41   40.00
   3  -3  -2 2142.99   27.31
  -3   3   2 2104.85   63.52
   3  -3  -2 2197.47   29.61
  -3   3   1  177.63   10.30
  -3   3   1  176.98    5.60
  -3   3   1  172.01   19.22
  -3   3   1  153.33   17.09
   3  -3  -1  180.48    6.81
  -3   3   1  170.49    7.19
   3  -3  -1  166.06    3.68
  -3   3   0 1535.74   26.84
  -3   3   0 1569.32   20.93
  -3   3   0 1629.17   33.49
  -3   3   0 1560.09   22.64
  -3   3   0 1564.73   32.75
  -3   3   0 1569.15   57.85
  -3   3   0 1464.36   53.98
  -3   3   0 1529.49   26.21
   3  -3   0 1599.90   21.71
  -3   3  -1 4052.81   72.88
  -3   3  -1 4382.34   92.83
  -3   3  -1 4187.23   50.82
  -3   3  -1 4085.33   91.59
  -3   3  -1 4460.95   62.81
  -3   3  -1 4608.54   48.87
   3  -3   1 4336.56   53.95
  -3   3  -1 4337.79   53.86
  -3   3  -2  925.52   36.83
  -3   3  -2  943.36   37.84
  -3   3  -2  908.47   21.99
  -3   3  -2  872.35   37.06
   3  -3   2  920.55   17.27
  -3   3  -2  862.88   18.85
  -3   3  -2  931.43   27.09
   3  -3   2  897.59   25.99
  -3   3  -3  299.43   15.67
   3  -3   3  280.71   17.59
  -3   3  -3  300.56   22.34
   3  -3   3  280.80    9.35
  -3   3  -3  274.86   12.47
  -3   3  -3  307.93   19.80
  -3   3  -3  267.84   11.32
   3  -3   3  281.06   17.00
  -3   3  -4 4382.90   69.98
  -3   3  -4 4610.89   95.54
  -3   3  -4 4226.32   74.19
   3  -3   4 4197.00   49.69
  -3   3  -4 3967.16   60.35
  -3   3  -4 4122.97   59.10
   3  -3   4 3966.75   78.93
  -3   3  -5 2162.30   49.21
   3  -3   5 2220.65   36.01
  -3   3  -5 2346.57   64.70
  -3   3  -5 2067.28   44.96
   3  -3   5 2495.92   43.67
  -3   3  -5 2184.50   45.05
   3  -3   5 1984.71   58.71
   3  -3   5 2202.54   61.17
  -3   3  -5 2191.96   48.31
  -3   3  -6   11.29    3.49
   3  -3   6    7.28    2.34
   3  -3   6    7.91    4.34
  -3   3  -6    7.80    4.70
  -3   3  -6   18.77    5.43
  -3   3  -6   23.33    5.70
  -3   3  -6   14.39    4.36
   3  -3   6   14.94    5.81
  -3   3  -7 1666.08   45.15
  -3   3  -7 1716.25   52.68
   3  -3   7 1859.26   43.47
  -3   3  -7 1665.31   49.64
  -3   3  -7 1715.99   48.89
   3  -3   7 1898.07   59.06
  -3   3  -8 1745.28   52.36
   3  -3   8 1490.28   52.87
  -3   3  -8 1512.79   51.95
  -3   3  -8 1539.52   50.64
   3  -3   8 1788.09   57.60
  -3   3  -9  338.49   26.37
  -3   3  -9  380.45   26.64
  -3   3  -9  408.87   24.60
   3  -3   9  339.80   24.47
   3  -3   9  398.27   26.58
  -3   3 -10   98.68   14.03
  -3   3 -10  101.98   15.62
   3  -3  10  128.02   15.74
   3  -3  10  129.63   15.44
  -3   3 -11  592.60   36.41
   3  -3  11  554.46   31.00
   3  -3  11  572.32   31.54
   3  -3  12  363.68   25.26
  -3   3 -12  297.81   24.40
   3  -3  12  330.08   24.38
  -3   2  14  615.40   31.34
   3  -2 -14  616.44   30.02
   3  -2 -14  599.28   29.99
  -3   2  13  824.23   36.06
   3  -2 -13  812.22   34.28
   3  -2 -13  783.70   33.37
  -3   2  12  350.54   23.61
   3  -2 -12  361.10   22.23
   3  -2 -12  325.48   20.78
  -3   2  11  236.52   19.65
   3  -2 -11  238.53   18.01
   3  -2 -11  236.87   17.42
  -3   2  11  216.91   16.96
   3  -2 -10 1234.01   40.20
   3  -2 -10 1192.80   40.93
  -3   2  10 1266.89   46.31
   3  -2 -10 1205.71   40.74
  -3   2  10 1282.42   41.11
   3  -2 -10 1258.79   34.94
  -3   2   9  499.45   22.63
   3  -2  -9  544.63   26.37
   3  -2  -9  527.02   27.18
  -3   2   9  549.54   30.40
   3  -2  -9  570.01   23.44
  -3   2   9  586.77   26.70
   3  -2  -9  569.19   27.72
  -3   2   8   81.05    8.42
  -3   2   8   74.95   10.85
   3  -2  -8   98.54   11.97
   3  -2  -8   89.47    9.85
  -3   2   8   92.77   10.16
  -3   2   8   80.56    7.51
   3  -2  -8   91.54   11.02
  -3   2   7 1454.84   33.82
   3  -2  -7 1396.59   44.76
   3  -2  -7 1504.71   41.60
  -3   2   7 1448.10   34.11
   3  -2  -7 1340.37   42.55
  -3   2   7 1221.30   44.61
  -3   2   7 1287.26   36.92
  -3   2   6 1344.74   44.69
  -3   2   6 1283.15   27.54
   3  -2  -6 1312.85   43.21
   3  -2  -6 1479.46   42.85
  -3   2   6 1430.34   36.16
  -3   2   6 1164.33   31.58
  -3   2   6 1360.90   33.53
   3  -2  -6 1248.88   40.18
  -3   2   5    8.73    3.21
   3  -2  -5    7.45    4.13
  -3   2   5    8.87    3.73
  -3   2   5   13.22    2.43
   3  -2  -5    3.79    2.66
  -3   2   5   15.31    4.63
   3  -2  -5    2.76    2.63
  -3   2   5    9.32    2.46
  -3   2   4 1423.77   33.49
  -3   2   4 1444.42   42.80
   3  -2  -4 1530.98   44.35
   3  -2  -4 1542.14   48.48
  -3   2   4 1503.23   42.60
  -3   2   4 1394.86   18.98
   3  -2  -4 1302.00   32.22
  -3   2   3 1896.55   33.59
  -3   2   3 1924.85   33.83
  -3   2   3 1928.40   54.11
  -3   2   3 1955.17   52.10
   3  -2  -3 1983.08   20.46
   3  -2  -3 1970.59   30.67
  -3   2   2  664.97   18.06
  -3   2   2  688.07   15.97
   3  -2  -2  702.87   13.17
  -3   2   2  674.44    9.96
  -3   2   2  649.14   31.50
  -3   2   1  119.79    7.67
   3  -2  -1  134.80    8.77
  -3   2   1  123.84    5.12
  -3   2   1  130.56    5.79
  -3   2   1  111.76   13.73
  -3   2   1  117.79   14.24
   3  -2  -1  126.68    4.53
  -3   2   1  123.00    4.40
  -3   2   0 2687.13   42.09
  -3   2   0 2623.82   29.87
  -3   2   0 2664.62   29.39
  -3   2   0 2816.56   42.41
  -3   2   0 2755.59   71.00
  -3   2   0 2627.43   34.13
  -3   2   0 2696.89   36.62
  -3   2   0 2496.57   64.69
   3  -2   1 1964.16   27.32
   3  -2   1 1908.93   37.18
  -3   2  -1 1945.02   55.30
  -3   2  -1 1988.27   31.38
  -3   2  -1 1866.72   27.56
  -3   2  -1 1900.04   26.22
  -3   2  -1 1943.72   52.31
  -3   2  -1 1979.72   36.97
  -3   2  -2  238.78   16.59
  -3   2  -2  221.92   16.76
  -3   2  -2  216.85    9.99
   3  -2   2  229.81    8.34
   3  -2   2  229.23    9.63
  -3   2  -2  208.65   16.01
  -3   2  -2  238.92   12.77
  -3   2  -2  224.47    9.09
  -3   2  -3 1486.27   30.17
  -3   2  -3 1564.32   48.32
  -3   2  -3 1724.07   42.54
   3  -2   3 1612.00   26.21
   3  -2   3 1578.17   22.59
  -3   2  -3 1485.85   40.41
  -3   2  -3 1682.77   37.77
  -3   2  -3 1548.63   30.62
   3  -2   4 4466.53   76.86
  -3   2  -4 4187.34   85.43
  -3   2  -4 4448.29   65.36
   3  -2   4 4498.75   54.40
  -3   2  -4 4602.44   70.33
  -3   2  -4 4158.97   69.27
   3  -2   4 4209.39   39.14
  -3   2  -4 4206.60   61.51
  -3   2  -4 4393.56   70.16
  -3   2  -5  832.67   36.34
  -3   2  -5  905.16   26.41
   3  -2   5  931.87   24.01
  -3   2  -5  857.42   27.98
  -3   2  -5  890.84   29.95
  -3   2  -5  860.44   29.54
   3  -2   5  867.54   34.85
  -3   2  -6  402.69   22.17
  -3   2  -6  393.05   24.44
   3  -2   6  385.15   25.13
   3  -2   6  415.98   18.38
  -3   2  -6  418.22   22.24
   3  -2   6  367.05   18.61
  -3   2  -6  377.16   20.56
  -3   2  -7 1744.36   52.09
   3  -2   7 1912.32   47.34
  -3   2  -7 1868.23   53.99
  -3   2  -7 1826.13   53.10
   3  -2   7 2050.37   45.52
  -3   2  -7 1915.58   47.90
  -3   2  -8 1279.96   43.82
   3  -2   8 1293.65   42.61
  -3   2  -8 1295.08   47.53
  -3   2  -8 1218.71   47.56
   3  -2   8 1172.96   46.89
  -3   2  -9   37.82    7.66
   3  -2   9   45.43    9.95
  -3   2  -9   41.41    9.55
   3  -2   9   32.99    7.22
   3  -2   9   48.52    9.29
  -3   2  -9   33.28    7.27
  -3   2 -10  741.26   32.82
  -3   2 -10  687.68   36.85
   3  -2  10  786.40   36.96
  -3   2 -10  855.65   41.43
   3  -2  10  821.64   36.28
  -3   2 -11  757.79   38.72
   3  -2  11  718.72   34.26
   3  -2  11  745.34   35.63
   3  -2  12   82.84   12.54
   3  -2  12  101.75   13.29
  -3   2 -12   56.75   10.07
  -3   2 -12   92.37   13.55
   3  -2  13   54.71   10.24
  -3   1  15   69.73   10.72
   3  -1 -15   79.47   11.00
   3  -1 -15   83.93   11.58
  -3   1  14  561.22   30.14
   3  -1 -14  509.43   27.02
   3  -1 -14  534.09   28.56
   3  -1 -13  574.64   28.98
   3  -1 -13  593.57   28.74
  -3   1  13  633.16   32.40
  -3   1  13  596.18   29.81
  -3   1  12   -6.70    6.92
   3  -1 -12    1.29    3.00
   3  -1 -12    7.01    3.90
  -3   1  12   -8.45    6.88
  -3   1  11 1047.78   42.72
   3  -1 -11  978.46   36.47
   3  -1 -11  967.59   36.44
  -3   1  11 1020.49   39.22
  -3   1  11  976.51   35.52
  -3   1  10 1437.08   50.31
   3  -1 -10 1395.24   44.04
   3  -1 -10 1470.85   37.04
   3  -1 -10 1384.05   43.11
  -3   1  10 1338.02   44.73
   3  -1  -9   14.76    4.01
  -3   1   9    2.33    6.43
  -3   1   9    9.64    3.05
   3  -1  -9   15.11    5.32
   3  -1  -9    5.96    2.82
  -3   1   9    8.59    3.95
  -3   1   8  535.19   29.46
  -3   1   8  587.08   25.05
   3  -1  -8  644.20   30.15
   3  -1  -8  679.90   26.60
  -3   1   8  637.56   20.54
   3  -1  -8  664.11   28.96
  -3   1   8  580.21   26.75
  -3   1   7 2041.81   44.65
  -3   1   7 1979.76   54.23
   3  -1  -7 2074.66   56.64
   3  -1  -7 2206.27   52.09
  -3   1   7 1966.71   40.86
   3  -1  -7 2116.35   52.76
  -3   1   7 1964.80   25.61
  -3   1   7 2095.23   46.07
   3  -1  -7 2068.73   53.39
  -3   1   6  541.72   18.90
   3  -1  -6  579.22   29.79
   3  -1  -6  629.35   28.46
  -3   1   6  585.58   22.97
   3  -1  -6  566.14   26.95
   3  -1  -6  586.32   26.52
  -3   1   6  548.08   24.20
  -3   1   6  556.10   18.39
  -3   1   5 2503.80   39.72
   3  -1  -5 2826.15   69.22
   3  -1  -5 2799.87   62.42
  -3   1   5 2941.50   57.35
  -3   1   5 2570.82   35.60
  -3   1   5 2630.38   48.04
   3  -1  -5 2766.47   61.06
  -3   1   4 3877.44   47.18
  -3   1   4 3714.29   46.67
  -3   1   4 3570.90   51.63
  -3   1   4 3698.49   39.32
   3  -1  -4 4030.08   83.28
   3  -1  -4 3838.42   71.93
  -3   1   4 4241.05   73.64
   3  -1  -4 3809.43   68.78
  -3   1   3 1551.97   26.46
  -3   1   3 1538.11   18.42
   3  -1  -3 1475.59   46.29
  -3   1   3 1542.49   44.56
  -3   1   3 1597.79   46.24
  -3   1   3 1515.19   26.58
  -3   1   2  128.50   13.24
  -3   1   2  122.74    3.94
   3  -1  -2  135.68   12.51
   3  -1  -2  126.02   10.26
  -3   1   2  118.22   12.50
  -3   1   2  116.38    5.95
   3  -1  -2  120.09    4.81
  -3   1   2  112.65    6.56
  -3   1   1 4439.49   46.89
  -3   1   1 4381.98   54.23
   3  -1  -1 4649.54   38.00
   3  -1  -1 4577.81   63.24
  -3   1   1 3953.64   82.12
  -3   1   1 3575.47   74.54
  -3   1   1 4627.65   37.92
  -3   1   1 4610.22   46.02
  -3   1   0 3654.17   43.67
   3  -1   0 3601.65   41.48
   3  -1   0 3647.07   49.06
  -3   1   0 3692.21   43.68
  -3   1   0 3647.05   39.46
  -3   1   0 3682.94   35.91
  -3   1   0 3780.89   50.85
  -3   1  -1  320.63   12.91
  -3   1  -1  318.27    9.82
   3  -1   1  325.34   10.02
  -3   1  -1  348.92   18.74
   3  -1   1  320.00   10.39
  -3   1  -1  351.33   21.26
  -3   1  -1  301.72    8.70
  -3   1  -1  324.16   10.99
  -3   1  -1  342.77   14.60
  -3   1  -2  659.96   17.03
  -3   1  -2  651.10   22.95
   3  -1   2  638.92   15.50
  -3   1  -2  625.26   25.76
   3  -1   2  656.68   12.96
  -3   1  -2  653.88   18.37
  -3   1  -2  654.21   21.93
  -3   1  -3 3225.04   64.68
   3  -1   3 3289.84   44.53
  -3   1  -3 3124.35   53.38
  -3   1  -3 3162.46   56.51
  -3   1  -3 3053.44   45.80
  -3   1  -3 3268.77   57.07
  -3   1  -4 1892.86   52.42
  -3   1  -4 1923.97   44.59
   3  -1   4 2008.52   35.79
  -3   1  -4 1811.79   38.53
  -3   1  -4 1929.60   37.80
   3  -1   4 2061.05   46.17
  -3   1  -4 1864.17   44.30
  -3   1  -5   10.53    3.73
   3  -1   5    6.04    3.35
   3  -1   5    7.67    2.35
  -3   1  -5    2.17    3.35
  -3   1  -5   12.37    1.93
  -3   1  -5    5.05    1.92
  -3   1  -5    8.30    3.67
  -3   1  -5    5.64    3.23
  -3   1  -6  976.30   38.95
   3  -1   6 1126.10   34.18
  -3   1  -6 1110.00   37.81
  -3   1  -6 1009.54   38.12
   3  -1   6 1020.96   39.54
  -3   1  -6 1116.38   35.96
   3  -1   7 1461.57   51.14
  -3   1  -7 1479.78   48.31
   3  -1   7 1628.75   46.87
  -3   1  -7 1611.43   51.14
  -3   1  -7 1629.38   52.10
   3  -1   7 1442.86   43.13
  -3   1  -7 1758.95   47.11
  -3   1  -8  600.00   30.16
   3  -1   8  609.49   30.62
   3  -1   8  524.23   31.10
  -3   1  -8  616.93   34.26
  -3   1  -8  651.04   33.29
   3  -1   8  657.33   28.10
  -3   1  -9  128.16   13.90
   3  -1   9  123.73   14.37
  -3   1  -9  119.59   14.98
   3  -1   9  141.24   16.11
  -3   1  -9  132.02   14.50
  -3   1 -10  869.18   36.20
   3  -1  10  877.56   36.44
  -3   1 -10  908.46   39.90
   3  -1  10  897.78   38.89
  -3   1 -10  809.30   38.36
  -3   1 -11  498.13   27.33
  -3   1 -11  443.66   27.29
  -3   1 -11  517.43   30.08
   3  -1  11  520.21   29.25
   3  -1  11  474.54   27.87
   3  -1  12    7.28    5.13
  -3   1 -12    1.46    4.07
  -3   1 -12    3.42    4.40
   3  -1  12    2.28    3.65
  -3   1 -13  243.40   19.50
  -3   0  15  309.39   22.75
   3   0 -15  331.75   22.03
   3   0 -15  328.32   23.31
   3   0 -15  252.25   20.92
   3   0 -14  417.07   24.43
  -3   0  14  448.35   27.76
   3   0 -14  410.46   25.85
  -3   0  14  439.60   26.89
  -3   0  13   71.48   11.33
   3   0 -13   84.55   10.96
   3   0 -13   72.87   10.69
  -3   0  13   71.85   10.70
  -3   0  13   70.70    9.69
  -3   0  12  210.79   19.28
   3   0 -12  230.69   18.98
   3   0 -12  223.67   17.88
  -3   0  12  230.36   19.85
  -3   0  12  214.33   17.14
  -3   0  11  769.15   37.14
   3   0 -11  720.30   32.17
   3   0 -11  750.98   34.26
  -3   0  11  728.06   34.90
  -3   0  11  685.24   31.04
  -3   0  10  175.35   16.95
   3   0 -10  199.70   17.37
   3   0 -10  186.05   16.20
   3   0 -10  213.06   13.87
  -3   0  10  156.41   15.80
  -3   0  10  156.02   14.52
  -3   0   9   41.59    8.03
  -3   0   9   41.54    7.58
   3   0  -9   37.70    7.76
   3   0  -9   48.30    7.20
   3   0  -9   47.32    8.17
  -3   0   9   40.16    8.28
   3   0  -8 1707.27   48.13
   3   0  -8 1961.43   56.50
  -3   0   8 1975.96   32.10
  -3   0   8 1789.30   37.58
  -3   0   8 1717.25   47.59
   3   0  -8 1876.73   46.95
  -3   0   8 1800.90   51.06
  -3   0   8 1904.66   47.59
  -3   0   7 1428.41   39.91
   3   0  -7 1590.12   49.46
  -3   0   7 1392.08   34.34
   3   0  -7 1523.69   42.50
  -3   0   7 1471.91   40.35
  -3   0   7 1478.04   22.54
  -3   0   7 1416.27   34.45
   3   0  -6    6.38    3.62
  -3   0   6    6.38    3.32
   3   0  -6    6.80    3.64
  -3   0   6   11.14    3.64
  -3   0   6    8.58    1.24
  -3   0   6    5.72    2.77
   3   0  -6   14.68    3.78
  -3   0   6    1.98    1.67
  -3   0   5 2373.53   30.67
  -3   0   5 2284.21   39.27
   3   0  -5 2212.58   52.92
   3   0  -5 2361.32   38.67
   3   0  -5 2216.27   49.42
  -3   0   5 2197.49   23.45
  -3   0   5 2230.65   32.73
  -3   0   5 2350.81   39.78
  -3   0   4 3667.44   49.03
   3   0  -4 3720.61   64.93
  -3   0   4 4199.69   73.59
   3   0  -4 3802.13   43.30
   3   0  -4 3570.12   62.15
  -3   0   4 4340.18   42.60
  -3   0   4 3634.26   48.92
  -3   0   4 3611.78   42.08
  -3   0   4 3808.68   43.90
  -3   0   3   82.60    6.21
   3   0  -3   68.71    6.87
  -3   0   3   81.83   10.53
  -3   0   3   70.25    3.89
   3   0  -3   70.11    7.12
   3   0  -3   67.58    2.63
  -3   0   3   73.60    5.13
  -3   0   3   72.46    5.21
  -3   0   3   68.44    4.68
  -3   0   2 3372.72   40.24
   3   0  -2 3446.84   45.44
  -3   0   2 3040.43   67.30
   3   0  -2 3272.28   49.32
  -3   0   2 3495.10   36.28
  -3   0   2 3041.87   43.29
  -3   0   1 9409.95   83.32
   3   0  -1 9342.04   83.92
   3   0  -1 8570.69   80.18
  -3   0   1 8415.93  125.64
   3   0  -1 8477.84   90.46
  -3   0   1 8615.26   75.73
  -3   0   1 9219.33   93.51
  -3   0   0 2416.24   33.17
   3   0   0 2352.59   31.50
   3   0   0 2484.12   22.84
  -3   0   0 2413.92   31.27
   3   0   0 2351.13   33.13
  -3   0   0 2378.64   40.18
  -3   0  -1  215.46    9.98
   3   0   1  201.64    8.50
  -3   0  -1  222.94   15.68
   3   0   1  232.29    7.98
  -3   0  -1  216.92   12.27
  -3   0  -1  230.36    8.63
  -3   0  -1  220.67   12.43
  -3   0  -2 3626.47   54.88
   3   0   2 3581.93   47.43
  -3   0  -2 3493.98   61.51
  -3   0  -2 3593.86   45.80
  -3   0  -2 3584.91   64.02
  -3   0  -2 3563.10   61.02
  -3   0  -3 4523.11   70.40
  -3   0  -3 3978.84   37.69
  -3   0  -3 4635.36   78.94
   3   0   3 4521.63   57.87
  -3   0  -3 4249.24   63.60
  -3   0  -3 4222.50   54.41
   3   0   3 4407.13   41.94
  -3   0  -3 4291.63   71.40
  -3   0  -4   38.05    6.34
  -3   0  -4   31.70    6.26
  -3   0  -4   36.97    2.98
   3   0   4   43.46    5.44
  -3   0  -4   36.50    4.90
  -3   0  -4   39.46    5.12
  -3   0  -4   51.72    8.84
  -3   0  -5  872.68   19.22
   3   0   5  983.07   30.51
  -3   0  -5  870.45   22.35
  -3   0  -5  993.24   30.33
   3   0   5 1011.64   33.77
  -3   0  -5 1012.47   38.13
  -3   0  -5  857.45   36.13
  -3   0  -5  964.05   34.38
  -3   0  -6 1134.42   43.18
   3   0   6 1244.81   39.56
  -3   0  -6 1337.97   41.55
   3   0   6 1271.79   42.51
  -3   0  -6 1202.17   42.47
  -3   0  -6 1344.89   41.27
  -3   0  -7  700.56   33.86
   3   0   7  768.79   34.08
  -3   0  -7  852.12   37.65
  -3   0  -7  769.00   33.64
   3   0   7  723.91   32.91
  -3   0  -7  832.51   31.95
   3   0   7  748.12   34.97
  -3   0  -8    3.10    3.58
   3   0   8   -1.27    5.61
   3   0   8    5.45    3.47
   3   0   8    7.09    4.87
  -3   0  -8    2.28    3.25
  -3   0  -8   -3.58    5.07
  -3   0  -9  642.84   32.36
  -3   0  -9  671.90   32.09
   3   0   9  637.56   32.62
  -3   0  -9  571.43   31.55
   3   0   9  651.97   33.05
   3   0   9  723.87   31.74
  -3   0 -10  605.78   30.93
  -3   0 -10  566.16   30.13
   3   0  10  634.94   28.73
   3   0  10  578.98   30.36
  -3   0 -10  530.69   29.18
   3   0  10  596.08   30.94
   3   0  11   40.89    8.77
  -3   0 -11   44.31    8.94
   3   0  11   53.55    9.87
  -3   0 -11   28.05    6.71
  -3   0 -11   34.17    7.87
  -3   0 -12  102.22   13.03
  -3   0 -12  105.31   12.48
  -3   0 -12  118.74   14.03
   3   0  12  111.54   14.28
   3   1 -15  383.90   26.66
   3   1 -15  369.76   23.99
   3   1 -15  316.37   23.89
  -3  -1  15  391.92   26.83
  -3  -1  15  395.24   26.75
   3   1 -14  169.69   17.67
  -3  -1  14  168.95   17.46
   3   1 -14  143.74   14.69
  -3  -1  14  164.74   17.32
  -3  -1  14  140.40   13.97
  -3  -1  13  207.49   19.39
   3   1 -13  179.83   16.67
   3   1 -13  201.32   19.40
  -3  -1  13  189.11   18.97
  -3  -1  13  174.38   15.75
  -3  -1  12  644.11   34.40
   3   1 -12  672.56   35.40
   3   1 -12  648.80   31.75
  -3  -1  12  659.53   35.33
  -3  -1  12  628.54   30.80
   3   1 -11  429.79   26.14
   3   1 -11  464.73   28.14
  -3  -1  11  413.30   27.24
  -3  -1  11  393.60   26.80
  -3  -1  11  425.34   25.75
  -3  -1  10   33.51    8.03
   3   1 -10   36.29    6.08
  -3  -1  10   36.27    7.80
  -3  -1  10   23.86    5.91
   3   1 -10   33.31    7.56
   3   1 -10   29.84    6.43
  -3  -1   9  572.81   28.03
   3   1  -9  587.18   30.42
  -3  -1   9  604.89   21.21
   3   1  -9  584.22   25.47
   3   1  -9  505.52   25.76
  -3  -1   9  616.23   28.87
  -3  -1   9  514.45   28.31
  -3  -1   8 1158.18   35.77
   3   1  -8 1062.09   33.81
   3   1  -8 1114.76   35.90
   3   1  -8 1079.94   39.69
  -3  -1   8 1197.30   33.64
  -3  -1   8 1210.49   26.46
  -3  -1   8 1149.07   34.34
  -3  -1   8 1104.45   39.71
  -3  -1   7  281.49   15.27
   3   1  -7  255.84   17.69
   3   1  -7  282.04   14.69
  -3  -1   7  251.88   17.48
   3   1  -7  269.66   16.63
  -3  -1   7  274.53   10.45
  -3  -1   7  269.63   13.83
  -3  -1   7  306.68   19.38
  -3  -1   6 1075.72   16.62
   3   1  -6 1037.39   32.23
   3   1  -6 1069.07   33.88
  -3  -1   6 1019.92   39.76
  -3  -1   6 1084.19   26.86
  -3  -1   6 1104.98   19.57
   3   1  -6 1079.08   24.75
  -3  -1   6 1035.45   24.25
  -3  -1   5 2621.67   44.38
  -3  -1   5 2607.74   40.65
   3   1  -5 2686.16   50.11
   3   1  -5 2546.30   34.53
  -3  -1   5 2588.28   71.45
   3   1  -5 2408.63   49.14
  -3  -1   5 2705.80   33.10
  -3  -1   5 2532.62   37.39
  -3  -1   5 2812.81   32.32
  -3  -1   4 1204.35   25.85
   3   1  -4 1244.87   28.00
  -3  -1   4 1204.38   21.56
  -3  -1   4 1271.11   53.18
  -3  -1   4 1165.96   23.56
   3   1  -4 1297.26   31.48
  -3  -1   4 1168.27   19.54
   3   1  -4 1107.14   17.30
  -3  -1   4 1222.53   21.05
  -3  -1   3   81.29    5.32
  -3  -1   3   96.64    5.88
   3   1  -3   82.87    5.83
  -3  -1   3   88.35    5.06
  -3  -1   3   93.35   15.71
   3   1  -3   90.48    7.44
   3   1  -3   86.75    3.27
  -3  -1   3   86.68    6.16
  -3  -1   3   75.50    5.49
   3   1  -2 4683.42   49.81
   3   1  -2 4600.78   58.10
  -3  -1   2 4508.28   59.95
   3   1  -2 4684.88   49.68
  -3  -1   2 4667.37   40.99
  -3  -1   2 4607.32   49.70
  -3  -1   2 4596.28   59.01
  -3  -1   1 4819.55   43.77
   3   1  -1 4861.01   51.33
  -3  -1   1 4947.22   65.45
  -3  -1   1 4656.87   50.90
  -3  -1   1 4796.42   50.99
  -3  -1   1 4581.76   67.91
   3   1  -1 4475.71   54.34
   3   1   0  950.37   19.62
  -3  -1   0  987.25   31.30
  -3  -1   0  934.54   19.65
   3   1   0  967.79   19.59
  -3  -1   0  949.82   12.22
  -3  -1   0  960.69   22.30
  -3  -1   0  992.90   30.62
  -3  -1  -1 3491.29   48.22
   3   1   1 3318.61   46.50
  -3  -1  -1 3590.97   41.80
  -3  -1  -1 3752.13   79.97
   3   1   1 3691.02   42.98
  -3  -1  -1 4014.40   68.11
  -3  -1  -1 3867.73   68.43
  -3  -1  -2 6061.26   75.45
  -3  -1  -2 6000.77   56.63
   3   1   2 6022.06   72.36
  -3  -1  -2 5985.68   90.90
  -3  -1  -2 6141.29   64.27
  -3  -1  -2 6215.10   95.32
   3   1   2 6201.92   61.88
  -3  -1  -3 1878.28   41.06
  -3  -1  -3 1895.78   29.60
  -3  -1  -3 1826.62   31.43
  -3  -1  -3 1826.20   39.30
   3   1   3 1910.89   38.55
   3   1   3 1951.66   26.86
  -3  -1  -3 1860.46   49.74
  -3  -1  -3 1995.46   54.10
  -3  -1  -4   91.91    9.86
  -3  -1  -4  110.96    8.23
  -3  -1  -4  104.09    7.08
  -3  -1  -4   87.63    7.20
   3   1   4   92.38    9.11
  -3  -1  -4  103.35   11.75
  -3  -1  -4  114.49   12.81
  -3  -1  -5 1887.56   52.99
  -3  -1  -5 2099.61   36.55
   3   1   5 1986.00   46.20
   3   1   5 1928.66   49.57
  -3  -1  -5 2047.20   44.69
  -3  -1  -5 1972.60   52.78
  -3  -1  -5 2088.77   55.58
  -3  -1  -6 1404.95   48.94
   3   1   6 1462.78   44.08
   3   1   6 1453.05   47.03
  -3  -1  -6 1541.05   43.95
  -3  -1  -6 1438.02   45.49
  -3  -1  -6 1428.15   44.51
  -3  -1  -6 1504.58   45.34
  -3  -1  -7   38.07    7.05
  -3  -1  -7   53.45    9.91
   3   1   7   49.24    9.03
   3   1   7   51.52    9.16
  -3  -1  -7   64.01   10.21
  -3  -1  -7   48.50    8.62
  -3  -1  -8  715.48   35.77
   3   1   8  654.27   34.84
   3   1   8  612.55   31.97
  -3  -1  -8  767.79   33.31
  -3  -1  -8  643.20   31.88
  -3  -1  -8  784.26   30.09
   3   1   8  718.93   35.24
  -3  -1  -9  851.96   39.05
  -3  -1  -9  828.20   34.95
   3   1   9  807.66   37.90
   3   1   9  856.25   37.30
  -3  -1  -9  746.99   33.99
   3   1   9  922.46   39.32
   3   1  10   57.32    9.88
  -3  -1 -10   51.14   10.19
   3   1  10   57.92   10.63
  -3  -1 -10   30.71    6.85
  -3  -1 -10   51.74    9.48
   3   1  10   54.92    9.68
  -3  -1 -11   98.18   13.11
   3   1  11  105.57   13.56
  -3  -1 -11  102.30   12.67
   3   1  11  111.99   13.00
   3   2 -15  393.24   29.04
   3   2 -15  388.62   24.95
   3   2 -15  391.94   25.31
  -3  -2  15  446.63   30.17
  -3  -2  15  362.45   22.99
  -3  -2  14    8.70    4.44
   3   2 -14   22.64    6.21
   3   2 -14   19.30    4.63
  -3  -2  14   12.95    5.56
  -3  -2  13  690.97   36.65
   3   2 -13  654.36   33.60
   3   2 -13  658.00   37.23
  -3  -2  13  642.21   36.97
  -3  -2  13  618.87   31.57
  -3  -2  12  839.04   40.13
   3   2 -12  775.93   37.56
   3   2 -12  784.57   38.78
  -3  -2  12  753.04   39.86
  -3  -2  12  766.39   36.30
  -3  -2  11   10.30    4.63
  -3  -2  11    0.17    6.46
   3   2 -11   12.55    5.36
   3   2 -11    8.98    3.98
  -3  -2  11   -0.06    4.26
  -3  -2  10  796.40   33.32
   3   2 -10  755.23   35.02
   3   2 -10  809.25   29.53
   3   2 -10  781.00   33.37
  -3  -2  10  854.06   37.19
  -3  -2   9 2457.09   54.65
   3   2  -9 2152.04   57.82
  -3  -2   9 1871.88   53.87
   3   2  -9 2380.88   53.50
  -3  -2   9 2522.49   48.08
   3   2  -9 2415.32   53.82
  -3  -2   9 2423.06   56.59
  -3  -2   9 2063.38   62.24
  -3  -2   8  528.96   21.70
   3   2  -8  509.14   25.36
   3   2  -8  485.75   22.74
   3   2  -8  548.65   21.43
  -3  -2   8  543.95   18.74
  -3  -2   8  533.48   22.18
  -3  -2   8  554.49   29.35
   3   2  -7  511.59   22.88
  -3  -2   7  522.29   18.74
   3   2  -7  475.00   21.49
  -3  -2   7  528.07   16.21
   3   2  -7  527.18   17.55
  -3  -2   7  517.92   18.72
  -3  -2   7  580.66   26.61
  -3  -2   6 2305.06   47.58
   3   2  -6 2207.16   45.21
  -3  -2   6 2144.60   38.06
   3   2  -6 2245.86   34.85
  -3  -2   6 2122.75   37.65
  -3  -2   6 2211.83   34.66
   3   2  -6 2071.89   45.75
  -3  -2   6 2426.90   27.66
  -3  -2   5 2790.17   47.72
   3   2  -5 2928.85   36.88
  -3  -2   5 2838.00   41.70
  -3  -2   5 2812.39   41.78
   3   2  -5 2916.48   51.71
   3   2  -5 2895.46   47.01
  -3  -2   5 2823.21   38.88
  -3  -2   4    6.08    2.48
  -3  -2   4    6.78    2.07
   3   2  -4    8.34    2.64
  -3  -2   4    8.31    2.50
   3   2  -4   10.37    2.64
  -3  -2   4   10.23    2.25
   3   2  -4    8.63    1.69
   3   2  -4    6.96    1.42
  -3  -2   4    4.99    1.69
  -3  -2   3 1467.82   35.32
   3   2  -3 1664.50   24.70
   3   2  -3 1635.59   27.27
   3   2  -3 1708.42   32.97
  -3  -2   3 1665.43   28.66
  -3  -2   3 1712.10   30.31
   3   2  -3 1536.13   21.30
  -3  -2   3 1698.07   27.60
   3   2  -2 5089.94   54.98
  -3  -2   2 4990.77   48.90
   3   2  -2 5058.21   62.53
  -3  -2   2 5002.41   56.18
  -3  -2   2 5026.54   62.42
  -3  -2   1 1389.75   20.64
  -3  -2   1 1311.97   23.88
   3   2  -1 1388.89   24.74
  -3  -2   1 1290.67   31.10
   3   2  -1 1365.59   26.73
  -3  -2   1 1288.85   23.89
  -3  -2   0   97.27    6.29
   3   2   0   98.81    6.59
  -3  -2   0  103.34    9.80
  -3  -2   0  108.21    6.23
   3   2   0  110.86    6.79
  -3  -2  -1 2390.22   38.50
  -3  -2  -1 2331.19   52.69
   3   2   1 2306.04   39.56
  -3  -2  -1 2480.73   30.39
  -3  -2  -1 2432.97   42.56
   3   2   1 2342.70   34.99
   3   2   2 3722.52   46.31
  -3  -2  -2 3492.45   65.61
  -3  -2  -2 3547.65   70.18
   3   2   2 3444.96   55.68
  -3  -2  -2 3565.78   42.10
  -3  -2  -2 3554.01   53.17
  -3  -2  -3  293.83   19.98
  -3  -2  -3  303.78   10.89
  -3  -2  -3  305.84   19.37
   3   2   3  314.90   16.91
  -3  -2  -3  304.63   15.53
  -3  -2  -3  310.93   11.13
  -3  -2  -4 1089.53   33.90
  -3  -2  -4 1054.04   38.96
  -3  -2  -4 1074.09   25.78
  -3  -2  -4  982.73   28.36
   3   2   4 1058.32   35.66
  -3  -2  -4 1148.46   26.60
  -3  -2  -5 2101.86   54.39
  -3  -2  -5 2101.40   40.49
   3   2   5 2137.23   57.29
  -3  -2  -5 2247.01   45.23
   3   2   5 2259.88   47.62
  -3  -2  -5 2102.91   56.91
  -3  -2  -5 2289.74   63.58
  -3  -2  -6 1158.75   44.34
   3   2   6 1272.77   39.63
   3   2   6 1101.24   44.02
  -3  -2  -6 1251.34   37.54
  -3  -2  -6 1192.00   42.24
  -3  -2  -6 1204.33   43.15
  -3  -2  -7  216.76   19.80
   3   2   7  167.27   18.00
   3   2   7  192.28   16.89
  -3  -2  -7  220.51   17.26
  -3  -2  -7  214.11   17.94
  -3  -2  -7  220.26   17.68
  -3  -2  -7  189.29   16.83
  -3  -2  -8  922.73   42.16
   3   2   8  888.20   37.61
   3   2   8  923.29   42.39
  -3  -2  -8  860.80   34.36
  -3  -2  -8 1049.43   39.80
  -3  -2  -8  951.86   35.14
   3   2   8  960.38   43.61
  -3  -2  -9  295.77   23.93
   3   2   9  351.61   25.16
  -3  -2  -9  326.30   22.47
   3   2   9  329.60   25.16
   3   2  10   66.93   11.12
  -3  -2 -10   62.60   11.21
  -3  -2 -10   65.08   10.48
   3   2  10   75.23   12.35
  -3  -2 -11  390.94   26.60
   3   2  11  388.21   25.80
  -3  -2 -11  373.59   24.49
   3   2  11  400.73   26.12
   3   2  12  294.18   21.48
  -3  -3  15   40.79   10.30
  -3  -3  15   46.29    8.54
   3   3 -15   64.69   10.70
   3   3 -15   47.33    9.01
   3   3 -15   58.06   11.67
   3   3 -14  323.66   24.52
   3   3 -14  295.47   21.99
   3   3 -14  331.41   28.07
  -3  -3  14  317.97   27.18
  -3  -3  14  285.20   21.70
  -3  -3  13  590.78   33.58
   3   3 -13  570.77   35.01
   3   3 -13  590.31   33.89
  -3  -3  13  563.80   36.39
  -3  -3  13  571.69   31.88
  -3  -3  12  276.04   21.47
   3   3 -12  290.41   23.23
   3   3 -12  270.27   22.22
  -3  -3  12  279.67   25.02
  -3  -3  12  256.41   22.01
  -3  -3  11  322.18   21.38
   3   3 -11  267.65   21.59
   3   3 -11  316.37   22.30
  -3  -3  11  294.10   23.85
  -3  -3  11  233.94   21.57
  -3  -3  10 2079.70   50.58
   3   3 -10 1950.44   50.53
   3   3 -10 1948.26   48.61
  -3  -3  10 1914.42   54.51
  -3  -3  10 1922.72   48.71
  -3  -3   9 1863.16   43.43
   3   3  -9 1735.30   49.47
   3   3  -9 1816.05   43.17
   3   3  -9 1775.70   46.18
  -3  -3   9 1833.94   47.44
  -3  -3   9 1717.57   58.57
  -3  -3   8    5.72    3.23
  -3  -3   8    6.23    5.01
   3   3  -8   17.15    4.44
   3   3  -8    8.53    4.62
   3   3  -8    3.34    2.55
  -3  -3   8    4.13    3.13
  -3  -3   8    1.44    1.97
  -3  -3   7 3116.04   49.02
   3   3  -7 3077.77   57.00
   3   3  -7 2846.76   56.81
  -3  -3   7 3144.63   49.31
   3   3  -7 3004.77   46.28
  -3  -3   7 2922.12   50.52
  -3  -3   7 3025.93   32.68
  -3  -3   7 3252.32   67.15
  -3  -3   6 5308.00   78.27
  -3  -3   6 5292.68   64.80
   3   3  -6 5161.23   71.28
   3   3  -6 5040.66   76.04
  -3  -3   6 5076.08   64.75
   3   3  -6 5412.12   61.92
  -3  -3   6 5222.93   67.65
  -3  -3   5  294.53   14.47
  -3  -3   5  318.23   12.14
   3   3  -5  293.04    9.15
   3   3  -5  306.65   13.44
  -3  -3   5  300.91   12.30
   3   3  -5  308.19   15.43
   3   3  -5  314.60   10.87
  -3  -3   5  314.55   13.13
  -3  -3   4 1092.96   26.03
   3   3  -4 1062.25   19.31
   3   3  -4 1076.57   23.93
  -3  -3   4 1062.07   24.07
   3   3  -4 1076.10   19.87
   3   3  -4 1082.08   28.34
  -3  -3   4 1085.56   23.90
   3   3  -3 4922.96   54.27
  -3  -3   3 4760.52   60.90
   3   3  -3 4826.33   52.13
   3   3  -3 4737.52   64.89
  -3  -3   3 4934.17   61.28
  -3  -3   3 4727.64   58.05
  -3  -3   2 1900.06   27.20
  -3  -3   2 1872.14   35.55
   3   3  -2 1950.02   31.14
  -3  -3   2 1867.26   31.40
  -3  -3   1    3.35    1.57
   3   3  -1    1.88    1.73
   3   3  -1    2.69    1.39
  -3  -3   1    0.98    2.00
  -3  -3   1    2.70    1.20
  -3  -3   0 2601.26   39.83
   3   3   0 2709.67   44.82
  -3  -3   0 2566.49   51.78
  -3  -3   0 2674.89   38.60
   3   3   0 2762.11   42.28
   3   3   1 2878.83   43.03
  -3  -3  -1 2722.03   42.85
   3   3   1 2770.46   49.62
  -3  -3  -1 2785.76   44.91
   3   3   2  343.30   13.37
  -3  -3  -2  320.52   14.22
  -3  -3  -2  305.74    8.93
   3   3   2  310.01   17.27
  -3  -3  -2  293.90   16.18
  -3  -3  -2  293.90   19.17
  -3  -3  -3  116.30    9.50
  -3  -3  -3  121.63   13.07
   3   3   3  110.07   11.35
  -3  -3  -3  125.84    6.55
  -3  -3  -3  123.22   12.55
  -3  -3  -4 1781.71   43.56
  -3  -3  -4 1796.08   34.65
   3   3   4 1718.16   51.53
  -3  -3  -4 1844.27   32.83
  -3  -3  -4 1854.44   56.01
  -3  -3  -5  925.31   34.50
  -3  -3  -5  892.37   26.93
   3   3   5  804.50   37.65
  -3  -3  -5  939.22   26.74
  -3  -3  -5  828.41   37.31
   3   3   5  949.42   29.06
   3   3   6    1.04    2.32
  -3  -3  -6   -3.85    4.32
   3   3   6   -0.82    6.15
  -3  -3  -6    5.30    4.61
  -3  -3  -7  616.63   34.29
   3   3   7  550.30   33.20
  -3  -3  -7  545.05   30.20
  -3  -3  -7  645.87   32.57
  -3  -3  -8  539.48   32.96
  -3  -3  -8  577.47   30.60
   3   3   8  529.97   31.79
   3   3   8  541.88   34.08
   3   3   9   64.59   11.94
  -3  -3  -9   45.95   10.37
  -3  -3  -9   58.71   10.54
   3   3   9   59.27   11.32
  -3  -3  -9   45.82    9.42
  -3  -3 -10  139.41   16.59
   3   3  10  127.23   15.73
  -3  -3 -10  128.87   14.81
   3   3  10  133.21   16.95
  -3  -3 -11  498.09   30.32
   3   3  11  436.74   27.54
   3   3  11  470.36   29.65
   3   4 -15  202.03   20.15
   3   4 -15  197.30   23.09
  -3  -4  15  158.27   19.97
  -3  -4  15  165.68   16.94
   3   4 -14  382.24   30.43
  -3  -4  14  359.19   30.54
   3   4 -14  359.47   27.66
   3   4 -14  368.89   24.65
  -3  -4  14  390.73   26.84
   3   4 -13  206.51   20.61
   3   4 -13  213.52   18.95
   3   4 -13  227.81   21.85
  -3  -4  13  213.83   23.31
  -3  -4  13  213.05   20.46
   3   4 -12    7.00    5.07
  -3  -4  12    4.08    3.58
  -3  -4  12    8.34    5.58
   3   4 -12   -2.57    5.94
  -3  -4  12    2.67    4.47
  -3  -4  11  683.85   28.95
   3   4 -11  589.07   31.94
   3   4 -11  681.64   31.18
  -3  -4  11  705.90   35.36
  -3  -4  10 1396.64   38.74
   3   4 -10 1337.69   45.25
  -3  -4  10 1614.21   46.91
   3   4 -10 1455.23   41.33
   3   4 -10 1352.51   41.22
  -3  -4  10 1366.19   44.81
  -3  -4  10 1165.83   50.52
   3   4  -9  216.22   16.56
  -3  -4   9  236.07   15.77
   3   4  -9  218.26   13.82
  -3  -4   9  219.22   13.50
   3   4  -9  193.46   15.19
  -3  -4   9  226.96   15.87
  -3  -4   9  185.67   19.42
  -3  -4   8 1016.84   27.07
   3   4  -8  989.64   32.64
   3   4  -8  981.94   27.09
  -3  -4   8 1045.52   30.85
   3   4  -8  939.65   32.79
  -3  -4   8  990.17   30.42
  -3  -4   8 1102.03   44.11
  -3  -4   7 2991.41   46.09
   3   4  -7 2994.77   34.11
   3   4  -7 2973.74   53.57
  -3  -4   7 2989.69   50.62
   3   4  -7 2936.63   45.56
  -3  -4   7 2892.46   50.45
  -3  -4   7 3021.61   63.76
  -3  -4   6 2371.11   49.39
   3   4  -6 2432.25   31.52
   3   4  -6 2292.83   49.54
  -3  -4   6 2296.03   42.66
   3   4  -6 2466.62   39.55
  -3  -4   6 2339.60   43.44
  -3  -4   5   58.84    6.63
   3   4  -5   68.88    4.75
  -3  -4   5   58.78    6.13
   3   4  -5   58.87    5.12
   3   4  -5   71.89    7.99
  -3  -4   5   56.31    5.97
  -3  -4   4 2334.88   41.34
   3   4  -4 2343.70   34.43
  -3  -4   4 2360.54   40.12
  -3  -4   4 2255.77   40.65
   3   4  -4 2361.66   35.14
  -3  -4   3 4502.06   59.10
   3   4  -3 4302.75   54.61
  -3  -4   3 4392.54   60.95
  -3  -4   3 4251.37   51.17
  -3  -4   3 4329.35   57.18
   3   4  -3 4441.51   64.77
   3   4  -2  514.37   17.10
  -3  -4   2  481.79   18.12
  -3  -4   2  486.91   14.08
  -3  -4   2  469.96   15.66
   3   4  -2  500.24   18.59
  -3  -4   1 1125.24   24.98
   3   4  -1 1195.55   29.73
  -3  -4   1 1165.51   31.18
  -3  -4   1 1148.71   23.45
  -3  -4   1 1104.03   25.33
   3   4  -1 1156.39   28.41
  -3  -4   0 3930.27   53.77
   3   4   0 4023.58   58.03
   3   4   0 3982.30   64.84
  -3  -4   0 3764.26   66.45
  -3  -4   0 3811.02   52.04
  -3  -4  -1  882.79   23.43
   3   4   1  936.44   24.97
   3   4   1  955.68   32.42
  -3  -4  -1  817.20   31.42
  -3  -4  -1  849.74   23.95
  -3  -4  -2  185.04   11.19
   3   4   2  194.74   15.85
  -3  -4  -2  190.93   16.15
  -3  -4  -2  192.39   12.93
  -3  -4  -3 1885.77   40.60
  -3  -4  -3 1882.24   53.79
   3   4   3 1831.41   54.83
  -3  -4  -3 1785.45   48.51
  -3  -4  -4  576.53   23.88
  -3  -4  -4  618.35   20.26
   3   4   4  534.71   31.06
  -3  -4  -4  598.67   30.84
  -3  -4  -4  553.04   30.18
   3   4   5   -0.76    5.47
  -3  -4  -5    5.14    2.95
  -3  -4  -5   11.57    3.20
  -3  -4  -5    6.97    3.68
  -3  -4  -6  556.02   29.52
   3   4   6  471.82   31.36
  -3  -4  -6  572.94   32.96
  -3  -4  -7  469.53   29.84
   3   4   7  488.47   31.18
  -3  -4  -7  518.42   31.65
  -3  -4  -8  108.73   15.14
   3   4   8   81.86   13.36
   3   4   8  101.21   14.72
  -3  -4  -8  110.61   14.81
   3   4   9   76.09   14.11
  -3  -4  -9   77.15   12.66
   3   4   9   80.40   13.03
  -3  -4  -9   94.47   13.93
  -3  -4 -10  508.25   30.22
  -3  -4 -10  487.02   31.45
   3   4  10  475.38   29.56
  -3  -4 -10  525.79   30.85
   3   4  10  494.27   32.87
   3   5 -15  387.59   32.63
   3   5 -14  288.02   22.15
   3   5 -14  302.77   26.95
  -3  -5  14  275.46   23.38
  -3  -5  14  294.29   29.14
  -3  -5  13   34.28    7.87
   3   5 -13   57.68   11.33
   3   5 -13   38.05    8.16
  -3  -5  13   42.95   11.19
   3   5 -12  453.59   27.95
   3   5 -12  542.13   30.25
  -3  -5  12  545.38   34.33
  -3  -5  12  401.46   30.01
   3   5 -11 1044.47   42.84
   3   5 -11 1142.72   39.52
  -3  -5  11 1125.57   44.38
  -3  -5  10  452.86   20.04
   3   5 -10  421.08   21.38
  -3  -5  10  473.83   26.04
  -3  -5  10  420.54   24.30
   3   5 -10  387.62   22.68
  -3  -5  10  357.16   28.41
  -3  -5   9  160.58   10.83
   3   5  -9  140.95   17.18
   3   5  -9  147.04   13.79
  -3  -5   9  161.27   13.87
   3   5  -9  131.08   10.77
  -3  -5   9  153.70   13.45
  -3  -5   9  150.61   18.05
  -3  -5   8 1029.90   26.31
  -3  -5   8  969.92   31.80
   3   5  -8  957.94   27.51
  -3  -5   8  930.12   30.22
   3   5  -8  889.01   33.34
  -3  -5   8 1017.22   41.38
   3   5  -7 1386.84   40.92
  -3  -5   7 1400.89   36.25
   3   5  -7 1472.55   32.69
  -3  -5   7 1408.72   35.64
  -3  -5   7 1418.45   42.64
  -3  -5   6  102.78    9.86
  -3  -5   6   95.62    8.68
   3   5  -6  109.11    8.03
  -3  -5   6   99.97    8.91
   3   5  -6  100.23   10.42
  -3  -5   5  403.53   17.66
  -3  -5   5  425.25   17.52
   3   5  -5  401.10   13.95
  -3  -5   5  397.53   17.07
   3   5  -5  412.41   15.24
   3   5  -5  390.69   19.67
  -3  -5   4 2253.38   41.78
   3   5  -4 2266.69   39.74
  -3  -5   4 2168.49   42.55
   3   5  -4 2187.43   36.59
  -3  -5   4 2259.30   41.24
  -3  -5   3 2532.99   42.04
   3   5  -3 2497.83   45.88
  -3  -5   3 2408.16   45.21
  -3  -5   3 2384.05   37.95
  -3  -5   3 2426.73   42.02
   3   5  -3 2506.56   49.49
   3   5  -2   16.14    3.87
  -3  -5   2   10.40    2.34
   3   5  -2   12.55    1.54
   3   5  -1 1996.51   41.68
  -3  -5   1 1913.61   35.85
  -3  -5   1 1955.19   37.19
  -3  -5   1 1922.60   34.76
   3   5  -1 1946.59   47.48
  -3  -5   1 2001.06   43.86
  -3  -5   0 1807.17   35.51
   3   5   0 1810.27   39.43
   3   5   0 1763.29   49.25
  -3  -5   0 1818.65   44.90
  -3  -5   0 1726.97   34.38
  -3  -5  -1   11.43    3.18
  -3  -5  -1   10.94    3.42
   3   5   1   15.29    4.19
  -3  -5  -1    7.69    2.43
  -3  -5  -2  411.62   17.47
  -3  -5  -2  404.13   24.74
   3   5   2  360.51   24.67
  -3  -5  -2  401.79   19.27
  -3  -5  -3 1582.86   37.95
   3   5   3 1432.15   53.64
  -3  -5  -3 1540.85   50.44
  -3  -5  -3 1554.21   44.86
  -3  -5  -4  219.51   14.88
  -3  -5  -4  243.67   13.27
  -3  -5  -4  256.23   21.01
   3   5   4  184.28   16.62
   3   5   4  193.48   20.35
  -3  -5  -4  220.01   18.72
  -3  -5  -5  295.85   19.05
   3   5   5  263.37   23.80
  -3  -5  -5  293.02   24.46
  -3  -5  -6 1043.31   40.37
   3   5   6  965.50   44.85
  -3  -5  -6 1071.05   48.40
  -3  -5  -7  254.02   21.71
   3   5   7  272.01   23.61
  -3  -5  -7  279.61   24.67
   3   5   8   36.61    9.22
  -3  -5  -8   44.29    9.94
   3   5   8   59.84   11.60
  -3  -5  -8   55.37   11.66
  -3  -5  -9  613.90   36.22
  -3  -5  -9  680.93   37.37
   3   5   9  707.13   36.97
   3   5   9  630.84   39.00
  -3  -5 -10  353.53   26.96
   3   6 -14  192.09   18.41
   3   6 -14  219.15   23.00
  -3  -6  14  226.16   25.89
  -3  -6  14  208.35   21.57
   3   6 -13   20.50    6.54
   3   6 -13   30.17    8.54
  -3  -6  13   20.37    6.34
  -3  -6  13   25.68   10.09
   3   6 -12 1114.64   45.74
   3   6 -12 1335.93   46.73
  -3  -6  12 1360.83   53.49
  -3  -6  12 1029.91   50.94
  -3  -6  11  874.00   38.60
   3   6 -11  869.29   34.06
   3   6 -11  742.18   37.25
  -3  -6  11 1020.08   44.11
  -3  -6  11  681.27   41.34
   3   6 -10    3.85    3.71
  -3  -6  10    3.34    4.99
   3   6 -10    9.03    3.85
   3   6 -10   -0.83    3.95
  -3  -6  10    2.16    2.99
   3   6 -10    5.78    3.86
  -3  -6  10    5.77    3.85
   3   6  -9  784.55   37.71
   3   6  -9  983.41   47.37
  -3  -6   9  885.74   34.56
   3   6  -9  855.46   28.78
  -3  -6   9  834.15   31.80
   3   6  -9  755.87   33.56
  -3  -6   9  913.32   43.48
  -3  -6   8 1362.93   38.40
   3   6  -8 1363.67   47.00
  -3  -6   8 1395.31   41.04
   3   6  -8 1387.24   35.29
   3   6  -8 1326.04   43.59
  -3  -6   8 1436.84   48.10
  -3  -6   7  731.72   30.03
   3   6  -7  731.34   31.62
  -3  -6   7  734.43   27.37
   3   6  -7  749.83   24.23
  -3  -6   7  731.43   26.48
   3   6  -7  661.11   29.73
  -3  -6   6  147.67   12.05
  -3  -6   6  146.53   11.70
   3   6  -6  178.85   13.63
   3   6  -6  148.31   10.32
  -3  -6   6  163.40   11.79
   3   6  -6  143.38   13.53
  -3  -6   5 1127.53   30.74
  -3  -6   5 1182.28   31.31
   3   6  -5 1185.34   30.57
  -3  -6   5 1101.20   31.58
   3   6  -5 1132.38   28.16
   3   6  -5 1106.44   36.32
   3   6  -4 1586.79   42.72
  -3  -6   4 1627.07   35.47
  -3  -6   4 1515.26   31.63
   3   6  -4 1688.52   45.04
   3   6  -4 1618.81   29.33
  -3  -6   4 1499.33   37.14
  -3  -6   4 1581.12   35.53
  -3  -6   3   20.70    4.19
  -3  -6   3   30.57    4.44
   3   6  -3   25.09    5.72
   3   6  -3   25.38    5.18
  -3  -6   3   20.61    3.61
  -3  -6   3   19.14    3.36
  -3  -6   2  528.16   18.48
   3   6  -2  520.18   23.22
  -3  -6   2  539.21   22.09
   3   6  -2  567.85   29.20
  -3  -6   2  552.46   19.64
  -3  -6   2  532.80   18.20
   3   6  -1 1332.88   36.29
  -3  -6   1 1322.25   37.08
   3   6  -1 1309.22   47.38
  -3  -6   1 1294.57   30.33
  -3  -6   1 1283.89   29.88
  -3  -6   1 1246.19   30.80
  -3  -6   0  352.29   15.89
  -3  -6   0  372.91   16.24
   3   6   0  360.49   25.81
  -3  -6   0  365.12   20.19
  -3  -6  -1   19.10    5.22
  -3  -6  -1   29.01    5.03
   3   6   1   23.04    6.71
  -3  -6  -1   26.42    4.67
  -3  -6  -2  688.19   23.88
   3   6   2  647.66   33.94
   3   6   2  580.25   35.57
  -3  -6  -2  626.43   31.72
  -3  -6  -2  678.81   26.13
  -3  -6  -3  751.45   26.39
   3   6   3  660.45   34.53
   3   6   3  674.23   38.84
  -3  -6  -3  793.07   37.19
  -3  -6  -3  738.10   30.81
   3   6   4    4.14    3.80
  -3  -6  -4    0.80    2.90
   3   6   4   -1.47    4.08
  -3  -6  -4    4.56    4.82
  -3  -6  -4   -5.60    6.21
  -3  -6  -5  677.75   29.59
   3   6   5  620.12   35.93
  -3  -6  -5  743.32   38.13
  -3  -6  -5  668.71   37.75
  -3  -6  -6  767.85   34.89
   3   6   6  781.38   40.19
  -3  -6  -6  842.17   45.22
  -3  -6  -7   30.64    6.98
   3   6   7   45.83   11.10
  -3  -6  -7   34.08    9.75
  -3  -6  -8  312.78   25.58
   3   6   8  323.94   25.86
   3   6   8  298.81   28.37
  -3  -6  -8  359.44   29.21
  -3  -6  -9  626.29   36.83
  -3  -6  -9  797.24   42.65
   3   7 -14   13.28    5.04
   3   7 -14   17.90    7.72
   3   7 -13  520.18   32.15
   3   7 -13  450.87   29.18
  -3  -7  13  421.19   33.55
   3   7 -12  871.72   41.68
   3   7 -12 1093.44   42.15
  -3  -7  12 1083.12   47.11
  -3  -7  12  814.07   47.31
   3   7 -11  491.68   25.70
   3   7 -11  453.74   29.36
  -3  -7  11  550.37   33.71
  -3  -7  11  469.82   28.54
  -3  -7  11  434.88   33.83
   3   7 -10   93.18   12.43
   3   7 -10   89.42   13.21
   3   7 -10  112.45   15.13
  -3  -7  10  100.95   13.53
   3   7 -10  106.62   11.17
  -3  -7  10   94.43   12.10
  -3  -7  10  108.36   16.81
   3   7  -9 1345.37   48.09
  -3  -7   9 1398.93   42.74
   3   7  -9 1331.98   45.87
  -3  -7   9 1511.59   47.80
   3   7  -9 1429.26   39.37
  -3  -7   9 1525.75   55.11
  -3  -7   8 1711.68   51.81
   3   7  -8 1571.22   51.32
   3   7  -8 1742.08   42.32
   3   7  -8 1657.10   47.58
  -3  -7   8 1723.85   48.10
  -3  -7   8 1669.88   44.52
  -3  -7   7   16.06    5.28
   3   7  -7   19.94    6.42
  -3  -7   7   14.99    4.32
   3   7  -7   18.76    5.26
   3   7  -7   12.01    3.53
   3   7  -7    6.03    5.99
  -3  -7   7   15.47    4.17
  -3  -7   6 1519.29   39.84
   3   7  -6 1421.67   45.79
   3   7  -6 1531.72   74.86
  -3  -7   6 1556.99   39.51
  -3  -7   6 1480.97   40.54
   3   7  -6 1614.42   37.80
   3   7  -5 1523.50   45.38
  -3  -7   5 1483.85   36.86
   3   7  -5 1486.83   77.70
  -3  -7   5 1415.43   38.58
  -3  -7   5 1549.25   38.11
  -3  -7   5 1456.91   33.81
   3   7  -4  348.59   20.91
  -3  -7   4  395.11   17.14
   3   7  -4  338.94   36.33
  -3  -7   4  368.04   18.98
  -3  -7   4  372.79   16.21
  -3  -7   4  391.47   18.00
   3   7  -3  515.03   24.59
  -3  -7   3  522.58   18.51
   3   7  -3  439.72   42.37
   3   7  -3  489.08   33.03
  -3  -7   3  480.09   21.82
  -3  -7   3  516.40   19.07
  -3  -7   3  494.55   19.76
  -3  -7   2 1273.06   31.32
  -3  -7   2 1235.64   36.70
   3   7  -2 1355.24   64.83
   3   7  -2 1199.58   53.70
  -3  -7   2 1266.27   31.30
  -3  -7   2 1244.18   32.04
  -3  -7   1  422.70   17.71
   3   7  -1  423.35   34.14
   3   7  -1  374.99   30.38
  -3  -7   1  431.31   22.14
  -3  -7   1  426.61   18.07
  -3  -7   1  413.82   18.31
  -3  -7   0   19.55    3.93
   3   7   0   24.39    7.21
  -3  -7   0   17.50    4.48
   3   7   0   28.52    9.10
  -3  -7   0   20.35    4.11
  -3  -7  -1  397.46   24.39
   3   7   1  431.78   31.51
   3   7   1  372.94   29.42
  -3  -7  -1  419.49   19.79
  -3  -7  -1  451.01   19.55
  -3  -7  -2 1139.50   32.53
  -3  -7  -2 1102.33   35.37
   3   7   2 1075.96   49.83
  -3  -7  -2 1111.55   43.94
   3   7   3   32.23    8.52
  -3  -7  -3   43.92    6.58
   3   7   3   49.58   11.55
  -3  -7  -3   44.66    8.97
  -3  -7  -3   46.70    7.96
  -3  -7  -4  342.26   25.91
  -3  -7  -4  305.41   18.64
   3   7   4  285.69   25.00
  -3  -7  -4  279.75   22.13
  -3  -7  -5  649.45   29.69
   3   7   5  640.83   36.57
  -3  -7  -5  674.50   37.04
  -3  -7  -5  598.12   36.59
  -3  -7  -6   87.67   11.52
   3   7   6   96.72   14.95
  -3  -7  -6  101.27   15.85
   3   7   7   18.00    6.66
  -3  -7  -7   26.37    7.07
   3   7   7   32.05    9.35
  -3  -7  -7   32.38   10.00
  -3  -7  -8  563.65   34.59
  -3  -7  -8  612.20   39.88
   3   8 -13  587.15   35.68
   3   8 -13  714.76   37.80
  -3  -8  13  761.19   43.39
  -3  -8  13  621.83   42.79
  -3  -8  12  535.07   33.30
   3   8 -12  449.01   30.10
  -3  -8  12  599.89   39.44
   3   8 -12  507.81   29.38
  -3  -8  12  428.24   35.43
   3   8 -11    9.05    4.64
  -3  -8  11   11.94    7.34
   3   8 -11    8.50    5.05
  -3  -8  11   16.66    7.33
  -3  -8  11   16.68    6.99
  -3  -8  10  595.36   37.65
   3   8 -10  478.93   29.51
   3   8 -10  581.80   27.26
   3   8 -10  659.21   39.52
  -3  -8  10  610.85   34.05
   3   8 -10  524.92   28.82
  -3  -8  10  574.85   29.33
  -3  -8   9 1222.46   48.38
   3   8  -9 1208.50   38.34
  -3  -8   9 1215.12   44.88
  -3  -8   9 1161.99   39.99
  -3  -8   8  407.49   24.45
   3   8  -8  374.35   25.77
  -3  -8   8  402.24   23.86
   3   8  -8  388.98   20.51
  -3  -8   8  398.62   21.86
  -3  -8   7  238.84   17.10
   3   8  -7  212.04   18.93
   3   8  -7  290.68   33.38
  -3  -8   7  226.00   17.03
   3   8  -7  227.80   15.18
  -3  -8   7  242.42   16.52
   3   8  -6 1094.85   42.10
  -3  -8   6 1084.13   33.81
   3   8  -6 1084.87   66.75
  -3  -8   6 1062.47   36.32
  -3  -8   6 1146.70   35.14
  -3  -8   5 1093.04   31.95
   3   8  -5  981.93   38.82
   3   8  -5 1143.88   71.75
  -3  -8   5  982.50   34.04
  -3  -8   5  985.49   29.59
  -3  -8   5 1042.91   32.34
  -3  -8   4   21.73    4.39
  -3  -8   4   19.45    4.48
  -3  -8   4   14.36    3.56
  -3  -8   4   19.95    4.44
   3   8  -4   19.05   10.58
   3   8  -3 1052.75   68.24
  -3  -8   3 1028.99   34.56
  -3  -8   3 1047.90   30.89
  -3  -8   3 1076.92   30.46
  -3  -8   2 1281.85   33.09
   3   8  -2 1372.93   69.89
  -3  -8   2 1300.99   40.02
  -3  -8   2 1268.30   33.96
  -3  -8   2 1263.11   34.26
  -3  -8   1   23.09    4.74
   3   8  -1   35.49   10.05
  -3  -8   1   25.99    5.53
  -3  -8   1   17.85    3.89
  -3  -8   1   22.02    4.57
   3   8  -1   16.30    6.81
  -3  -8   0  811.46   26.93
   3   8   0  708.21   43.98
  -3  -8   0  786.13   33.64
   3   8   0  774.73   43.39
  -3  -8   0  735.36   26.89
  -3  -8  -1 1502.03   38.47
   3   8   1 1352.26   57.07
   3   8   1 1437.77   58.44
  -3  -8  -1 1370.24   39.32
  -3  -8  -1 1360.54   48.34
  -3  -8  -2  237.31   15.23
   3   8   2  202.75   21.16
   3   8   2  242.66   23.76
  -3  -8  -2  205.27   19.54
  -3  -8  -2  220.33   16.39
   3   8   3  574.69   35.49
   3   8   3  518.85   31.66
  -3  -8  -3  527.80   33.13
  -3  -8  -3  572.95   29.66
  -3  -8  -3  573.80   25.18
  -3  -8  -4  765.05   31.25
  -3  -8  -4  747.59   40.43
   3   8   4  779.31   41.32
  -3  -8  -4  759.73   37.97
  -3  -8  -5  309.47   21.19
  -3  -8  -5  322.86   26.47
   3   8   5  341.62   27.71
  -3  -8  -5  322.23   27.06
   3   8   6    2.54    5.20
  -3  -8  -6    1.75    7.20
  -3  -9  12   13.00    7.54
   3   9 -12   19.78    6.98
  -3  -9  12   25.34   10.50
  -3  -9  12   17.55    8.04
  -3  -9  11  340.76   31.15
  -3  -9  11  285.38   26.23
   3   9 -11  292.97   21.54
  -3  -9  11  301.30   23.43
  -3  -9  10  784.66   42.31
   3   9 -10  779.55   33.33
  -3  -9  10  755.93   34.92
  -3  -9  10  749.15   39.10
   3   9 -10  767.74   45.25
  -3  -9   9  279.85   22.75
   3   9  -9  290.57   29.38
  -3  -9   9  271.17   21.92
   3   9  -9  261.60   18.61
  -3  -9   9  261.25   19.38
  -3  -9   8   -0.13    4.20
  -3  -9   8   -0.22    4.11
  -3  -9   8    1.14    3.28
   3   9  -8    9.09    7.25
   3   9  -8    5.40    4.10
  -3  -9   7  495.99   24.84
   3   9  -7  528.59   45.74
  -3  -9   7  459.42   25.57
  -3  -9   7  453.96   22.19
  -3  -9   7  502.49   24.73
  -3  -9   6  397.65   20.27
   3   9  -6  411.98   42.50
  -3  -9   6  395.74   23.25
  -3  -9   6  435.41   21.78
  -3  -9   6  448.58   22.61
  -3  -9   5  169.15   12.57
  -3  -9   5  158.23   12.61
   3   9  -5  181.77   29.09
  -3  -9   5  141.91   13.68
  -3  -9   5  164.92   13.43
  -3  -9   4  275.18   16.36
   3   9  -4  276.95   34.58
  -3  -9   4  269.72   18.48
  -3  -9   4  259.89   16.33
  -3  -9   3  917.96   30.30
  -3  -9   3  927.77   29.27
  -3  -9   3  942.96   35.24
  -3  -9   3  942.03   30.94
  -3  -9   2  219.57   14.61
   3   9  -2  214.47   28.54
  -3  -9   2  235.91   17.78
  -3  -9   2  232.91   14.41
  -3  -9   2  226.80   15.01
  -3  -9   1  162.86   12.24
  -3  -9   1  144.29   14.60
  -3  -9   1  162.25   12.92
   3   9  -1  148.62   21.84
   3   9  -1  143.90   19.60
  -3  -9   1  166.04   13.11
  -3  -9   0  952.23   30.76
   3   9   0  956.01   48.97
   3   9   0  836.58   48.37
  -3  -9   0  889.30   31.94
  -3  -9   0  913.77   38.98
  -3  -9  -1  795.36   28.92
  -3  -9  -1  672.89   28.95
   3   9   1  675.94   41.72
   3   9   1  801.13   44.02
  -3  -9  -1  735.72   37.17
  -3  -9  -2   57.43    7.79
   3   9   2   53.66   11.02
  -3  -9  -2   50.48   10.38
   3   9   2   58.65   12.93
  -3  -9  -2   54.24    8.75
  -3  -9  -3  774.95   30.53
  -3  -9  -3  752.39   41.25
   3   9   3  818.66   42.71
   3   9   3  705.35   38.70
  -3  -9  -3  772.46   36.19
  -3  -9  -4  929.13   46.61
   3   9   4  964.00   45.36
  -3  -9  -4  859.33   42.14
   3   9   5   51.10   11.00
  -3  -9  -5   28.81    8.65
  -3  -9  -5   38.40    9.86
  -3 -10  12   61.50   14.40
  -3 -10  11  567.97   39.21
  -3 -10  11  603.49   39.06
   3  10 -11  531.08   30.33
  -3 -10  10  387.22   29.09
   3  10 -10  370.67   33.25
  -3 -10  10  381.89   28.98
   3  10 -10  374.45   24.28
  -3 -10  10  362.99   24.80
   3  10  -9    2.88    3.39
   3  10  -9    4.22    4.94
  -3 -10   9   -0.30    4.15
  -3 -10   9   -0.89    5.15
  -3 -10   9    3.67    4.24
  -3 -10   8  390.54   22.40
   3  10  -8  453.02   41.96
  -3 -10   8  398.42   26.32
  -3 -10   8  419.07   24.54
  -3 -10   8  403.13   24.38
  -3 -10   7  631.69   28.42
  -3 -10   7  656.12   29.47
  -3 -10   7  592.06   30.86
  -3 -10   7  587.51   26.85
   3  10  -6  187.18   29.20
  -3 -10   6  155.57   15.35
  -3 -10   6  167.48   14.10
  -3 -10   6  181.00   15.04
   3  10  -5  156.84   27.07
  -3 -10   5  169.76   15.77
  -3 -10   5  174.98   14.16
  -3 -10   5  190.30   14.78
   3  10  -4  468.93   46.06
  -3 -10   4  401.53   24.23
  -3 -10   4  445.89   21.38
  -3 -10   4  428.57   21.90
  -3 -10   4  461.82   22.66
  -3 -10   3  122.29   10.92
  -3 -10   3  121.23   13.26
   3  10  -3  140.58   24.08
  -3 -10   3  116.37   11.47
  -3 -10   3  125.86   11.73
   3  10  -2   15.98    9.73
  -3 -10   2    9.05    3.62
  -3 -10   2   11.37    4.67
  -3 -10   2   13.67    4.02
  -3 -10   2    5.65    3.23
  -3 -10   1  424.24   20.92
  -3 -10   1  420.08   26.71
  -3 -10   1  415.88   22.27
   3  10  -1  368.06   34.42
  -3 -10   0  449.75   22.06
  -3 -10   0  435.57   28.16
   3  10   0  467.46   36.65
  -3 -10   0  421.11   23.10
   3  10   1   81.54   14.83
   3  10   1   70.83   13.56
  -3 -10  -1   74.97   12.28
  -3 -10  -1   80.50   10.75
   3  10   2  276.13   25.93
  -3 -10  -2  295.08   25.85
   3  10   2  306.01   26.08
  -3 -10  -2  302.74   21.90
  -3 -10  -3  565.92   36.94
   3  10   3  562.09   34.69
  -3 -10  -3  555.29   32.55
   3  10   4  306.04   25.36
  -3 -10  -4  332.34   28.71
  -3 -11  10  132.78   17.28
   3  11 -10  172.22   24.44
  -3 -11   9   60.33   11.79
  -3 -11   9   81.05   11.89
   3  11  -9   89.45   18.99
  -3 -11   9   69.19   10.40
  -3 -11   9   65.13   10.54
  -3 -11   8  749.43   37.80
  -3 -11   8  747.55   33.11
  -3 -11   8  796.22   34.97
  -3 -11   7  287.03   22.53
   3  11  -7  324.25   38.18
  -3 -11   7  326.99   21.20
  -3 -11   7  321.18   21.52
   3  11  -6   62.11   17.80
  -3 -11   6   56.37   10.05
  -3 -11   6   51.45    8.55
  -3 -11   6   59.51    9.15
  -3 -11   5  683.47   28.09
   3  11  -5  686.08   57.05
  -3 -11   5  648.54   33.04
  -3 -11   5  666.86   29.64
  -3 -11   5  706.15   30.20
  -3 -11   4  510.77   23.81
  -3 -11   4  507.35   28.98
  -3 -11   4  486.42   25.04
   3  11  -4  492.65   47.56
  -3 -11   4  512.00   25.38
   3  11  -3    9.53    7.57
  -3 -11   3    6.90    3.31
  -3 -11   3    1.64    4.48
  -3 -11   3   -1.89    4.22
  -3 -11   3    5.22    3.67
   3  11  -2  339.52   35.50
  -3 -11   2  310.37   23.57
  -3 -11   2  296.15   19.69
  -3 -11   2  305.76   19.29
   3  11  -1  512.38   41.40
  -3 -11   1  543.72   32.56
  -3 -11   1  514.86   26.60
   3  11   0  123.86   19.87
  -3 -11   0  122.67   13.41
  -3 -11   0  129.17   16.36
   3  11   1  130.24   19.19
  -3 -11  -1  145.76   18.13
  -3 -11  -1  134.31   14.61
   3  11   2  469.19   35.72
  -3 -12   6  259.02   19.92
  -3 -12   5  543.12   28.23
  -3 -12   5  551.94   27.93
  -3 -12   4  155.18   14.95
  -3 -12   4  166.62   15.10
  -3 -12   3   32.45    7.04
  -3 -12   3   54.61    8.99
  -4  12   3   32.99   11.10
   4 -12  -3   22.22    6.24
  -4  12   2  674.34   51.49
   4 -12  -2  647.73   30.48
  -4  12   1  522.54   48.62
   4 -12  -1  513.15   26.77
  -4  12   0   12.74    9.67
   4 -12   0   16.32    5.30
   4 -12   0    6.71    3.17
   4 -12   1  335.07   21.74
   4 -12   1  286.48   20.04
  -4  12  -2  540.77   55.44
   4 -12   2  518.59   26.85
   4 -12   2  493.11   27.30
  -4  12  -3  100.14   24.32
   4 -12   3  117.45   13.83
   4 -12   3  107.73   12.54
  -4  12  -4  147.82   27.80
   4 -12   4  151.07   16.16
   4 -12   4  139.37   14.86
   4 -12   5  253.53   20.03
   4 -11  -5  652.20   35.58
  -4  11   5  610.46   38.98
   4 -11  -5  715.83   34.01
   4 -11  -4  102.39   14.04
   4 -11  -4  105.19   12.45
  -4  11   4   94.76   15.89
   4 -11  -3  367.07   25.31
  -4  11   3  440.22   37.21
  -4  11   3  425.37   24.74
   4 -11  -3  367.71   21.87
  -4  11   2  967.09   61.12
   4 -11  -2  890.18   33.51
   4 -11  -1  503.28   24.59
  -4  11   1  561.91   50.50
   4 -11  -1  485.13   23.26
  -4  11   0   44.95   16.71
   4 -11   0   58.59    8.41
   4 -11   0   38.02    6.88
   4 -11   1  859.80   32.25
   4 -11   1  839.62   32.94
  -4  11  -2  532.14   54.07
   4 -11   2  482.69   24.21
   4 -11   2  458.97   24.96
  -4  11  -3   19.84   10.64
   4 -11   3   18.99    5.92
   4 -11   3   15.40    4.19
  -4  11  -4  636.05   54.63
   4 -11   4  593.13   30.49
   4 -11   4  558.09   27.24
  -4  11  -5  578.56   47.70
  -4  11  -5  520.52   25.90
   4 -11   5  533.82   30.72
   4 -11   5  492.47   25.92
  -4  11  -5  502.38   27.38
  -4  11  -6   19.93    7.79
   4 -11   6   22.62    6.61
  -4  11  -6   21.60    5.98
  -4  11  -6   20.33    5.60
  -4  11  -7  269.33   20.50
  -4  11  -7  257.30   20.95
  -4  11  -7  240.08   26.59
  -4  11  -8  467.03   28.56
   4 -11   8  501.96   38.80
  -4  10   8   -1.59    5.59
   4 -10  -7  242.59   22.40
   4 -10  -7  275.23   23.24
  -4  10   6  792.35   41.83
  -4  10   6  717.11   39.43
   4 -10  -6  767.39   36.08
   4 -10  -6  746.28   37.97
   4 -10  -5  134.97   15.71
  -4  10   5  115.30   16.54
  -4  10   5  130.69   13.33
   4 -10  -5  135.06   13.76
   4 -10  -4  110.21   13.88
  -4  10   4  100.73   16.27
  -4  10   4  114.22   12.54
   4 -10  -4  100.36   11.06
   4 -10  -3  606.71   30.72
  -4  10   3  590.38   42.49
  -4  10   3  634.47   28.20
   4 -10  -3  576.63   25.83
  -4  10   2  517.02   43.81
   4 -10  -2  469.91   21.01
  -4  10   2  520.16   25.16
   4 -10  -2  431.53   21.78
  -4  10   1   26.99   12.83
   4 -10  -1   33.86    6.00
   4 -10  -1   29.60    5.52
  -4  10   0  581.63   55.30
   4 -10   0  502.60   22.96
   4 -10   0  543.99   23.97
  -4  10  -1  788.25   66.96
   4 -10   1  743.31   29.20
   4 -10   1  685.65   26.99
  -4  10  -2  243.55   35.72
   4 -10   2  256.47   16.63
   4 -10   2  254.84   17.56
   4 -10   3  246.47   16.56
  -4  10  -3  236.02   33.79
   4 -10   3  249.34   18.30
  -4  10  -3  264.83   16.26
  -4  10  -4  865.57   32.98
  -4  10  -4  854.26   60.20
   4 -10   4  809.61   34.44
  -4  10  -4  881.22   31.95
   4 -10   4  834.62   31.17
  -4  10  -5  435.06   38.90
   4 -10   5  432.95   26.16
  -4  10  -5  436.44   23.28
  -4  10  -5  432.88   23.91
   4 -10   6  113.57   17.97
  -4  10  -6  119.72   13.04
  -4  10  -6   95.27   16.75
   4 -10   6   88.06   12.57
  -4  10  -6  106.26   12.54
  -4  10  -7  714.04   43.89
   4 -10   7  795.53   41.36
  -4  10  -7  774.95   34.49
   4 -10   7  825.14   47.76
  -4  10  -7  809.58   35.13
  -4  10  -8  633.90   32.74
   4 -10   8  650.41   41.65
   4 -10   8  588.98   37.90
  -4  10  -8  611.11   31.91
   4 -10   9    5.83    5.62
  -4   9   9   97.58   13.82
   4  -9  -9   98.27   15.98
  -4   9   8  127.04   16.29
   4  -9  -8  112.63   15.58
   4  -9  -8   96.67   14.40
  -4   9   7 1231.00   51.70
  -4   9   7 1216.51   43.39
   4  -9  -7 1115.49   45.75
  -4   9   6  394.94   29.29
   4  -9  -6  357.19   25.29
  -4   9   6  360.85   26.85
  -4   9   6  401.96   23.47
   4  -9  -6  371.79   23.56
  -4   9   5   37.74    8.55
   4  -9  -5   57.26    9.96
  -4   9   5   59.81   11.52
  -4   9   5   72.83    9.79
   4  -9  -5   53.21    8.29
  -4   9   4  592.61   34.81
  -4   9   4  589.35   38.18
   4  -9  -4  541.51   28.93
   4  -9  -4  581.23   25.43
  -4   9   4  626.09   27.14
  -4   9   3  395.58   34.09
  -4   9   3  389.62   20.68
   4  -9  -3  379.54   19.53
  -4   9   2   13.85    7.45
   4  -9  -2   10.01    3.16
   4  -9  -2    7.70    3.40
  -4   9   2   14.98    4.66
   4  -9  -1  318.75   17.11
  -4   9   1  338.11   37.85
  -4   9   1  359.44   19.66
   4  -9  -1  341.95   17.29
  -4   9   0 1007.33   69.85
   4  -9   0  981.89   30.31
   4  -9   0 1000.57   31.12
  -4   9  -1  159.58   28.69
   4  -9   1  151.25   12.44
   4  -9   1  142.21   11.43
  -4   9  -2   59.47   16.63
   4  -9   2   68.82    8.80
  -4   9  -2   67.69    7.82
   4  -9   2   71.28    8.23
   4  -9   3  688.51   28.58
  -4   9  -3  702.48   27.04
  -4   9  -3  736.05   27.01
   4  -9   3  702.64   26.37
   4  -9   4  517.85   37.14
  -4   9  -4  575.73   25.16
  -4   9  -4  622.78   48.42
   4  -9   4  551.20   27.24
  -4   9  -4  546.08   24.56
   4  -9   5   10.29    7.02
  -4   9  -5   10.38    6.67
   4  -9   5   11.32    4.73
  -4   9  -5    4.40    3.44
  -4   9  -5   10.65    4.15
  -4   9  -6  409.01   32.85
   4  -9   6  390.66   26.58
  -4   9  -6  431.39   23.75
  -4   9  -6  420.91   23.10
   4  -9   6  495.70   36.89
  -4   9  -7  699.76   31.67
  -4   9  -7  664.56   39.74
   4  -9   7  701.78   37.56
  -4   9  -7  724.74   31.72
   4  -9   7  688.21   29.85
  -4   9  -8  331.04   22.60
   4  -9   8  315.91   22.24
   4  -9   8  311.74   27.36
  -4   9  -8  329.05   23.15
   4  -9   8  380.21   30.82
  -4   9  -9  138.52   16.83
   4  -9   9  130.10   19.24
   4  -9   9  139.61   18.63
  -4   9  -9  123.84   14.81
   4  -9   9  135.63   16.67
   4  -9  10  601.68   36.92
  -4   8  10  556.16   31.77
   4  -8 -10  617.69   37.58
   4  -8 -10  613.66   40.11
  -4   8   9   -0.48    4.90
   4  -8  -9    4.29    4.72
   4  -8  -9   -0.54    7.19
  -4   8   8  401.49   28.43
   4  -8  -8  428.65   29.48
   4  -8  -8  412.19   29.56
  -4   8   7  994.73   45.60
   4  -8  -7  947.41   42.47
   4  -8  -7  907.02   39.76
  -4   8   6   49.08    9.25
  -4   8   6   68.20   11.02
   4  -8  -6   71.84   11.18
   4  -8  -6   66.23    9.44
  -4   8   5  279.41   24.48
   4  -8  -5  295.42   21.28
  -4   8   5  294.84   24.59
  -4   8   5  323.06   18.86
   4  -8  -5  327.41   19.05
  -4   8   4  942.89   43.43
   4  -8  -4  948.74   36.58
  -4   8   4  988.74   48.47
  -4   8   4  962.97   31.93
   4  -8  -4  950.42   30.59
  -4   8   3  481.92   28.52
  -4   8   3  467.73   36.28
  -4   8   3  438.19   20.79
   4  -8  -3  447.98   17.47
   4  -8  -3  424.78   19.29
  -4   8   2  121.88   20.51
   4  -8  -2  124.83    9.52
  -4   8   2  121.40   10.80
   4  -8  -2  114.57    9.56
  -4   8   1 1972.94   88.36
   4  -8  -1 1859.19   39.44
  -4   8   1 1888.47   43.88
   4  -8  -1 1818.32   39.60
  -4   8   0  408.37   43.32
   4  -8   0  421.38   18.71
  -4   8   0  440.03   20.43
   4  -8   0  404.12   17.66
   4  -8   1   99.93    8.83
  -4   8  -1  105.65   22.98
   4  -8   1  100.61    9.49
  -4   8  -2 1263.83   73.45
  -4   8  -2 1241.38   33.04
   4  -8   2 1224.86   35.09
  -4   8  -2 1256.41   33.44
   4  -8   2 1227.50   32.20
  -4   8  -3  974.16   61.28
  -4   8  -3  939.49   29.58
   4  -8   3  907.20   49.38
   4  -8   3  879.94   31.52
  -4   8  -3  899.41   29.05
   4  -8   4   83.15   16.05
  -4   8  -4   70.38   15.14
   4  -8   4   57.67    8.79
  -4   8  -4   61.37    8.16
  -4   8  -4   64.27    8.08
   4  -8   4   68.67    7.30
  -4   8  -5  308.48   28.80
   4  -8   5  292.45   20.81
  -4   8  -5  291.77   17.94
  -4   8  -5  278.67   16.90
   4  -8   5  358.09   31.70
   4  -8   5  274.90   15.69
   4  -8   6  663.49   34.18
  -4   8  -6  699.74   28.44
  -4   8  -6  741.67   41.53
   4  -8   6  700.34   28.16
  -4   8  -6  682.99   29.07
   4  -8   7  389.73   28.44
  -4   8  -7  445.28   30.41
  -4   8  -7  421.64   24.51
  -4   8  -7  453.15   24.05
   4  -8   7  442.28   24.78
   4  -8   8    8.03    7.14
  -4   8  -8   -3.11    4.69
   4  -8   8    0.55    5.22
  -4   8  -8    7.40    5.36
   4  -8   8    5.82    4.68
  -4   8  -9  587.54   31.55
  -4   8  -9  586.43   34.15
   4  -8   9  485.70   36.03
   4  -8   9  598.58   36.37
   4  -8   9  571.10   34.29
   4  -8  10  539.07   39.53
  -4   8 -10  579.50   34.20
  -4   8 -10  558.72   35.91
   4  -8  10  504.32   34.92
   4  -8  10  536.09   33.52
  -4   7  11  441.16   27.95
   4  -7 -11  506.46   33.83
   4  -7 -11  531.86   35.83
   4  -7 -10   39.06    7.70
  -4   7  10   32.71    7.90
   4  -7 -10   46.38   10.71
   4  -7 -10   38.61    9.87
  -4   7   9  125.17   15.63
   4  -7  -9  145.20   17.67
   4  -7  -9  119.91   16.99
  -4   7   8  823.72   40.20
   4  -7  -8  785.11   39.57
   4  -7  -8  795.73   40.60
  -4   7   7  532.19   32.55
   4  -7  -7  505.93   30.42
  -4   7   7  499.10   27.75
   4  -7  -7  532.87   29.69
  -4   7   6    6.04    4.38
   4  -7  -6    1.45    4.74
   4  -7  -6    6.72    3.62
  -4   7   6    6.53    3.06
  -4   7   5  525.73   32.23
   4  -7  -5  538.54   27.90
  -4   7   5  557.96   32.53
   4  -7  -5  594.65   24.46
  -4   7   4 1112.85   45.21
   4  -7  -4 1077.01   37.53
  -4   7   4 1158.92   51.53
   4  -7  -4 1056.96   30.45
  -4   7   3   65.36   10.26
   4  -7  -3   53.85    8.40
  -4   7   3   47.66   10.55
   4  -7  -3   58.97    5.83
  -4   7   3   47.09    6.65
   4  -7  -3   39.39    5.23
  -4   7   2 1113.53   32.87
  -4   7   2 1149.87   60.98
  -4   7   2 1062.91   30.57
   4  -7  -2 1060.18   26.16
   4  -7  -2  983.91   26.79
  -4   7   1 2203.03   39.50
   4  -7  -1 2175.39   40.95
  -4   7   1 2264.77   45.50
   4  -7  -1 2278.02   41.63
  -4   7   0   83.45   18.45
   4  -7   0   76.26    7.50
  -4   7   0   73.57    7.75
   4  -7   0   78.52    7.18
   4  -7   0   58.92   11.13
  -4   7  -1  511.26   19.11
  -4   7  -1  505.13   44.53
   4  -7   1  510.06   18.34
   4  -7   1  523.69   20.50
  -4   7  -1  518.93   18.76
   4  -7   2 1871.22   42.81
  -4   7  -2 1958.59   41.54
  -4   7  -2 1958.50   39.80
   4  -7   2 1986.61   34.05
  -4   7  -3  928.70   29.33
  -4   7  -3 1016.63   57.05
   4  -7   3  910.82   31.24
   4  -7   3  935.06   52.68
  -4   7  -3  918.75   27.30
   4  -7   3  915.12   24.39
   4  -7   4   97.71   16.77
  -4   7  -4   93.96   15.99
   4  -7   4   88.95   10.72
  -4   7  -4   95.94    9.56
  -4   7  -4   83.71    8.41
   4  -7   4   96.39    8.63
  -4   7  -5 1808.48   45.20
  -4   7  -5 1822.62   64.77
   4  -7   5 1774.26   51.96
  -4   7  -5 1815.41   42.87
   4  -7   5 1771.23   43.05
   4  -7   6 1200.16   46.51
  -4   7  -6 1273.27   50.47
  -4   7  -6 1271.28   39.75
  -4   7  -6 1284.79   37.64
   4  -7   6 1296.13   40.30
   4  -7   7  103.69   14.80
  -4   7  -7  125.87   15.02
  -4   7  -7  119.83   12.12
   4  -7   7  150.52   19.10
   4  -7   7  132.02   13.95
  -4   7  -7  141.99   14.26
   4  -7   8  529.96   35.08
  -4   7  -8  578.70   31.04
  -4   7  -8  566.97   28.67
   4  -7   8  623.45   36.99
   4  -7   8  606.42   33.64
   4  -7   9  616.05   36.56
   4  -7   9  547.84   37.70
  -4   7  -9  603.98   34.75
  -4   7  -9  602.19   31.92
   4  -7   9  534.29   34.03
  -4   7 -10  158.09   19.90
   4  -7  10  167.96   22.55
  -4   7 -10  194.38   19.94
   4  -7  10  161.58   18.66
   4  -7  10  131.06   18.11
   4  -7  11   19.97    8.78
  -4   6  12  592.57   32.03
   4  -6 -12  693.04   38.05
   4  -6 -12  655.49   37.42
   4  -6 -11  216.01   21.51
  -4   6  11  201.23   19.02
   4  -6 -11  263.35   24.24
  -4   6  10  112.55   14.38
   4  -6 -10  123.98   16.57
   4  -6 -10  105.36   12.37
   4  -6 -10  133.38   17.63
  -4   6   9  763.41   37.93
   4  -6  -9  744.64   38.47
   4  -6  -9  789.03   42.02
  -4   6   8  615.90   34.32
   4  -6  -8  596.75   34.80
   4  -6  -8  586.91   33.18
  -4   6   7   18.39    4.75
   4  -6  -7   17.85    6.10
  -4   6   7   13.81    5.01
   4  -6  -7   19.83    5.21
  -4   6   6  635.39   35.22
   4  -6  -6  735.30   33.93
  -4   6   6  688.41   32.64
   4  -6  -6  747.30   30.30
  -4   6   5 1035.22   43.71
   4  -6  -5 1069.95   38.40
  -4   6   5 1069.95   43.74
   4  -6  -5 1111.19   32.46
  -4   6   4  192.94   17.65
   4  -6  -4  147.90   13.21
  -4   6   4  185.00   19.83
   4  -6  -4  152.05    8.23
   4  -6  -4  163.06   10.96
  -4   6   3  471.71   22.99
   4  -6  -3  421.38   21.24
  -4   6   3  472.25   34.84
   4  -6  -3  421.35   14.27
   4  -6  -3  414.09   16.27
  -4   6   2 1744.82   37.73
   4  -6  -2 1648.95   32.80
   4  -6  -2 1733.34   31.80
  -4   6   2 1656.14   36.79
   4  -6  -2 1580.80   41.04
  -4   6   1  462.88   40.81
  -4   6   1  453.49   18.12
   4  -6  -1  478.48   16.39
   4  -6  -1  459.93   15.98
   4  -6  -1  452.03   24.92
  -4   6   1  478.46   15.44
   4  -6   0   27.24    6.73
   4  -6   0   25.21    2.64
  -4   6   0   23.57    9.76
   4  -6   0   23.27    4.10
  -4   6   0   27.49    4.79
  -4   6   0   27.58    3.19
   4  -6   0   26.08    3.91
  -4   6  -1 1515.54   33.39
  -4   6  -1 1593.91   74.42
   4  -6   1 1487.82   34.43
  -4   6  -1 1551.49   34.63
   4  -6   1 1597.41   58.88
  -4   6  -1 1483.71   30.68
   4  -6   1 1505.19   25.57
   4  -6   2 2833.49   53.65
   4  -6   2 2925.39   85.84
  -4   6  -2 2987.99   51.29
  -4   6  -2 2840.59   46.61
   4  -6   2 2910.69   42.96
   4  -6   3  281.36   10.68
  -4   6  -3  293.41   27.79
  -4   6  -3  291.66   15.44
   4  -6   3  318.02   28.37
  -4   6  -3  281.77   13.82
   4  -6   3  282.48   16.81
   4  -6   3  287.57   13.56
  -4   6  -4 1002.09   28.17
  -4   6  -4 1086.62   49.00
  -4   6  -4 1037.98   31.16
   4  -6   4 1029.00   29.69
  -4   6  -5 2686.21   73.16
  -4   6  -5 2739.64   51.78
   4  -6   5 2668.81   56.45
  -4   6  -5 2588.45   54.19
  -4   6  -6  753.02   29.97
  -4   6  -6  775.83   36.40
  -4   6  -6  753.20   27.94
   4  -6   6  761.67   42.79
   4  -6   6  779.39   32.71
  -4   6  -7  100.04   12.30
  -4   6  -7   94.58   10.96
   4  -6   7   98.67   15.65
   4  -6   7  116.61   14.13
  -4   6  -8 1497.76   47.11
   4  -6   8 1469.36   56.31
  -4   6  -8 1432.65   49.82
  -4   6  -9  715.57   38.45
  -4   6  -9  832.75   37.95
   4  -6   9  760.27   39.97
   4  -6   9  737.51   41.05
   4  -6  10   55.57   12.19
  -4   6 -10   46.46   11.93
  -4   6 -10   52.42   11.15
   4  -6  10   42.86   11.46
  -4   6 -11  188.23   22.91
  -4   6 -11  191.96   21.34
   4  -6  11  210.80   22.89
   4  -6  11  225.84   21.32
   4  -5 -13  606.82   33.95
   4  -5 -13  564.10   31.11
   4  -5 -13  575.70   32.73
  -4   5  12  483.34   29.09
   4  -5 -12  559.68   32.60
   4  -5 -12  544.27   30.77
   4  -5 -12  563.72   32.73
   4  -5 -11    9.93    4.31
  -4   5  11    4.61    4.63
   4  -5 -11   10.92    6.57
   4  -5 -11   24.20    7.83
  -4   5  10  708.43   35.93
   4  -5 -10  692.04   37.07
   4  -5 -10  732.23   37.26
   4  -5 -10  726.30   30.81
  -4   5   9 1033.55   44.46
   4  -5  -9 1053.69   44.43
   4  -5  -9 1051.93   37.38
   4  -5  -9 1063.96   46.19
  -4   5   8   18.88    4.76
   4  -5  -8   39.16    8.97
   4  -5  -8   32.33    8.21
  -4   5   7 1032.53   44.99
   4  -5  -7 1173.61   44.19
   4  -5  -7 1197.22   44.34
  -4   5   7 1123.03   38.19
  -4   5   6 1554.23   54.26
   4  -5  -6 1677.67   51.66
  -4   5   6 1615.34   48.61
   4  -5  -5  268.65   18.82
  -4   5   5  285.62   21.42
   4  -5  -5  279.89   15.46
  -4   5   5  311.91   22.75
  -4   5   4  639.22   28.14
   4  -5  -4  562.17   25.36
   4  -5  -4  583.69   14.63
  -4   5   4  644.30   35.85
   4  -5  -4  587.42   19.77
  -4   5   3 2385.97   47.68
   4  -5  -3 2247.32   49.72
   4  -5  -3 2335.82   33.92
   4  -5  -3 2304.25   38.64
   4  -5  -2 1528.31   37.57
  -4   5   2 1527.93   32.97
   4  -5  -2 1522.91   27.18
   4  -5  -2 1495.97   28.31
  -4   5   2 1524.97   31.45
  -4   5   1   40.33    4.15
  -4   5   1   38.69   10.95
   4  -5  -1   33.11    4.17
  -4   5   1   31.65    4.29
   4  -5  -1   34.55    3.88
   4  -5  -1   43.33    2.47
  -4   5   0 1390.09   21.98
   4  -5   0 1326.41   25.42
  -4   5   0 1274.90   25.41
  -4   5   0 1334.52   29.66
  -4   5   0 1249.21   62.37
   4  -5   0 1360.88   29.38
   4  -5   0 1339.12   20.06
  -4   5  -1 2472.51   55.51
   4  -5   1 2629.69   60.68
  -4   5  -1 2575.86   43.30
  -4   5  -1 2351.02   26.98
  -4   5  -1 2700.36   90.00
  -4   5  -1 2583.55   43.91
  -4   5  -1 2456.77   38.51
   4  -5   1 2623.31   35.61
  -4   5  -2  572.96   26.30
   4  -5   2  576.56   15.12
  -4   5  -2  567.59   17.49
   4  -5   2  562.92   29.52
  -4   5  -2  641.99   40.25
  -4   5  -2  565.07   20.16
   4  -5   2  542.29   16.99
  -4   5  -3  486.57   25.02
  -4   5  -3  433.37   16.24
   4  -5   3  456.61   13.72
  -4   5  -3  480.81   31.87
  -4   5  -3  432.28   18.41
   4  -5   3  453.80   28.42
   4  -5   3  478.79   18.72
  -4   5  -4 2293.32   58.52
   4  -5   4 2164.76   48.24
   4  -5   4 2233.44   33.77
  -4   5  -4 2299.86   65.70
  -4   5  -4 2158.55   45.38
   4  -5   4 2062.13   65.88
  -4   5  -4 2167.60   41.78
  -4   5  -5 1254.39   44.77
   4  -5   5 1341.87   25.81
   4  -5   5 1167.03   50.65
  -4   5  -5 1246.19   33.10
  -4   5  -5 1340.20   46.79
  -4   5  -5 1258.93   36.28
   4  -5   5 1267.21   40.80
  -4   5  -6   97.28   13.07
   4  -5   6   71.15   12.73
  -4   5  -6  103.50   10.34
   4  -5   6   89.76   12.12
  -4   5  -6  104.44   12.07
  -4   5  -6  109.21   11.52
  -4   5  -7  641.49   30.16
   4  -5   7  572.84   35.72
   4  -5   7  569.02   32.53
   4  -5   8 1160.15   49.57
  -4   5  -8 1231.65   46.67
  -4   5  -8 1313.30   44.95
   4  -5   8 1295.54   52.86
  -4   5  -9  435.12   30.31
  -4   5  -9  493.42   29.77
   4  -5   9  465.85   31.05
   4  -5   9  447.05   31.89
   4  -5  10   55.87   11.52
  -4   5 -10   64.47   13.33
  -4   5 -10   57.71   11.20
   4  -5  10   47.51   11.08
  -4   5 -11  764.16   45.90
  -4   5 -11  853.44   45.11
   4  -5  11  842.14   41.14
   4  -5  11  863.00   44.29
   4  -4 -14  161.07   15.68
  -4   4  13  520.52   30.30
   4  -4 -13  559.48   30.96
   4  -4 -13  512.17   27.97
  -4   4  12  123.91   14.80
   4  -4 -12  136.63   15.64
   4  -4 -12  160.73   15.34
   4  -4 -12  153.73   16.04
  -4   4  11  213.20   19.48
   4  -4 -11  239.02   20.34
   4  -4 -11  257.33   17.45
   4  -4 -11  249.48   20.39
   4  -4 -11  278.80   20.15
  -4   4  10  981.26   43.22
   4  -4 -10  903.19   39.73
   4  -4 -10 1016.59   35.19
   4  -4 -10 1007.52   41.34
  -4   4   9  297.27   23.92
   4  -4  -9  307.68   22.70
   4  -4  -9  299.52   19.00
   4  -4  -9  302.68   22.52
  -4   4   8  189.85   19.04
   4  -4  -8  202.86   18.33
   4  -4  -8  230.89   17.15
  -4   4   8  189.90   13.77
   4  -4  -8  220.53   19.14
  -4   4   7  907.51   41.32
  -4   4   7 1009.32   34.20
   4  -4  -7  988.06   39.57
   4  -4  -7 1093.89   38.79
   4  -4  -7 1084.67   42.29
  -4   4   6 1265.42   46.85
   4  -4  -6 1239.79   43.25
   4  -4  -6 1198.32   39.07
  -4   4   6 1160.47   39.15
  -4   4   5    2.28    3.01
  -4   4   5    7.60    4.97
   4  -4  -5    0.88    4.18
  -4   4   5    0.96    3.34
   4  -4  -5   -0.95    3.13
  -4   4   4 3057.15   57.87
   4  -4  -4 2883.71   62.26
  -4   4   4 3314.54   79.40
   4  -4  -4 3003.22   35.29
  -4   4   4 3028.77   77.58
   4  -4  -4 3294.00   49.25
  -4   4   3 4108.88   60.08
   4  -4  -3 4153.47   70.90
  -4   4   3 4466.69   99.55
   4  -4  -3 4085.06   46.24
  -4   4   3 4325.04  101.77
   4  -4  -3 4356.06   53.58
  -4   4   2  454.38   14.88
   4  -4  -2  432.60   18.97
  -4   4   2  419.01   31.74
  -4   4   2  462.09   33.57
   4  -4  -2  447.83   12.74
   4  -4  -2  446.41   13.04
  -4   4   1 1692.34   39.26
  -4   4   1 1772.75   27.92
   4  -4  -1 1713.57   26.74
  -4   4   1 1676.87   69.81
   4  -4  -1 1708.16   29.91
  -4   4   1 1649.99   31.79
   4  -4  -1 1647.15   18.36
  -4   4   0 4053.26   65.58
  -4   4   0 3922.06   43.09
  -4   4   0 3744.33  102.40
  -4   4   0 4097.00   53.92
  -4   4   0 4032.70  109.05
  -4   4   0 3946.54   54.35
  -4   4   0 3846.49   46.68
  -4   4   0 3931.30   52.94
   4  -4   0 4012.58   43.18
  -4   4  -1 1527.88   38.87
  -4   4  -1 1561.66   39.56
   4  -4   1 1532.59   27.86
  -4   4  -1 1518.81   62.33
  -4   4  -1 1449.56   25.84
  -4   4  -1 1539.07   31.82
  -4   4  -1 1489.62   29.71
  -4   4  -1 1621.13   62.98
  -4   4  -2  276.82   16.84
   4  -4   2  281.76   18.10
  -4   4  -2  253.88   18.37
  -4   4  -2  302.15   24.66
   4  -4   2  271.40   10.19
  -4   4  -2  267.82   13.31
  -4   4  -2  244.25   10.68
   4  -4   2  262.57   13.31
  -4   4  -3 2225.50   52.19
  -4   4  -3 2171.33   61.09
   4  -4   3 2100.51   32.50
  -4   4  -3 2047.68   40.86
   4  -4   3 2093.76   54.59
  -4   4  -3 2027.47   36.54
  -4   4  -3 2174.05   62.08
   4  -4   3 1991.22   45.95
  -4   4  -4 1643.41   46.30
  -4   4  -4 1596.99   54.35
   4  -4   4 1469.64   30.31
   4  -4   4 1486.91   27.21
  -4   4  -4 1408.70   35.36
   4  -4   4 1516.96   50.11
  -4   4  -4 1476.64   32.95
   4  -4   4 1378.92   42.71
  -4   4  -4 1545.07   48.60
  -4   4  -5  154.09   15.24
  -4   4  -5  166.72   14.73
  -4   4  -5  180.58   18.77
   4  -4   5  175.52    9.18
  -4   4  -5  182.36   13.27
   4  -4   5  152.12   16.44
  -4   4  -5  160.85   11.76
   4  -4   5  141.72   14.74
  -4   4  -6  225.45   18.19
  -4   4  -6  246.15   21.02
  -4   4  -6  254.83   17.32
   4  -4   6  255.67   12.53
  -4   4  -6  263.44   16.56
  -4   4  -6  238.92   16.77
   4  -4   6  193.61   20.11
   4  -4   6  254.91   21.48
  -4   4  -7 1194.68   42.94
  -4   4  -7 1263.07   46.96
  -4   4  -7 1238.96   42.85
  -4   4  -7 1270.97   41.42
   4  -4   7 1374.64   52.77
  -4   4  -8  498.21   28.62
  -4   4  -8  539.44   31.02
  -4   4  -8  535.71   29.33
   4  -4   8  465.79   32.10
   4  -4   8  550.16   33.29
   4  -4   9    8.18    6.38
  -4   4  -9   -0.86    5.49
  -4   4  -9    4.69    4.31
   4  -4   9   -2.71    5.69
  -4   4 -10  339.92   29.96
  -4   4 -10  407.20   29.30
   4  -4  10  402.06   28.30
   4  -4  10  398.03   27.97
  -4   4 -11  345.90   29.58
  -4   4 -11  459.51   33.44
   4  -4  11  431.53   29.51
   4  -4  11  432.76   28.81
  -4   3  14  549.88   31.17
   4  -3 -14  589.09   30.72
   4  -3 -14  555.41   28.72
  -4   3  13  139.65   15.68
   4  -3 -13  167.46   16.50
   4  -3 -13  148.71   14.41
  -4   3  12   83.74   12.62
   4  -3 -12   84.44   11.78
   4  -3 -12   77.19   10.46
  -4   3  11  655.24   35.29
   4  -3 -11  644.79   31.84
   4  -3 -11  654.58   27.04
   4  -3 -11  632.64   29.20
   4  -3 -11  652.19   30.86
  -4   3  10  183.64   18.80
   4  -3 -10  224.05   18.71
   4  -3 -10  233.76   16.17
   4  -3 -10  240.45   17.56
   4  -3 -10  253.41   19.02
   4  -3  -9    8.72    4.43
   4  -3  -9   17.11    5.48
   4  -3  -9   11.90    5.42
  -4   3   8  512.00   19.36
   4  -3  -8  535.76   29.04
   4  -3  -8  548.63   26.26
  -4   3   8  534.95   22.93
   4  -3  -8  502.25   26.79
  -4   3   7 1657.22   54.88
   4  -3  -7 1534.77   49.96
   4  -3  -7 1717.24   49.19
  -4   3   7 1695.68   44.49
  -4   3   7 1508.53   40.55
  -4   3   7 1841.80   36.84
   4  -3  -7 1584.85   48.33
  -4   3   6  353.85   22.42
   4  -3  -6  314.62   21.68
   4  -3  -6  371.09   23.47
  -4   3   6  297.48   18.82
  -4   3   6  351.24   21.04
  -4   3   6  354.54   11.30
   4  -3  -6  328.79   20.93
   4  -3  -5  508.36   26.93
   4  -3  -5  529.07   29.77
  -4   3   5  547.79   27.98
  -4   3   5  520.42   27.29
   4  -3  -5  471.15   20.92
  -4   3   5  463.25    8.57
  -4   3   5  506.10   22.91
  -4   3   4 3518.45   57.00
  -4   3   4 3616.27   82.17
   4  -3  -4 3850.07   76.87
  -4   3   4 3794.05   82.32
   4  -3  -4 3644.11   35.86
   4  -3  -4 3606.95   52.63
  -4   3   3 1942.01   39.09
  -4   3   3 2019.17   35.48
  -4   3   3 1795.59   20.41
   4  -3  -3 2200.87   52.88
  -4   3   3 2018.90   61.54
   4  -3  -3 2081.01   25.50
   4  -3  -3 2198.34   31.68
  -4   3   3 2183.70   66.57
  -4   3   2  160.31   10.56
  -4   3   2  182.95    8.73
  -4   3   2  192.70    7.75
   4  -3  -2  179.70   13.15
  -4   3   2  140.50   16.99
   4  -3  -2  174.62    6.95
  -4   3   2  153.92   18.18
  -4   3   1 3292.84   53.95
  -4   3   1 3499.50   41.87
  -4   3   1 4002.21   60.28
  -4   3   1 3357.37   46.08
   4  -3  -1 3419.94   56.62
   4  -3  -1 3429.93   38.29
  -4   3   1 3120.88   89.20
  -4   3   1 3388.28   38.18
   4  -3  -1 3423.58   35.56
  -4   3   1 2759.62   82.39
  -4   3   0 4357.54   65.31
  -4   3   0 4517.66   80.55
  -4   3   0 4273.80   45.36
   4  -3   0 4332.30   59.20
  -4   3   0 4387.05  105.79
  -4   3   0 4187.70   56.11
  -4   3   0 4263.18   52.75
  -4   3   0 4226.93   45.88
  -4   3   0 4114.44   98.43
  -4   3  -1  839.99   26.78
  -4   3  -1  815.69   35.60
  -4   3  -1  754.41   16.79
   4  -3   1  826.78   18.14
   4  -3   1  794.94   27.42
  -4   3  -1  792.58   40.25
  -4   3  -1  827.37   22.02
  -4   3  -1  781.10   19.02
  -4   3  -1  856.13   40.14
  -4   3  -2  798.72   27.80
  -4   3  -2  806.82   36.20
  -4   3  -2  724.08   35.35
   4  -3   2  777.75   18.06
   4  -3   2  729.59   22.52
  -4   3  -2  723.89   35.30
  -4   3  -2  751.83   18.38
  -4   3  -2  771.76   22.10
  -4   3  -3 3354.48   71.32
  -4   3  -3 3236.62   79.45
   4  -3   3 3300.33   63.63
   4  -3   3 3173.42   43.03
   4  -3   3 3119.19   44.07
  -4   3  -3 2899.24   69.27
  -4   3  -3 3071.81   50.86
  -4   3  -3 3154.01   47.13
  -4   3  -3 3309.20   63.82
   4  -3   4 1199.83   40.98
  -4   3  -4 1274.45   48.07
  -4   3  -4 1254.41   39.45
  -4   3  -4 1219.79   30.33
   4  -3   4 1224.42   25.14
   4  -3   4 1196.65   20.59
  -4   3  -4 1157.65   30.81
  -4   3  -4 1217.53   39.13
  -4   3  -5  129.68   14.95
   4  -3   5  144.82    8.86
   4  -3   5  144.11   15.09
  -4   3  -5  150.87   12.61
  -4   3  -5  144.45   11.58
  -4   3  -5  125.03   11.14
  -4   3  -5  146.47   13.79
  -4   3  -6 1361.09   47.99
  -4   3  -6 1308.32   40.53
   4  -3   6 1334.10   32.08
  -4   3  -6 1407.90   41.14
  -4   3  -6 1277.72   43.32
  -4   3  -7  820.50   35.64
  -4   3  -7  927.07   36.81
  -4   3  -7  814.98   36.57
   4  -3   7  899.77   29.83
  -4   3  -7  874.22   36.11
   4  -3   8   10.64    5.02
  -4   3  -8    9.09    4.95
   4  -3   8   13.52    5.81
  -4   3  -8   14.57    6.92
  -4   3  -8   15.07    5.66
  -4   3  -9  266.18   20.32
  -4   3  -9  271.91   24.66
  -4   3  -9  297.15   23.90
   4  -3   9  278.26   24.33
   4  -3   9  291.85   22.27
  -4   3 -10  467.35   26.82
  -4   3 -10  395.60   31.27
  -4   3 -10  486.40   32.30
   4  -3  10  443.05   29.94
   4  -3  10  449.88   27.91
  -4   3 -11   63.10   11.90
   4  -3  11   79.53   13.10
   4  -3  11   64.03   10.88
   4  -3  12   72.51   12.21
  -4   3 -12   39.83    9.14
   4  -2 -15  356.84   23.38
  -4   2  14  299.69   23.01
   4  -2 -14  287.00   21.01
   4  -2 -14  280.82   20.41
   4  -2 -13   28.36    7.46
   4  -2 -13   28.25    6.57
   4  -2 -12  765.60   31.93
  -4   2  12  816.41   39.56
   4  -2 -12  781.80   34.18
  -4   2  11  841.72   40.79
   4  -2 -11  794.16   34.42
   4  -2 -11  775.47   31.68
   4  -2 -11  840.79   29.81
   4  -2 -10   40.06    7.13
  -4   2  10   29.36    6.76
  -4   2  10   38.84    6.57
   4  -2 -10   43.32    8.44
   4  -2 -10   47.75    7.78
  -4   2   9  649.75   25.62
   4  -2  -9  736.25   33.57
   4  -2  -9  720.55   29.18
   4  -2  -9  678.35   28.86
  -4   2   9  677.45   28.46
   4  -2  -9  689.09   30.26
  -4   2   8 1492.83   37.37
   4  -2  -8 1517.75   49.51
   4  -2  -8 1648.18   46.65
  -4   2   8 1511.39   38.85
  -4   2   8 1507.42   53.20
   4  -2  -8 1558.78   44.28
  -4   2   8 1665.37   40.45
   4  -2  -8 1536.08   45.66
  -4   2   7  960.46   37.76
  -4   2   7  840.31   24.48
   4  -2  -7  900.74   38.10
   4  -2  -7  978.51   37.52
  -4   2   7  893.71   30.81
  -4   2   7  913.09   23.76
   4  -2  -7  922.33   34.58
  -4   2   6  343.36   19.56
  -4   2   6  310.97   13.31
   4  -2  -6  360.88   24.40
   4  -2  -6  385.11   24.77
  -4   2   6  381.50   21.44
  -4   2   6  323.32   10.72
   4  -2  -6  340.26   20.15
  -4   2   5 3387.98   57.48
   4  -2  -5 3590.59   80.83
  -4   2   5 3423.34   72.75
   4  -2  -5 4003.89   85.36
  -4   2   5 3825.28   76.19
  -4   2   5 3361.00   36.18
   4  -2  -5 3480.61   66.65
  -4   2   4 1625.29   32.35
  -4   2   4 1552.28   32.07
   4  -2  -4 1690.81   53.84
   4  -2  -4 1658.42   52.73
  -4   2   4 1766.07   53.23
  -4   2   4 1612.68   52.34
   4  -2  -4 1492.01   15.76
   4  -2  -4 1579.06   36.05
  -4   2   4 1613.55   17.78
  -4   2   3  188.32    6.20
  -4   2   3  193.89    9.55
   4  -2  -3  185.94   17.17
   4  -2  -3  167.88   15.59
  -4   2   3  183.11   10.16
  -4   2   3  178.48   18.38
  -4   2   3  208.04   18.81
   4  -2  -3  179.63    7.87
  -4   2   2  724.79   21.07
  -4   2   2  773.36   14.42
  -4   2   2  778.11   17.93
   4  -2  -2  878.23   36.18
   4  -2  -2  700.04   29.84
  -4   2   2  755.90   39.30
  -4   2   2  696.81   35.97
   4  -2  -2  814.44   13.34
  -4   2   1 2931.04   38.82
  -4   2   1 3013.52   38.02
  -4   2   1 2821.13   77.20
   4  -2  -1 3092.43   59.38
  -4   2   1 3244.82   83.23
  -4   2   1 3078.03   31.32
   4  -2  -1 3145.16   31.38
  -4   2   1 3083.15   49.08
  -4   2   0 2592.00   42.13
   4  -2   0 2841.72   53.74
   4  -2   0 2628.69   36.29
   4  -2   0 2725.37   49.02
  -4   2   0 2714.90   71.13
  -4   2   0 2701.47   40.63
  -4   2   0 2609.35   36.16
  -4   2   0 2565.19   30.37
  -4   2   0 2694.19   47.45
  -4   2  -1   69.50    7.64
   4  -2   1   68.70    5.80
   4  -2   1   77.54    5.46
   4  -2   1   73.09    6.38
  -4   2  -1   82.29   11.32
  -4   2  -1   81.79   11.94
  -4   2  -1   74.41    6.33
  -4   2  -1   69.79    5.08
  -4   2  -1   72.70    4.75
  -4   2  -1   76.18    8.00
  -4   2  -2 3142.02   64.60
   4  -2   2 2662.10   34.86
   4  -2   2 3107.11   41.81
   4  -2   2 3064.86   41.01
  -4   2  -2 3032.86   68.44
  -4   2  -2 3455.54   70.75
  -4   2  -2 3092.44   47.03
  -4   2  -2 2983.80   42.17
  -4   2  -2 3208.05   58.26
  -4   2  -3 3267.53   73.25
  -4   2  -3 3153.79   50.97
   4  -2   3 3304.05   45.64
  -4   2  -3 3515.12   67.90
  -4   2  -3 3220.56   65.54
   4  -2   3 3300.48   39.18
  -4   2  -3 3384.07   51.18
  -4   2  -3 3495.02   64.21
  -4   2  -4  444.42   26.63
   4  -2   4  457.25   15.72
  -4   2  -4  415.94   21.43
  -4   2  -4  449.33   18.54
   4  -2   4  501.44   24.16
  -4   2  -4  457.12   19.55
  -4   2  -4  472.11   23.49
   4  -2   5  430.35   24.75
  -4   2  -5  383.21   25.11
   4  -2   5  411.55   16.33
  -4   2  -5  406.22   19.46
  -4   2  -5  409.75   21.06
  -4   2  -5  401.59   23.13
  -4   2  -6 1430.60   49.36
  -4   2  -6 1569.88   45.10
  -4   2  -6 1498.98   45.49
   4  -2   6 1551.97   52.41
   4  -2   6 1580.65   37.76
  -4   2  -6 1551.33   47.10
  -4   2  -7  416.55   26.30
   4  -2   7  453.86   22.68
  -4   2  -7  447.45   27.03
  -4   2  -7  426.59   25.94
   4  -2   7  446.50   29.43
  -4   2  -7  477.45   26.01
  -4   2  -8  106.88   13.69
  -4   2  -8  119.94   14.20
   4  -2   8   88.88   13.34
   4  -2   8  109.52   12.48
  -4   2  -8  114.61   15.07
  -4   2  -9  751.34   34.75
  -4   2  -9  827.42   43.90
   4  -2   9  733.99   39.75
  -4   2  -9  878.10   41.87
  -4   2 -10  324.09   22.79
  -4   2 -10  299.43   26.17
  -4   2 -10  350.62   26.95
   4  -2  10  353.02   27.00
   4  -2  10  347.35   24.04
   4  -2  11   11.26    6.70
  -4   2 -11   14.71    5.25
   4  -2  11    5.95    4.46
  -4   2 -11    2.10    7.55
  -4   2 -11   -8.29    8.21
  -4   2 -12  248.88   22.05
   4  -2  12  267.71   22.48
  -4   1  15  264.74   22.12
   4  -1 -15  288.03   20.95
   4  -1 -15  256.61   20.06
  -4   1  14   47.49    9.45
   4  -1 -14   49.30    8.79
   4  -1 -14   47.96    8.11
  -4   1  13  260.88   22.47
   4  -1 -13  260.51   19.75
   4  -1 -13  243.34   19.09
  -4   1  12 1116.28   47.43
   4  -1 -12 1008.26   38.90
   4  -1 -12 1061.21   39.54
  -4   1  11  350.75   22.13
  -4   1  11  393.32   27.92
   4  -1 -11  389.27   23.93
   4  -1 -11  414.16   20.51
   4  -1 -11  393.30   23.34
  -4   1  11  378.51   24.48
  -4   1  10  216.66   16.78
  -4   1  10  199.97   19.46
   4  -1 -10  235.25   17.80
   4  -1 -10  241.73   19.30
   4  -1 -10  237.71   16.09
  -4   1  10  225.17   18.30
  -4   1   9 1952.51   50.04
  -4   1   9 2007.29   62.78
   4  -1  -9 2088.40   58.39
   4  -1  -9 2125.54   52.12
  -4   1   9 1958.25   42.95
   4  -1  -9 2261.37   56.48
  -4   1   9 2191.05   53.03
  -4   1   8 3235.44   62.08
  -4   1   8 3253.37   73.13
   4  -1  -8 3330.01   77.50
   4  -1  -8 3410.62   71.40
  -4   1   8 3378.90   61.52
  -4   1   8 3288.02   57.09
   4  -1  -8 3096.36   67.06
  -4   1   7   44.09    6.16
   4  -1  -7   61.02    9.78
  -4   1   7   44.10    7.60
   4  -1  -7   46.47    9.67
  -4   1   7   45.46    7.16
   4  -1  -7   40.99    6.73
  -4   1   7   42.26    4.97
  -4   1   6 2311.05   41.64
   4  -1  -6 2708.38   72.50
   4  -1  -6 2670.88   65.41
  -4   1   6 2594.24   58.55
   4  -1  -6 2334.09   49.86
  -4   1   6 2362.23   47.91
  -4   1   6 2265.72   33.65
   4  -1  -6 2541.86   57.71
  -4   1   5 3318.92   45.86
  -4   1   5 3185.61   47.41
  -4   1   5 3195.89   51.49
   4  -1  -5 3543.75   81.97
   4  -1  -5 3235.55   71.59
  -4   1   5 3688.04   74.32
  -4   1   5 3226.49   37.89
   4  -1  -5 3500.60   63.94
   4  -1  -5 3002.36   50.95
  -4   1   4  806.59   20.22
   4  -1  -4  827.96   35.86
   4  -1  -4  770.67   31.47
  -4   1   4  791.99   21.02
   4  -1  -4  781.94   18.47
  -4   1   4  839.25   14.47
   4  -1  -4  793.80   25.01
  -4   1   3  522.91   15.48
   4  -1  -3  467.15   24.74
   4  -1  -3  554.49   24.47
  -4   1   3  508.75   28.85
   4  -1  -3  491.04   15.26
  -4   1   3  559.62   10.90
  -4   1   3  546.87   16.66
  -4   1   2 4171.93   45.15
  -4   1   2 4066.40   48.52
   4  -1  -2 3810.84   66.14
   4  -1  -2 4258.78   67.04
  -4   1   2 3518.09   83.29
  -4   1   2 3793.75   53.85
   4  -1  -1 3407.88   42.70
   4  -1  -1 3462.20   50.02
   4  -1  -1 3307.06   53.00
  -4   1   1 3363.77   83.41
  -4   1   1 3296.52   30.27
  -4   1   1 3415.54   42.36
  -4   1   1 3323.71   51.01
  -4   1   0  101.73    6.82
   4  -1   0   97.89    6.10
   4  -1   0  113.37    5.05
  -4   1   0  123.10   15.98
   4  -1   0   99.03    7.17
  -4   1   0   95.36    5.27
  -4   1   0  106.85    6.90
  -4   1   0  108.79    4.70
  -4   1   0  101.87    8.70
  -4   1  -1 1094.84   27.25
   4  -1   1 1146.53   23.00
  -4   1  -1 1199.83   42.86
  -4   1  -1 1176.75   24.99
   4  -1   1 1116.25   22.42
  -4   1  -1 1083.21   21.40
  -4   1  -1 1117.81   19.80
  -4   1  -1 1137.83   31.73
  -4   1  -2 2575.93   50.80
   4  -1   2 2589.62   39.12
  -4   1  -2 2576.38   58.67
   4  -1   2 2705.41   34.64
  -4   1  -2 2588.97   41.57
  -4   1  -2 2574.51   42.60
  -4   1  -2 2644.18   53.86
  -4   1  -3  898.71   24.03
  -4   1  -3  884.24   32.57
   4  -1   3  895.98   22.57
  -4   1  -3  875.96   30.88
   4  -1   3 1008.61   16.74
  -4   1  -3  912.80   27.66
  -4   1  -3  916.68   32.13
  -4   1  -4  144.69   14.69
   4  -1   4  149.89    9.55
  -4   1  -4  151.16   11.82
  -4   1  -4  149.75   10.47
  -4   1  -4  147.77   12.39
  -4   1  -4  157.40   13.88
  -4   1  -5  916.43   39.10
  -4   1  -5  956.32   30.47
   4  -1   5  987.37   28.42
  -4   1  -5  885.39   27.98
   4  -1   5 1029.14   36.43
  -4   1  -5  936.11   34.83
  -4   1  -5 1005.50   37.08
   4  -1   6 1139.26   34.61
  -4   1  -6 1145.75   38.29
  -4   1  -6 1095.36   40.88
   4  -1   6 1185.50   43.57
  -4   1  -6 1177.03   41.53
  -4   1  -7  118.43   14.56
   4  -1   7  111.27   12.05
   4  -1   7  134.22   15.82
  -4   1  -7  130.99   15.02
  -4   1  -7  109.33   13.42
   4  -1   7  105.04   12.13
  -4   1  -7  113.99   13.35
  -4   1  -8  516.34   30.02
   4  -1   8  496.17   28.60
  -4   1  -8  602.64   35.06
  -4   1  -8  577.39   32.00
   4  -1   8  475.33   31.09
  -4   1  -9  688.94   34.26
   4  -1   9  597.98   33.41
  -4   1  -9  640.13   38.43
  -4   1  -9  670.73   35.01
   4  -1   9  612.63   35.71
  -4   1 -10   75.69   11.66
  -4   1 -10   47.92    9.54
   4  -1  10   81.01   12.90
  -4   1 -10   77.89   11.77
  -4   1 -11  256.97   20.77
  -4   1 -11  267.19   21.92
   4  -1  11  279.54   23.02
  -4   1 -12  460.57   28.81
   4  -1  12  543.50   31.20
  -4   0  15  117.26   15.07
   4   0 -15  116.73   13.33
   4   0 -15  116.78   14.00
  -4   0  14    6.10    5.24
   4   0 -14    9.70    4.35
   4   0 -14    9.67    4.17
  -4   0  13  655.34   31.58
  -4   0  13  695.69   37.86
   4   0 -13  645.01   31.65
   4   0 -13  700.17   34.51
  -4   0  13  676.59   35.75
  -4   0  12  488.29   27.65
  -4   0  12  537.22   33.31
   4   0 -12  542.26   29.21
  -4   0  12  486.30   29.66
   4   0 -12  533.91   30.04
   4   0 -11    5.18    2.81
  -4   0  11   -6.24    7.81
  -4   0  11    0.99    4.89
   4   0 -11   -0.82    3.92
   4   0 -11    1.57    4.23
  -4   0  11    3.53    3.51
  -4   0  10  978.61   38.84
  -4   0  10 1097.20   45.40
   4   0 -10 1080.83   42.70
   4   0 -10 1137.81   36.50
   4   0 -10 1009.98   39.27
  -4   0  10 1230.15   43.06
  -4   0   9 2147.66   55.63
  -4   0   9 2221.80   59.58
   4   0  -9 2266.49   64.50
  -4   0   9 2170.28   46.84
   4   0  -9 2285.80   55.71
  -4   0   9 2284.27   52.17
  -4   0   8 1212.49   38.21
  -4   0   8 1246.85   39.19
   4   0  -8 1239.44   46.98
  -4   0   8 1197.50   34.87
   4   0  -8 1243.04   42.38
  -4   0   8 1125.35   30.59
  -4   0   7  468.16   20.71
  -4   0   7  487.21   21.36
   4   0  -7  487.62   27.89
  -4   0   7  500.43   23.16
   4   0  -7  508.58   26.38
   4   0  -7  461.59   19.24
  -4   0   7  464.53   16.17
  -4   0   6 4394.65   51.40
  -4   0   6 4321.53   63.12
  -4   0   6 4280.44   63.20
   4   0  -6 4026.88   80.80
  -4   0   6 4692.86   80.35
  -4   0   6 4113.77   52.19
   4   0  -6 4156.13   78.73
   4   0  -6 4369.34   56.28
  -4   0   5 3589.83   45.43
  -4   0   5 3281.36   50.61
  -4   0   5 3288.11   50.54
  -4   0   5 3559.38   44.84
   4   0  -5 3541.41   67.93
  -4   0   5 3830.38   75.34
   4   0  -5 3482.40   67.86
   4   0  -5 3499.05   39.96
  -4   0   5 3403.81   42.64
  -4   0   4   94.64    6.91
  -4   0   4  119.21   13.31
   4   0  -4  111.95   10.56
   4   0  -4   99.43    3.45
  -4   0   4  100.46    5.47
  -4   0   4  104.66    6.73
  -4   0   3 2545.74   37.82
   4   0  -3 2603.92   43.86
  -4   0   3 2450.88   65.60
   4   0  -3 2669.16   50.12
  -4   0   3 2613.53   33.16
  -4   0   3 2709.70   40.70
  -4   0   2 6263.34   64.38
  -4   0   2 5953.32   64.96
   4   0  -2 6260.92   65.66
   4   0  -2 5896.26   65.49
   4   0  -2 6248.20   78.12
  -4   0   2 6249.48   62.77
  -4   0   2 5859.63   74.05
  -4   0   1  292.63   10.78
   4   0  -1  297.94   10.73
   4   0  -1  310.57    8.40
  -4   0   1  273.35   21.26
   4   0  -1  296.35   12.56
  -4   0   1  276.25    7.14
  -4   0   1  310.30   14.20
  -4   0   0  693.85   13.53
   4   0   0  703.86   17.65
  -4   0   0  729.14   34.97
   4   0   0  725.21   18.29
  -4   0   0  707.76   18.30
  -4   0   0  712.27   18.95
  -4   0   0  730.08   24.20
  -4   0  -1 4727.30   63.31
  -4   0  -1 5054.96   59.04
   4   0   1 4687.23   58.29
  -4   0  -1 4614.22   86.03
   4   0   1 4901.92   55.08
  -4   0  -1 4527.26   66.47
  -4   0  -1 4704.01   74.87
  -4   0  -2 1027.91   28.84
   4   0   2 1006.72   24.13
  -4   0  -2  982.17   33.63
   4   0   2 1089.36   19.72
  -4   0  -2 1010.64   31.70
  -4   0  -2  995.68   33.15
  -4   0  -2  988.09   23.41
  -4   0  -3   85.71   10.16
  -4   0  -3   90.65    9.39
   4   0   3   94.05    7.71
  -4   0  -3   82.40    8.94
  -4   0  -3   97.87    7.47
   4   0   3  104.34    5.16
  -4   0  -3   97.53   10.69
  -4   0  -4  946.15   35.74
   4   0   4  974.36   27.66
  -4   0  -4  967.55   26.62
  -4   0  -4  997.75   37.11
  -4   0  -4  955.37   36.24
  -4   0  -5  888.13   39.04
  -4   0  -5  967.51   30.42
   4   0   5  996.38   31.45
   4   0   5 1018.51   34.80
  -4   0  -5  973.29   37.90
  -4   0  -5  949.93   38.00
  -4   0  -6   68.93   11.10
   4   0   6   97.64   11.83
  -4   0  -6   96.57   12.10
   4   0   6   83.63   10.12
  -4   0  -6   86.75   10.73
  -4   0  -6   72.53   10.08
  -4   0  -7  357.54   25.74
   4   0   7  400.17   24.81
  -4   0  -7  423.40   25.93
  -4   0  -7  398.37   24.70
   4   0   7  405.53   26.35
  -4   0  -7  422.86   24.07
  -4   0  -8  800.30   39.24
   4   0   8  763.97   37.48
  -4   0  -8  833.58   40.36
  -4   0  -8  790.34   35.53
   4   0   8  762.74   38.56
   4   0   8  759.07   36.39
  -4   0  -9  140.15   16.48
   4   0   9  112.89   15.04
  -4   0  -9  102.69   14.36
  -4   0  -9  151.06   15.60
   4   0   9  135.38   16.55
   4   0  10   55.98   10.73
  -4   0 -10   61.12   11.00
   4   0  10   49.55   10.12
  -4   0 -10   30.63    8.44
  -4   0 -10   54.62    9.52
  -4   0 -11  407.40   27.07
   4   0  11  397.58   26.35
  -4   0 -11  374.48   25.11
  -4  -1  15   -4.92    5.43
   4   1 -15    1.97    3.55
   4   1 -15   -7.00    6.56
  -4  -1  14  672.56   33.05
  -4  -1  14  769.39   40.32
  -4  -1  14  744.28   39.55
   4   1 -14  693.08   34.03
   4   1 -14  749.74   38.71
  -4  -1  13  688.70   33.86
  -4  -1  13  751.15   39.86
   4   1 -13  723.26   34.85
   4   1 -13  762.82   38.82
  -4  -1  13  687.94   38.10
  -4  -1  12   61.65   11.56
  -4  -1  12   55.12    9.14
   4   1 -12   54.02    9.20
   4   1 -12   73.70   11.22
  -4  -1  12   62.50   11.56
  -4  -1  11  289.83   22.49
  -4  -1  11  348.96   25.79
   4   1 -11  349.47   25.17
   4   1 -11  374.47   20.40
   4   1 -11  354.44   23.89
  -4  -1  11  391.22   26.68
  -4  -1  10 1119.75   44.07
   4   1 -10 1263.52   48.08
  -4  -1  10 1315.45   45.76
   4   1 -10 1200.83   39.50
   4   1 -10 1181.79   40.56
  -4  -1  10 1267.37   42.27
  -4  -1   9 1588.86   49.98
  -4  -1   9 1609.22   45.74
   4   1  -9 1468.57   50.44
  -4  -1   9 1603.88   41.73
   4   1  -9 1623.40   48.51
   4   1  -9 1561.27   41.92
  -4  -1   9 1617.42   41.88
  -4  -1   8   47.30    7.26
   4   1  -8   44.73    7.87
  -4  -1   8   51.83    8.50
   4   1  -8   35.84    7.24
  -4  -1   8   46.74    7.85
   4   1  -8   44.28    6.15
  -4  -1   8   43.54    5.85
  -4  -1   7 1982.38   28.46
  -4  -1   7 2154.31   47.85
  -4  -1   7 2022.27   42.04
   4   1  -7 1898.90   51.14
  -4  -1   7 2176.15   56.33
   4   1  -7 1954.54   51.14
  -4  -1   7 2151.61   31.27
   4   1  -7 2049.73   36.17
  -4  -1   7 1960.99   36.83
  -4  -1   6 3060.40   53.26
  -4  -1   6 2918.62   48.50
   4   1  -6 2973.64   59.62
  -4  -1   6 2956.02   75.04
   4   1  -6 3031.77   62.62
  -4  -1   6 3039.88   39.38
   4   1  -6 2952.02   39.13
  -4  -1   6 2943.09   43.40
  -4  -1   5 1949.90   38.01
  -4  -1   5 1900.78   35.32
  -4  -1   5 1955.18   31.84
   4   1  -5 1927.36   41.49
   4   1  -5 1933.93   46.35
  -4  -1   5 1950.98   32.38
   4   1  -5 2026.73   26.08
  -4  -1   5 2001.53   31.19
  -4  -1   4  282.08   10.39
  -4  -1   4  279.61   12.66
  -4  -1   4  289.58   11.97
  -4  -1   4  278.68   13.16
   4   1  -4  281.21   12.77
  -4  -1   4  300.04   26.44
   4   1  -4  273.93   15.31
   4   1  -4  277.65    6.54
  -4  -1   4  270.61   11.39
  -4  -1   3 4012.17   50.86
  -4  -1   3 4141.29   48.86
   4   1  -3 4173.42   49.18
   4   1  -3 3941.88   50.28
  -4  -1   3 3821.57  101.66
   4   1  -3 4243.90   62.16
  -4  -1   3 4035.36   64.90
  -4  -1   3 3974.04   54.92
  -4  -1   2 3362.82   44.02
   4   1  -2 3409.31   43.75
   4   1  -2 3352.38   40.05
  -4  -1   2 3568.09   96.48
   4   1  -2 3089.24   49.27
  -4  -1   2 3663.96   65.66
  -4  -1   2 3381.77   32.46
  -4  -1   2 3366.49   43.15
  -4  -1   2 3468.22   53.39
  -4  -1   1   12.65    3.40
  -4  -1   1   12.92    2.47
   4   1  -1   10.51    2.82
  -4  -1   1   20.45    5.26
  -4  -1   1   14.52    8.04
   4   1  -1    8.17    2.13
  -4  -1   1   11.83    2.49
  -4  -1   0 1723.41   31.90
   4   1   0 1729.86   31.11
  -4  -1   0 1844.21   60.94
  -4  -1   0 1815.43   21.53
   4   1   0 1781.28   30.80
  -4  -1   0 1952.23   44.48
  -4  -1   0 1856.08   44.70
  -4  -1  -1 3327.23   43.14
  -4  -1  -1 3040.87   48.20
   4   1   1 2939.79   45.96
  -4  -1  -1 3104.43   71.23
   4   1   1 3131.60   42.05
  -4  -1  -1 3007.26   62.29
  -4  -1  -1 3177.10   64.78
   4   1   2  178.15    8.02
  -4  -1  -2  171.71   11.29
  -4  -1  -2  161.19    5.25
   4   1   2  161.94   10.11
  -4  -1  -2  173.32   14.58
  -4  -1  -2  177.67    9.06
  -4  -1  -2  180.00   14.66
  -4  -1  -2  177.83   15.59
  -4  -1  -3 1343.01   36.45
   4   1   3 1258.97   31.86
  -4  -1  -3 1228.12   27.08
  -4  -1  -3 1173.71   34.19
  -4  -1  -3 1347.57   42.61
  -4  -1  -3 1301.84   44.46
   4   1   3 1319.83   22.58
  -4  -1  -4 1758.74   47.36
  -4  -1  -4 1638.13   37.88
   4   1   4 1708.95   41.58
  -4  -1  -4 1769.88   36.33
  -4  -1  -4 1800.77   50.27
  -4  -1  -4 1811.80   54.35
   4   1   5  259.33   17.69
  -4  -1  -5  283.33   19.98
  -4  -1  -5  262.25   20.11
  -4  -1  -5  252.29   19.61
  -4  -1  -5  258.08   15.02
  -4  -1  -6  175.84   18.14
   4   1   6  174.33   16.03
  -4  -1  -6  206.27   15.39
  -4  -1  -6  178.73   16.19
   4   1   6  208.54   16.56
  -4  -1  -6  174.56   16.16
  -4  -1  -7 1474.86   55.13
   4   1   7 1494.70   52.60
  -4  -1  -7 1538.12   48.44
  -4  -1  -7 1499.99   47.87
   4   1   7 1605.70   51.79
  -4  -1  -7 1663.26   48.48
  -4  -1  -8  268.85   23.73
   4   1   8  209.57   20.22
  -4  -1  -8  255.21   21.01
   4   1   8  231.16   20.89
   4   1   8  256.60   22.17
  -4  -1  -8  260.23   19.70
   4   1   9   31.83    7.98
   4   1   9   30.37    8.48
  -4  -1  -9   45.91   10.14
   4   1   9   29.34    8.26
  -4  -1  -9   40.98    7.92
  -4  -1 -10  552.35   32.96
   4   1  10  488.72   30.72
  -4  -1 -10  532.35   29.30
  -4  -1 -11  446.46   29.27
   4   1  11  402.11   27.24
  -4  -1 -11  421.66   26.60
  -4  -2  15  205.93   18.45
  -4  -2  15  281.06   24.62
   4   2 -15  228.77   20.20
   4   2 -15  249.80   24.01
  -4  -2  15  229.89   23.01
  -4  -2  14 1072.08   43.88
  -4  -2  14 1160.22   50.79
   4   2 -14 1082.79   44.78
   4   2 -14 1089.65   49.49
  -4  -2  14 1135.65   51.42
  -4  -2  13  348.35   25.26
  -4  -2  13  361.29   27.89
   4   2 -13  355.08   25.95
   4   2 -13  354.27   26.65
  -4  -2  13  325.27   26.85
  -4  -2  12   99.41   14.18
  -4  -2  12   90.87   12.95
   4   2 -12  105.66   14.65
   4   2 -12  100.78   14.02
  -4  -2  12  121.21   16.56
  -4  -2  11 1872.06   56.16
   4   2 -11 1853.92   48.75
   4   2 -11 1707.95   57.63
   4   2 -11 1850.51   53.18
  -4  -2  11 1928.14   58.07
  -4  -2  10 1593.68   55.58
  -4  -2  10 1844.33   50.76
   4   2 -10 1658.24   54.23
  -4  -2  10 1738.96   48.01
   4   2 -10 1740.09   50.10
   4   2 -10 1816.24   47.17
  -4  -2  10 1863.99   50.24
  -4  -2   9  226.01   19.93
  -4  -2   9  209.91   15.02
   4   2  -9  184.53   16.79
  -4  -2   9  170.35   17.01
   4   2  -9  192.36   15.80
   4   2  -9  207.69   13.36
  -4  -2   9  184.61   13.48
  -4  -2   8 1537.37   46.69
  -4  -2   8 1435.17   36.52
   4   2  -8 1444.71   31.68
   4   2  -8 1411.24   43.63
  -4  -2   8 1196.79   49.97
  -4  -2   8 1562.19   32.15
   4   2  -8 1344.26   42.35
  -4  -2   8 1390.25   34.17
  -4  -2   7 2399.96   52.61
  -4  -2   7 2275.83   44.06
   4   2  -7 2395.78   52.97
   4   2  -7 2209.44   54.01
  -4  -2   7 2522.96   40.64
   4   2  -7 2394.04   37.53
  -4  -2   7 2283.81   41.84
  -4  -2   7 2511.40   32.18
  -4  -2   6 1197.34   32.43
  -4  -2   6 1233.49   28.76
   4   2  -6 1260.99   37.19
   4   2  -6 1212.85   32.98
  -4  -2   6 1273.00   26.56
   4   2  -6 1248.50   23.12
  -4  -2   6 1217.83   27.28
  -4  -2   6 1279.77   23.51
  -4  -2   5  119.41    9.01
  -4  -2   5  121.12    8.05
   4   2  -5  123.63    6.77
   4   2  -5  127.46    9.08
   4   2  -5  127.05    6.01
  -4  -2   5  126.80    7.93
   4   2  -5  126.47   10.77
  -4  -2   5  130.38    8.02
  -4  -2   5  118.33    7.62
  -4  -2   4 1696.82   34.02
  -4  -2   4 1743.82   31.24
   4   2  -4 1621.68   27.58
   4   2  -4 1677.24   31.12
  -4  -2   4 1652.01   32.81
   4   2  -4 1626.45   37.47
   4   2  -4 1694.17   23.32
  -4  -2   4 1671.96   30.16
  -4  -2   4 1595.83   33.26
   4   2  -3 3236.64   43.32
   4   2  -3 3272.42   43.35
  -4  -2   3 3215.88   53.56
   4   2  -3 3283.64   52.96
  -4  -2   3 3315.03   35.58
  -4  -2   3 3383.94   45.31
  -4  -2   3 3390.83   56.14
  -4  -2   2  315.73   12.14
   4   2  -2  327.37   11.94
   4   2  -2  334.09   14.22
  -4  -2   2  344.73    9.03
  -4  -2   2  311.79   11.87
  -4  -2   2  366.48   18.68
  -4  -2   2  313.21   17.01
  -4  -2   1  130.90    7.86
   4   2  -1  130.04    7.99
   4   2  -1  135.91    8.62
  -4  -2   1  127.32   11.69
  -4  -2   1  135.16    6.58
  -4  -2   1  147.20   13.40
  -4  -2   0 2196.18   37.80
   4   2   0 2225.15   38.85
  -4  -2   0 2380.35   84.79
   4   2   0 2333.28   37.83
  -4  -2   0 2213.73   39.87
  -4  -2   0 2259.78   55.21
  -4  -2  -1  694.32   21.38
  -4  -2  -1  755.18   17.15
  -4  -2  -1  758.49   40.57
   4   2   1  705.75   21.80
   4   2   1  763.70   19.33
  -4  -2  -1  724.38   27.55
  -4  -2  -1  796.32   36.93
  -4  -2  -1  755.54   32.63
  -4  -2  -2  144.87   10.40
  -4  -2  -2  157.52   15.75
   4   2   2  130.70    9.96
  -4  -2  -2  156.50    7.98
  -4  -2  -2  152.41   14.24
  -4  -2  -2  157.83   17.04
   4   2   2  139.59    7.90
  -4  -2  -3 1131.31   24.44
   4   2   3 1113.57   23.33
  -4  -2  -3 1119.94   32.87
  -4  -2  -3 1122.02   21.64
  -4  -2  -3 1064.17   35.25
   4   2   3 1137.41   33.38
  -4  -2  -3 1093.37   39.51
  -4  -2  -4 1322.88   39.70
  -4  -2  -4 1247.26   33.52
   4   2   4 1376.06   40.88
  -4  -2  -4 1263.60   29.32
  -4  -2  -4 1254.84   42.92
  -4  -2  -4 1289.65   49.50
  -4  -2  -5   11.06    6.01
  -4  -2  -5    7.70    3.07
   4   2   5    3.60    4.47
  -4  -2  -5   11.85    3.61
  -4  -2  -5    9.59    4.90
  -4  -2  -6 1236.12   47.60
  -4  -2  -6 1228.04   44.17
   4   2   6 1118.25   45.26
  -4  -2  -6 1299.43   37.84
   4   2   6 1275.25   40.43
  -4  -2  -6 1146.43   41.12
  -4  -2  -7 1221.46   51.01
   4   2   7 1181.35   49.70
  -4  -2  -7 1266.04   44.51
   4   2   7 1257.52   44.60
  -4  -2  -7 1308.19   44.01
  -4  -2  -8   22.31    5.70
   4   2   8   21.66    5.67
   4   2   8   17.04    5.57
  -4  -2  -8   23.52    8.06
   4   2   8   26.30    7.69
  -4  -2  -8   20.41    6.16
  -4  -2  -9  354.21   27.94
   4   2   9  326.53   26.24
  -4  -2  -9  322.65   22.25
   4   2   9  324.95   26.09
  -4  -2 -10  757.75   34.83
   4   2  10  662.02   36.15
  -4  -2 -10  754.55   40.02
   4   2  10  733.53   38.37
   4   2  11  260.62   22.29
  -4  -3  15  727.66   36.69
   4   3 -15  805.97   39.70
   4   3 -15  692.73   35.02
   4   3 -15  828.63   45.27
  -4  -3  15  834.63   45.81
  -4  -3  14  576.27   33.65
  -4  -3  14  656.79   38.58
   4   3 -14  639.08   36.15
   4   3 -14  583.31   36.68
  -4  -3  14  597.71   38.67
  -4  -3  13   51.15   10.16
  -4  -3  13   33.45    7.90
   4   3 -13   52.34   10.76
   4   3 -13   61.72   11.02
  -4  -3  13   48.63   11.12
  -4  -3  12  530.56   30.01
   4   3 -12  499.50   31.50
   4   3 -12  496.33   28.74
  -4  -3  12  557.44   34.04
  -4  -3  11 2056.94   55.44
   4   3 -11 1853.31   59.71
   4   3 -11 2031.70   52.88
   4   3 -11 2028.73   53.24
  -4  -3  11 2088.51   58.98
  -4  -3  10  795.17   40.41
  -4  -3  10  859.30   32.42
   4   3 -10  791.03   36.36
   4   3 -10  855.25   34.46
   4   3 -10  861.31   29.85
  -4  -3  10  836.61   32.57
  -4  -3   9  366.31   25.83
  -4  -3   9  356.16   18.41
   4   3  -9  332.85   21.63
  -4  -3   9  389.82   18.71
   4   3  -9  330.16   20.93
   4   3  -9  346.51   16.47
  -4  -3   9  334.20   18.34
  -4  -3   8 3023.43   67.57
  -4  -3   8 2947.86   52.71
   4   3  -8 2903.90   61.39
   4   3  -8 2678.69   61.47
  -4  -3   8 3091.35   52.23
   4   3  -8 2826.34   46.46
  -4  -3   8 2773.81   51.82
  -4  -3   7 1791.75   37.15
  -4  -3   7 1732.72   44.74
   4   3  -7 1809.36   32.36
   4   3  -7 1752.62   42.34
  -4  -3   7 1847.52   37.19
   4   3  -7 1714.24   46.01
  -4  -3   7 1696.82   36.94
  -4  -3   7 1873.64   28.77
  -4  -3   6   87.48    8.69
  -4  -3   6   99.31    7.78
   4   3  -6   90.69    5.90
   4   3  -6   82.49    8.00
  -4  -3   6  101.01    7.85
   4   3  -6   89.72    9.76
   4   3  -6   96.71    6.34
  -4  -3   6  103.06    8.09
  -4  -3   6   76.00    6.77
  -4  -3   5 1820.05   38.15
   4   3  -5 1846.24   29.83
   4   3  -5 1786.34   35.33
  -4  -3   5 1814.82   35.75
   4   3  -5 1778.44   42.09
   4   3  -5 1930.49   29.03
  -4  -3   5 1813.77   34.81
  -4  -3   4 2812.33   47.17
  -4  -3   4 2816.81   43.88
   4   3  -4 2773.19   39.48
  -4  -3   4 2786.98   47.02
   4   3  -4 2846.49   52.09
   4   3  -3  478.35   14.93
  -4  -3   3  459.77   18.41
  -4  -3   3  466.72   12.15
   4   3  -3  487.74   18.97
  -4  -3   3  444.64   15.38
   4   3  -2  926.45   22.42
  -4  -3   2  832.76   27.94
  -4  -3   2  872.53   21.97
  -4  -3   2  886.52   18.12
   4   3  -2  910.77   25.06
  -4  -3   2  873.88   22.12
  -4  -3   1 1113.49   25.50
   4   3  -1 1147.88   26.92
  -4  -3   1 1049.99   34.69
   4   3  -1 1123.71   27.31
  -4  -3   1 1165.71   22.99
  -4  -3   1 1079.73   25.61
  -4  -3   0  968.87   24.57
   4   3   0  936.99   26.09
  -4  -3   0  911.91   34.29
  -4  -3   0  973.64   24.07
   4   3   0  981.36   24.86
  -4  -3  -1    3.64    1.91
   4   3   1   12.27    2.96
   4   3   1    6.34    2.69
  -4  -3  -1   12.36    4.93
  -4  -3  -1   10.43    2.86
  -4  -3  -2  618.01   15.36
   4   3   2  588.44   18.72
   4   3   2  579.26   24.20
  -4  -3  -2  557.51   20.99
  -4  -3  -2  559.20   29.33
  -4  -3  -2  572.45   27.00
  -4  -3  -3  977.66   30.59
  -4  -3  -3 1030.31   40.87
  -4  -3  -3 1059.42   22.57
  -4  -3  -3  977.59   39.84
   4   3   3 1041.73   36.05
  -4  -3  -3 1056.58   22.38
  -4  -3  -4   34.19    6.43
   4   3   4   20.72    5.41
  -4  -3  -4   34.37    8.10
  -4  -3  -5  363.64   22.46
   4   3   5  360.48   25.46
  -4  -3  -5  369.07   24.43
  -4  -3  -5  395.76   28.15
  -4  -3  -6 1520.35   52.40
   4   3   6 1395.59   54.67
   4   3   6 1603.79   44.56
  -4  -3  -6 1542.36   50.69
  -4  -3  -6 1484.67   51.83
  -4  -3  -7  255.91   23.25
   4   3   7  237.23   23.52
  -4  -3  -7  298.58   21.79
  -4  -3  -7  215.97   20.16
  -4  -3  -8   15.65    6.57
  -4  -3  -8   14.34    6.45
   4   3   8   23.45    8.33
  -4  -3  -8   16.62    5.90
  -4  -3  -8   32.47    7.82
  -4  -3  -9  564.53   36.27
   4   3   9  529.27   33.38
  -4  -3  -9  610.31   32.28
   4   3   9  517.79   34.22
  -4  -3 -10  688.28   39.16
   4   3  10  673.38   36.88
  -4  -3 -10  713.11   34.96
   4   3  10  718.63   39.30
  -4  -4  15  473.47   30.57
   4   4 -15  475.04   34.87
   4   4 -15  492.62   33.21
   4   4 -15  423.09   26.75
  -4  -4  15  492.26   36.48
  -4  -4  14  128.95   16.59
   4   4 -14  145.18   18.47
   4   4 -14  136.27   17.55
  -4  -4  14  166.26   20.81
  -4  -4  13   48.58    9.70
  -4  -4  13   42.77    9.53
   4   4 -13   57.96   11.90
   4   4 -13   61.42   11.43
  -4  -4  13   59.62   13.30
  -4  -4  12 1121.38   41.46
   4   4 -12 1119.26   41.85
   4   4 -12 1038.82   45.73
  -4  -4  12 1161.57   48.28
  -4  -4  11  948.36   35.30
   4   4 -11  895.46   40.26
   4   4 -11  979.87   34.70
   4   4 -11  952.59   36.90
  -4  -4  11  984.90   39.50
  -4  -4  10  158.86   18.67
  -4  -4  10  147.06   12.85
   4   4 -10  162.16   16.15
   4   4 -10  154.95   12.20
   4   4 -10  135.23   13.89
  -4  -4  10  150.20   13.86
  -4  -4   9  859.87   40.03
  -4  -4   9  844.92   27.83
   4   4  -9  838.05   33.41
  -4  -4   9  933.78   31.68
   4   4  -9  834.24   25.75
   4   4  -9  793.62   33.53
  -4  -4   9  809.62   29.16
  -4  -4   8 1647.75   48.80
  -4  -4   8 1606.38   36.58
   4   4  -8 1600.19   42.80
  -4  -4   8 1657.55   39.68
   4   4  -8 1608.79   34.02
  -4  -4   8 1558.40   38.63
  -4  -4   7  772.65   29.43
  -4  -4   7  866.60   24.63
   4   4  -7  830.85   18.91
   4   4  -7  789.46   27.03
  -4  -4   7  801.62   25.57
   4   4  -7  840.90   22.38
  -4  -4   7  807.62   25.67
   4   4  -7  792.92   31.26
  -4  -4   7  824.45   21.06
  -4  -4   6  343.82   17.55
   4   4  -6  367.36   12.46
   4   4  -6  379.04   13.73
  -4  -4   6  357.44   16.27
   4   4  -6  358.09   19.69
  -4  -4   6  337.88   15.76
  -4  -4   5 2191.01   43.66
   4   4  -5 2303.79   35.80
  -4  -4   5 2167.47   42.63
   4   4  -5 2245.63   35.53
   4   4  -5 2153.93   48.23
  -4  -4   5 2212.70   41.57
  -4  -4   4 1443.74   32.64
   4   4  -4 1436.23   28.30
  -4  -4   4 1393.79   33.66
  -4  -4   4 1350.09   25.07
   4   4  -4 1439.92   36.57
  -4  -4   4 1404.96   31.04
  -4  -4   3   15.38    3.92
   4   4  -3   20.16    4.44
   4   4  -3   18.38    3.22
  -4  -4   3   15.39    2.60
  -4  -4   3   17.32    3.51
  -4  -4   2 1579.04   32.30
   4   4  -2 1607.79   33.68
  -4  -4   2 1608.63   40.34
  -4  -4   2 1646.55   28.85
   4   4  -2 1703.78   37.29
  -4  -4   2 1589.73   32.99
  -4  -4   1 1676.25   33.83
   4   4  -1 1656.37   37.03
  -4  -4   1 1629.67   44.77
  -4  -4   1 1705.18   31.30
  -4  -4   1 1653.38   34.41
  -4  -4   0   22.04    4.77
  -4  -4   0   23.70    3.97
   4   4   0   26.21    4.57
   4   4   0   30.70    5.32
  -4  -4   0   35.47    4.68
   4   4   1 1289.60   30.96
  -4  -4  -1 1243.28   31.07
   4   4   1 1278.88   37.78
  -4  -4  -1 1279.64   33.81
  -4  -4  -1 1229.34   43.57
  -4  -4  -2 1455.78   35.68
   4   4   2 1508.16   33.76
   4   4   2 1489.65   44.77
  -4  -4  -2 1377.41   47.94
  -4  -4  -2 1358.77   41.32
  -4  -4  -3  270.46   15.92
   4   4   3  289.01   21.23
  -4  -4  -3  276.29   21.81
  -4  -4  -3  267.68   20.57
  -4  -4  -4  339.97   19.68
   4   4   4  332.69   24.60
  -4  -4  -4  362.04   25.95
  -4  -4  -5 1125.38   39.76
   4   4   5 1011.82   46.71
  -4  -4  -5 1089.25   45.42
  -4  -4  -6  404.92   29.44
  -4  -4  -6  437.38   27.26
  -4  -4  -6  479.58   29.80
   4   4   6  399.73   30.48
   4   4   7   23.57    8.15
  -4  -4  -7   18.25    8.02
  -4  -4  -7   23.21    6.83
  -4  -4  -7   26.22    7.78
  -4  -4  -8  265.47   24.30
   4   4   8  284.54   25.40
  -4  -4  -8  314.45   23.72
  -4  -4  -8  220.82   18.99
   4   4   8  259.94   25.17
  -4  -4  -9  790.84   43.02
   4   4   9  841.16   42.03
  -4  -4  -9  859.13   38.83
  -4  -4  -9  871.61   40.73
   4   4   9  755.01   42.88
   4   5 -15  277.47   26.44
  -4  -5  15  261.79   28.28
  -4  -5  14   -8.81    9.22
   4   5 -14    6.43    4.48
   4   5 -14    5.47    4.35
  -4  -5  14    5.05    5.37
   4   5 -13  418.99   30.52
   4   5 -13  388.58   26.66
   4   5 -13  468.48   29.43
  -4  -5  13  470.17   33.57
   4   5 -12 1153.73   48.89
   4   5 -12 1246.63   43.04
  -4  -5  12 1323.43   51.25
  -4  -5  11  184.17   21.32
  -4  -5  11  200.07   15.20
   4   5 -11  206.43   19.26
   4   5 -11  200.70   15.39
  -4  -5  11  203.40   17.92
   4   5 -11  211.49   18.01
  -4  -5  10  123.35   17.24
  -4  -5  10  127.03   11.06
  -4  -5  10  122.11   13.11
   4   5 -10  114.44   10.60
  -4  -5  10  114.41   12.20
   4   5 -10  116.69   13.36
  -4  -5   9  932.46   41.60
  -4  -5   9  996.53   29.51
  -4  -5   9 1012.16   35.05
   4   5  -9  925.50   28.12
   4   5  -9  866.38   35.92
  -4  -5   9  922.01   32.17
  -4  -5   8  590.31   28.76
  -4  -5   8  615.81   25.26
   4   5  -8  624.98   21.42
   4   5  -8  578.30   28.27
  -4  -5   8  565.01   23.65
  -4  -5   7   60.12    8.45
  -4  -5   7   61.05    7.52
   4   5  -7   76.12    6.98
   4   5  -7   65.39    9.26
  -4  -5   7   69.58    7.92
  -4  -5   6  422.17   19.69
   4   5  -6  430.51   15.03
  -4  -5   6  405.28   18.76
   4   5  -6  468.29   16.81
   4   5  -6  430.90   22.36
  -4  -5   6  484.33   19.96
  -4  -5   5 1106.65   30.44
   4   5  -5 1131.10   26.44
  -4  -5   5 1071.40   30.65
  -4  -5   5 1139.42   30.11
   4   5  -5 1067.03   34.43
  -4  -5   4  492.59   18.72
   4   5  -4  445.98   17.04
  -4  -5   4  471.72   20.19
  -4  -5   4  446.51   15.23
  -4  -5   4  455.71   18.09
   4   5  -4  474.30   21.55
   4   5  -3  637.07   24.36
  -4  -5   3  608.62   20.70
   4   5  -3  609.39   21.63
  -4  -5   3  652.92   24.67
  -4  -5   3  639.54   18.32
  -4  -5   2 1318.91   30.81
   4   5  -2 1409.96   36.07
  -4  -5   2 1398.20   38.93
  -4  -5   2 1392.54   28.89
  -4  -5   2 1351.23   31.80
   4   5  -2 1464.68   36.68
   4   5  -1  999.19   29.81
  -4  -5   1  980.61   26.45
   4   5  -1  933.69   31.41
  -4  -5   1  975.28   35.09
  -4  -5   1  960.16   24.77
  -4  -5   1  937.65   26.85
   4   5   0  245.49   14.26
  -4  -5   0  219.18   12.78
  -4  -5   0  225.46   17.88
   4   5   0  214.01   16.06
  -4  -5   0  226.91   12.67
  -4  -5  -1 1657.89   37.98
   4   5   1 1584.16   49.41
   4   5   1 1687.91   39.00
  -4  -5  -1 1541.87   51.26
  -4  -5  -1 1641.34   39.85
  -4  -5  -2 1311.57   34.98
   4   5   2 1298.53   47.78
  -4  -5  -2 1312.01   48.71
  -4  -5  -2 1322.68   40.68
  -4  -5  -3   14.09    3.95
   4   5   3   11.19    4.93
  -4  -5  -3   26.95    7.71
  -4  -5  -3   17.65    4.85
  -4  -5  -4 1097.61   36.48
   4   5   4  988.65   46.77
  -4  -5  -4 1060.03   46.48
  -4  -5  -5 1175.92   41.08
  -4  -5  -5 1186.02   50.63
  -4  -5  -6  121.41   14.20
   4   5   6  132.10   18.34
  -4  -5  -6  131.12   16.58
  -4  -5  -7  242.98   22.47
   4   5   7  230.85   22.95
  -4  -5  -7  236.62   22.61
  -4  -5  -7  160.00   19.26
  -4  -5  -8  791.02   42.67
   4   5   8  785.63   41.60
  -4  -5  -8  911.22   43.34
   4   5   8  806.09   45.71
  -4  -5  -9  399.63   30.61
  -4  -5  -9  493.58   31.38
   4   6 -15  170.38   21.15
  -4  -6  14  128.33   17.39
   4   6 -14  144.70   16.51
   4   6 -14  175.79   19.99
  -4  -6  14  184.24   23.21
   4   6 -13 1333.04   48.84
  -4  -6  13 1422.42   57.79
  -4  -6  12  292.84   27.51
   4   6 -12  364.00   23.06
   4   6 -12  317.55   24.64
  -4  -6  12  377.54   27.05
  -4  -6  11   33.43    9.32
   4   6 -11   47.83    9.42
   4   6 -11   25.88    8.74
   4   6 -11   34.45    6.78
  -4  -6  11   43.38    9.15
  -4  -6  10 1002.54   47.36
   4   6 -10  806.71   46.29
  -4  -6  10 1088.25   41.14
  -4  -6  10  936.97   35.87
   4   6 -10  861.99   38.08
   4   6 -10  986.11   32.18
  -4  -6   9  957.89   40.99
  -4  -6   9  933.83   35.62
   4   6  -9  876.88   28.65
  -4  -6   9  846.00   31.94
   4   6  -9  811.87   36.07
  -4  -6   8  147.77   14.34
  -4  -6   8  144.11   12.83
   4   6  -8  149.10   11.09
  -4  -6   8  151.17   12.48
   4   6  -8  150.91   15.03
  -4  -6   7  266.16   17.12
  -4  -6   7  257.88   16.46
   4   6  -7  302.56   15.33
  -4  -6   7  276.52   16.34
   4   6  -7  261.98   19.19
  -4  -6   6  931.56   30.70
  -4  -6   6  961.57   30.52
   4   6  -6 1046.28   27.76
  -4  -6   6 1013.57   31.08
   4   6  -6  950.14   35.45
  -4  -6   5  238.16   14.25
   4   6  -5  247.50   14.41
  -4  -6   5  230.04   14.85
  -4  -6   5  230.10   12.04
  -4  -6   5  245.36   14.43
   4   6  -5  239.78   17.07
  -4  -6   4   61.84    6.97
   4   6  -4   55.78    7.17
  -4  -6   4   60.28    7.73
  -4  -6   4   61.05    6.13
  -4  -6   4   55.49    6.67
   4   6  -4   64.20    8.96
   4   6  -3 1243.83   37.89
  -4  -6   3 1175.88   35.48
  -4  -6   3 1152.92   27.81
  -4  -6   3 1121.88   30.47
   4   6  -3 1228.33   36.58
   4   6  -2  671.31   26.26
  -4  -6   2  643.30   21.90
   4   6  -2  635.89   28.85
  -4  -6   2  644.94   27.38
  -4  -6   2  640.83   20.70
  -4  -6   2  650.74   22.82
  -4  -6   1   -8.61    6.29
  -4  -6   1    0.38    1.96
   4   6  -1   -0.51    2.64
   4   6  -1    0.19    5.29
  -4  -6   1   -0.25    2.95
  -4  -6   0  693.15   24.22
   4   6   0  700.81   26.42
  -4  -6   0  655.94   32.02
   4   6   0  686.61   34.13
  -4  -6   0  680.91   23.70
  -4  -6  -1 1195.02   46.64
  -4  -6  -1 1289.13   34.94
   4   6   1 1263.78   49.91
  -4  -6  -1 1305.18   36.48
  -4  -6  -2  467.03   21.20
   4   6   2  399.30   29.36
  -4  -6  -2  415.31   22.84
  -4  -6  -2  405.81   28.09
  -4  -6  -3  268.39   17.05
   4   6   3  225.48   19.72
   4   6   3  232.40   23.11
  -4  -6  -3  244.55   19.94
  -4  -6  -3  274.89   23.56
  -4  -6  -4 1305.60   41.01
  -4  -6  -4 1375.18   53.99
  -4  -6  -4 1363.64   54.00
  -4  -6  -5 1038.36   39.29
   4   6   5  966.63   48.97
  -4  -6  -5 1079.77   51.71
  -4  -6  -6   11.98    4.43
   4   6   6   22.31    8.83
  -4  -6  -6   12.39    6.03
  -4  -6  -7  588.22   35.11
   4   6   7  533.11   34.74
  -4  -6  -7  583.27   37.58
  -4  -6  -8  846.60   44.51
  -4  -6  -8  993.72   47.80
   4   7 -14  433.46   28.91
   4   7 -14  497.46   32.76
  -4  -7  13  623.16   42.73
   4   7 -13  718.70   38.33
   4   7 -13  878.45   39.81
  -4  -7  13  939.49   46.82
  -4  -7  12   35.91    9.80
   4   7 -12   28.81    8.07
   4   7 -12   34.71    7.07
  -4  -7  12   38.41    9.28
  -4  -7  11  329.87   29.68
   4   7 -11  248.07   23.07
  -4  -7  11  326.97   25.29
   4   7 -11  307.35   19.72
  -4  -7  11  312.10   22.71
   4   7 -11  263.76   22.39
  -4  -7  10 1119.19   49.33
   4   7 -10 1193.20   57.46
   4   7 -10 1004.27   43.79
  -4  -7  10 1178.05   45.07
   4   7 -10 1074.91   35.28
  -4  -7  10 1036.60   39.04
   4   7 -10 1010.94   43.45
  -4  -7   9  450.25   27.88
   4   7  -9  463.29   37.16
   4   7  -9  376.55   25.94
  -4  -7   9  419.16   24.84
   4   7  -9  432.52   21.13
  -4  -7   9  452.62   24.03
   4   7  -9  376.97   25.92
  -4  -7   8  195.46   15.92
   4   7  -8  210.09   13.99
  -4  -7   8  209.18   15.52
  -4  -7   8  217.41   17.17
   4   7  -8  202.62   18.98
  -4  -7   7 1587.55   43.64
  -4  -7   7 1600.80   42.69
  -4  -7   7 1522.44   43.85
   4   7  -7 1705.90   40.15
   4   7  -7 1563.37   50.29
  -4  -7   6  850.81   29.26
  -4  -7   6  801.13   30.31
  -4  -7   6  869.99   26.36
  -4  -7   6  933.63   31.12
   4   7  -6  905.87   36.46
  -4  -7   5   15.36    3.97
  -4  -7   5   13.04    3.63
   4   7  -5    9.95    4.67
  -4  -7   5    5.52    2.61
  -4  -7   5   15.28    3.52
   4   7  -4 1567.80   46.03
  -4  -7   4 1672.40   38.03
  -4  -7   4 1560.30   42.66
  -4  -7   4 1644.63   36.25
  -4  -7   4 1579.35   39.06
  -4  -7   3  637.76   22.88
   4   7  -3  633.39   27.82
  -4  -7   3  640.51   22.03
   4   7  -3  662.48   34.17
  -4  -7   3  633.91   27.37
  -4  -7   3  604.36   23.17
   4   7  -2    6.56    3.34
  -4  -7   2    9.42    3.56
   4   7  -2    6.85    3.04
  -4  -7   2    2.14    4.83
  -4  -7   2    7.48    2.37
  -4  -7   2    5.76    2.54
  -4  -7   1  634.80   23.55
  -4  -7   1  632.66   30.60
  -4  -7   1  595.65   22.54
   4   7  -1  613.78   36.23
  -4  -7   0 1379.57   36.58
   4   7   0 1244.61   53.56
  -4  -7   0 1310.91   35.73
  -4  -7   0 1246.32   46.42
  -4  -7  -1  685.17   26.29
   4   7   1  550.84   34.68
   4   7   1  549.89   36.60
  -4  -7  -1  607.43   33.87
  -4  -7  -1  653.68   26.91
  -4  -7  -2   46.51    9.50
  -4  -7  -2   42.88    6.42
   4   7   2   37.52   10.14
   4   7   2   24.70    8.52
  -4  -7  -2   41.80    7.50
  -4  -7  -3 1169.75   37.65
   4   7   3 1076.44   51.98
  -4  -7  -3 1144.98   44.81
  -4  -7  -3 1207.57   51.32
  -4  -7  -4  807.83   33.13
  -4  -7  -4  830.87   43.22
   4   7   4  759.26   42.95
  -4  -7  -4  759.17   40.49
  -4  -7  -5  129.49   14.04
   4   7   5  151.31   19.25
  -4  -7  -5  117.51   17.69
  -4  -7  -6  203.93   19.58
   4   7   6  217.66   22.87
  -4  -7  -6  225.99   24.78
  -4  -7  -7  726.46   40.22
  -4  -7  -7  824.33   46.33
   4   8 -13   56.12   10.41
   4   8 -13   47.27   10.39
  -4  -8  12   37.25   10.92
   4   8 -12   33.41    8.04
  -4  -8  12   35.36    9.47
  -4  -8  11  447.03   34.15
  -4  -8  11  484.09   32.37
   4   8 -11  407.26   28.54
   4   8 -11  455.67   25.28
  -4  -8  11  432.03   27.11
  -4  -8  10  698.79   38.17
   4   8 -10  564.76   34.00
   4   8 -10  722.53   46.34
  -4  -8  10  636.50   34.41
   4   8 -10  649.92   28.77
  -4  -8  10  616.73   30.70
  -4  -8   9    2.02    3.70
   4   8  -9    7.18    5.04
  -4  -8   9   -0.24    4.44
   4   8  -9    2.32    2.79
  -4  -8   9    1.07    3.87
   4   8  -9   -5.32    7.50
   4   8  -8  656.76   34.81
  -4  -8   8  660.22   30.35
  -4  -8   8  644.44   30.91
   4   8  -8  726.57   28.26
  -4  -8   8  646.92   28.73
   4   8  -7  925.29   40.64
  -4  -8   7 1018.61   35.28
  -4  -8   7 1040.67   31.74
  -4  -8   7 1030.32   35.41
   4   8  -7 1088.23   66.94
  -4  -8   7 1026.32   37.49
  -4  -8   6   28.56    6.00
   4   8  -6   26.23    6.95
  -4  -8   6   23.38    4.70
  -4  -8   6   23.43    5.73
   4   8  -6   30.95   13.43
  -4  -8   6   22.01    5.62
   4   8  -5  583.62   29.97
  -4  -8   5  490.43   21.73
   4   8  -5  497.27   47.72
  -4  -8   5  473.57   24.19
  -4  -8   5  472.81   20.41
  -4  -8   5  476.96   22.48
   4   8  -4 1653.18   49.63
   4   8  -4 1550.38   80.95
  -4  -8   4 1494.77   44.42
  -4  -8   4 1615.45   38.56
  -4  -8   4 1564.49   40.89
  -4  -8   3  426.32   19.61
   4   8  -3  405.36   23.95
   4   8  -3  395.69   38.73
  -4  -8   3  410.39   23.36
  -4  -8   3  447.80   19.78
  -4  -8   3  438.99   20.65
  -4  -8   2  189.31   12.94
   4   8  -2  163.27   24.31
   4   8  -2  155.30   20.82
  -4  -8   2  155.08   15.05
  -4  -8   2  179.15   12.66
  -4  -8   2  169.72   12.97
  -4  -8   1 1441.62   38.14
   4   8  -1 1311.35   63.80
   4   8  -1 1290.21   59.54
  -4  -8   1 1398.74   48.39
  -4  -8   1 1398.37   37.83
  -4  -8   0 1069.61   44.92
  -4  -8   0 1211.90   35.88
   4   8   0 1114.32   56.69
   4   8   0 1082.56   53.51
  -4  -8   0 1134.83   35.40
  -4  -8  -1    4.99    2.84
   4   8   1    3.76    5.66
  -4  -8  -1    4.37    6.09
  -4  -8  -1    2.74    4.08
   4   8   1    1.10    3.55
  -4  -8  -2 1370.08   40.55
  -4  -8  -2 1232.56   52.91
   4   8   2 1230.96   55.86
  -4  -8  -2 1308.36   44.49
  -4  -8  -3  999.69   36.09
  -4  -8  -3 1019.95   48.97
   4   8   3  844.92   42.67
   4   8   3  903.94   47.04
  -4  -8  -3  955.50   42.36
  -4  -8  -4  269.86   19.65
   4   8   4  257.92   25.01
  -4  -8  -4  279.87   25.70
  -4  -8  -4  219.15   22.05
  -4  -8  -5  127.09   14.65
   4   8   5  123.23   17.60
  -4  -8  -5  120.20   17.90
  -4  -8  -6  427.12   28.88
  -4  -8  -6  454.02   35.98
  -4  -9  12  258.81   28.37
   4   9 -12  237.23   20.13
  -4  -9  11  333.18   29.02
   4   9 -11  253.11   23.26
   4   9 -11  321.60   29.85
  -4  -9  11  317.79   27.16
   4   9 -11  300.69   21.42
  -4  -9  11  287.45   22.76
   4   9 -10   12.74    7.36
  -4  -9  10    4.92    5.15
   4   9 -10   -1.42    4.74
  -4  -9  10    1.54    4.58
   4   9 -10    2.23    3.51
  -4  -9  10   14.19    5.96
  -4  -9   9  267.42   21.56
   4   9  -9  245.99   23.06
   4   9  -9  331.43   34.98
  -4  -9   9  264.02   21.83
   4   9  -9  301.01   19.86
  -4  -9   9  278.34   20.16
  -4  -9   8  454.10   25.28
   4   9  -8  372.14   27.54
   4   9  -8  483.56   46.05
  -4  -9   8  409.39   25.65
  -4  -9   8  425.71   22.12
  -4  -9   8  465.49   25.41
  -4  -9   7  130.19   12.90
   4   9  -7   97.25   13.88
  -4  -9   7  111.75   13.37
  -4  -9   7  124.05   11.69
  -4  -9   7  134.31   13.24
   4   9  -7  109.70   24.11
  -4  -9   6   17.65    4.44
  -4  -9   6   17.32    4.74
   4   9  -6   25.42    7.17
  -4  -9   6   17.29    5.42
   4   9  -6   11.85   10.25
  -4  -9   6   13.52    4.76
  -4  -9   5  822.22   28.78
   4   9  -5  817.26   64.05
  -4  -9   5  717.82   32.02
  -4  -9   5  792.01   28.55
  -4  -9   5  804.64   30.70
  -4  -9   4  631.73   25.45
   4   9  -4  574.11   52.60
  -4  -9   4  627.44   29.93
  -4  -9   4  622.40   26.46
  -4  -9   4  646.28   25.62
  -4  -9   3   19.51    4.50
  -4  -9   3   14.83    4.79
  -4  -9   3   17.79    4.17
  -4  -9   3   17.85    4.62
   4   9  -3   12.04    8.32
  -4  -9   2  498.99   22.55
   4   9  -2  485.62   42.90
  -4  -9   2  496.11   28.53
  -4  -9   2  480.04   22.54
  -4  -9   2  509.20   23.93
  -4  -9   1 1602.92   42.15
   4   9  -1 1468.16   63.33
  -4  -9   1 1490.69   41.66
  -4  -9   1 1527.44   54.01
  -4  -9   0  311.14   18.61
  -4  -9   0  298.35   24.67
   4   9   0  272.34   28.74
   4   9   0  323.94   29.47
  -4  -9   0  295.11   18.92
  -4  -9  -1  260.56   17.71
  -4  -9  -1  218.42   22.26
   4   9   1  212.22   23.73
   4   9   1  245.44   25.35
  -4  -9  -1  257.93   18.82
  -4  -9  -2 1078.02   37.56
   4   9   2  952.51   48.38
   4   9   2 1056.29   51.47
  -4  -9  -2 1026.40   49.96
  -4  -9  -2 1065.93   42.64
  -4  -9  -3  364.00   22.55
  -4  -9  -3  392.46   31.21
   4   9   3  410.57   31.55
  -4  -9  -3  367.40   27.39
  -4  -9  -4   -4.84    5.23
  -4  -9  -4   -2.56    6.62
   4   9   4   15.32    7.56
  -4  -9  -4   -9.97    8.19
  -4 -10  11  125.35   17.82
   4  10 -11  108.09   18.04
  -4 -10  11  105.47   16.57
   4  10 -11   97.22   12.98
  -4 -10  10  126.12   16.08
   4  10 -10  137.27   21.87
  -4 -10  10  125.54   16.55
  -4 -10  10  131.57   15.21
  -4 -10   9  506.73   29.29
   4  10  -9  592.58   48.41
  -4 -10   9  492.18   30.94
  -4 -10   9  474.48   25.45
  -4 -10   9  515.87   28.59
  -4 -10   8  244.02   18.88
   4  10  -8  294.68   36.94
  -4 -10   8  231.09   20.31
  -4 -10   8  232.27   17.24
  -4 -10   8  264.96   19.97
   4  10  -7   16.36    9.83
  -4 -10   7   13.92    5.07
  -4 -10   7    6.96    4.20
  -4 -10   7   16.17    5.25
  -4 -10   7   20.84    6.28
   4  10  -6  453.51   48.37
  -4 -10   6  429.68   26.21
  -4 -10   6  473.03   23.89
  -4 -10   6  492.44   25.58
  -4 -10   5  664.70   27.62
   4  10  -5  642.03   57.71
  -4 -10   5  656.62   32.51
  -4 -10   5  663.71   28.15
  -4 -10   5  710.66   30.05
   4  10  -4   73.31   20.12
  -4 -10   4   85.67    9.78
  -4 -10   4   83.07   12.05
  -4 -10   4   81.01    9.77
  -4 -10   4   94.11   11.01
  -4 -10   3  177.78   13.87
   4  10  -3  155.07   26.18
  -4 -10   3  166.78   16.74
  -4 -10   3  172.45   14.12
  -4 -10   3  186.94   15.00
  -4 -10   2  636.54   26.81
   4  10  -2  602.78   47.23
  -4 -10   2  649.11   27.99
  -4 -10   2  629.48   34.52
  -4 -10   1  475.74   31.46
  -4 -10   1  482.43   23.71
   4  10  -1  468.87   39.87
  -4 -10   1  498.89   25.26
   4  10   0   -1.57    7.18
  -4 -10   0   -1.36    3.61
  -4 -10   0   -3.75    8.09
  -4 -10   0    4.06    3.41
  -4 -10  -1  382.70   22.12
   4  10   1  340.42   30.31
   4  10   1  374.87   31.38
  -4 -10  -1  311.62   27.87
  -4 -10  -1  355.65   23.56
  -4 -10  -2  478.97   35.82
   4  10   2  520.28   35.65
   4  10   2  450.59   33.98
  -4 -10  -2  483.96   29.92
   4  10   3  274.20   25.44
  -4 -10  -3  257.66   23.87
  -4 -11  10  295.55   24.27
   4  11  -9  642.74   51.30
  -4 -11   9  551.85   34.29
  -4 -11   9  549.73   28.92
   4  11  -8   85.30   20.33
  -4 -11   8   56.08   10.54
  -4 -11   8   49.33    8.62
  -4 -11   8   62.81   10.58
   4  11  -7  363.61   42.48
  -4 -11   7  284.87   22.97
  -4 -11   7  309.21   20.88
  -4 -11   7  344.20   22.91
   4  11  -6 1021.24   72.43
  -4 -11   6  953.80   41.78
  -4 -11   6 1046.69   38.26
  -4 -11   6 1053.02   39.28
  -4 -11   5  290.65   18.95
   4  11  -5  335.84   42.39
  -4 -11   5  282.93   22.77
  -4 -11   5  276.16   19.21
  -4 -11   5  304.17   20.62
  -4 -11   4   76.94    9.76
   4  11  -4   80.81   20.83
  -4 -11   4   74.85   11.99
  -4 -11   4   69.94    9.75
  -4 -11   4   75.34   10.51
  -4 -11   3  533.49   25.26
   4  11  -3  565.85   48.02
  -4 -11   3  542.44   32.45
  -4 -11   3  525.39   26.60
  -4 -11   3  572.86   27.56
  -4 -11   2  669.63   28.57
  -4 -11   2  610.60   36.13
   4  11  -2  607.44   47.85
  -4 -11   2  634.74   29.75
   4  11  -1   60.29   14.94
  -4 -11   1   59.99    9.45
   4  11   0  193.28   24.38
  -4 -11   0  180.31   16.99
  -4 -12   5   33.95    6.86
   5 -12  -3  635.30   30.67
   5 -12  -2   65.71    9.73
   5 -12  -1   95.44   11.60
   5 -12   0  576.29   28.32
   5 -12   1  358.85   22.75
   5 -12   1  328.54   21.50
   5 -12   2    6.49    4.66
   5 -12   2   -1.30    3.95
   5 -12   3  345.31   23.99
   5 -12   3  373.68   23.46
   5 -12   4  303.23   21.51
  -5  11   6  251.45   24.82
   5 -11  -6  247.21   21.07
  -5  11   5   18.67    6.37
  -5  11   5   28.09    7.26
   5 -11  -5   20.14    6.20
   5 -11  -4  440.86   29.42
  -5  11   4  482.23   37.93
  -5  11   4  523.08   28.71
   5 -11  -4  439.40   24.56
   5 -11  -3  481.57   30.10
  -5  11   3  525.73   42.88
  -5  11   3  581.76   29.65
   5 -11  -3  515.26   25.79
   5 -11  -2   15.69    5.39
  -5  11   2   -8.04    9.80
   5 -11  -2    0.65    4.46
  -5  11   1  474.57   48.96
   5 -11  -1  398.85   21.74
   5 -11   0 1013.70   35.39
   5 -11   0  967.41   34.49
  -5  11  -1  132.47   28.16
   5 -11   1  111.16   12.17
   5 -11   1  100.99   11.05
  -5  11  -2  293.08   40.75
   5 -11   2  316.30   21.24
   5 -11   2  285.00   18.91
  -5  11  -3 1014.20   72.81
   5 -11   3 1043.44   39.93
   5 -11   3 1053.29   37.51
  -5  11  -4  347.40   40.19
   5 -11   4  292.86   22.50
   5 -11   4  306.04   20.53
  -5  11  -5   -5.32    7.99
   5 -11   5    3.00    3.65
  -5  11  -5   -3.03    3.89
  -5  11  -5   -1.74    4.72
   5 -11   5   -0.86    3.02
  -5  11  -6  549.14   42.94
  -5  11  -6  559.79   29.67
  -5  11  -6  564.42   30.32
  -5  10   8  378.90   30.45
   5 -10  -8  354.97   28.92
   5 -10  -7  293.76   25.48
  -5  10   7  310.46   23.50
   5 -10  -7  291.30   23.66
  -5  10   6    2.03    3.45
   5 -10  -6    3.72    4.26
  -5  10   6    0.02    4.14
   5 -10  -6   -4.65    4.98
   5 -10  -5  203.61   19.90
  -5  10   5  183.63   21.46
  -5  10   5  211.78   17.47
   5 -10  -5  194.00   16.24
   5 -10  -4  405.78   27.13
  -5  10   4  416.16   34.40
  -5  10   4  454.98   24.89
   5 -10  -4  398.60   22.07
   5 -10  -3   71.68   11.18
  -5  10   3   66.07    9.59
  -5  10   3   70.77   16.14
   5 -10  -3   63.19    8.35
  -5  10   2  160.35   26.11
  -5  10   2  152.40   14.51
   5 -10  -2  120.92   11.12
   5 -10  -1  899.75   30.48
   5 -10  -1  853.46   30.06
   5 -10   0  673.21   26.69
  -5  10   0  711.35   63.84
   5 -10   0  726.27   28.32
  -5  10  -1   10.82    7.69
   5 -10   1   13.73    4.22
   5 -10   1   -3.98    4.51
  -5  10  -2  813.43   67.21
   5 -10   2  737.48   30.86
   5 -10   2  731.29   28.65
  -5  10  -3 1117.01   74.83
   5 -10   3 1031.46   38.26
   5 -10   3 1072.13   35.54
  -5  10  -4  188.69   28.24
   5 -10   4  189.30   17.02
  -5  10  -4  184.64   15.67
   5 -10   4  179.41   14.52
  -5  10  -4  175.11   15.03
  -5  10  -5  305.83   32.36
   5 -10   5  304.13   22.98
  -5  10  -5  329.80   21.34
  -5  10  -5  301.97   20.36
   5 -10   6 1264.66   50.03
  -5  10  -6 1207.71   60.40
  -5  10  -6 1334.18   44.90
  -5  10  -6 1319.66   45.42
   5 -10   7  385.11   29.69
  -5  10  -7  375.49   25.07
  -5  10  -7  409.46   25.76
   5 -10   7  436.01   35.43
   5 -10   8   21.11    8.75
  -5   9   9  415.13   31.01
   5  -9  -9  377.33   31.35
  -5   9   8  490.32   34.52
   5  -9  -8  498.76   33.23
   5  -9  -8  452.20   31.52
  -5   9   7   24.80    6.81
  -5   9   7   13.97    5.05
   5  -9  -7   26.28    7.07
   5  -9  -7   25.64    5.90
  -5   9   6  378.07   29.50
   5  -9  -6  354.71   26.37
  -5   9   6  408.44   24.21
  -5   9   6  382.84   28.53
   5  -9  -6  372.76   23.15
   5  -9  -5  640.64   33.86
  -5   9   5  649.67   39.13
  -5   9   5  684.92   30.00
   5  -9  -5  744.98   30.24
  -5   9   4  247.86   17.60
   5  -9  -4  251.31   20.40
  -5   9   4  239.95   25.73
   5  -9  -4  234.89   15.76
   5  -9  -3  102.88   12.66
  -5   9   3  124.06   20.23
  -5   9   3  115.65   11.63
   5  -9  -3   95.62    9.52
  -5   9   2  847.03   58.18
  -5   9   2  835.36   31.19
   5  -9  -2  772.69   27.03
  -5   9   1  692.02   56.75
   5  -9  -1  676.62   24.87
  -5   9   1  702.94   28.45
   5  -9  -1  666.71   24.69
  -5   9   0   -5.58   11.91
   5  -9   0    4.83    2.67
   5  -9   0   -4.17    3.85
  -5   9  -1  383.09   44.41
   5  -9   1  390.79   20.16
   5  -9   1  391.25   18.83
  -5   9  -2 1218.23   76.80
   5  -9   2 1245.29   38.35
   5  -9   2 1222.87   34.99
  -5   9  -3  550.89   49.04
   5  -9   3  492.76   25.13
  -5   9  -3  518.79   24.47
   5  -9   3  483.58   22.36
  -5   9  -3  497.76   22.96
   5  -9   3  493.86   38.42
   5  -9   4   23.24   10.63
  -5   9  -4    6.11    7.15
   5  -9   4   11.09    5.33
  -5   9  -4   11.12    4.32
  -5   9  -4    6.23    2.81
   5  -9   5  862.96   37.81
  -5   9  -5  841.28   51.13
  -5   9  -5  853.49   34.09
  -5   9  -5  882.14   33.05
   5  -9   6  823.68   40.24
  -5   9  -6  842.56   35.28
  -5   9  -6  830.10   47.24
  -5   9  -6  830.79   33.67
   5  -9   7   76.83   15.50
   5  -9   7   66.86   12.89
  -5   9  -7   75.82   11.54
  -5   9  -7   70.30   10.60
  -5   9  -8  234.04   20.78
   5  -9   8  209.89   23.67
  -5   9  -8  220.50   19.30
   5  -9   8  239.92   25.18
   5  -8 -11  103.83   13.47
   5  -8 -10   78.08   11.62
  -5   8  10   72.88   12.97
   5  -8 -10   90.26   14.93
   5  -8 -10  106.90   16.33
  -5   8   9  567.48   35.90
   5  -8  -9  574.25   36.03
   5  -8  -9  552.52   37.13
  -5   8   8  343.95   28.45
   5  -8  -8  336.24   26.90
   5  -8  -8  312.67   25.46
  -5   8   7   67.98   12.45
   5  -8  -7   84.39   13.05
  -5   8   7   75.36   11.87
   5  -8  -7   74.30   10.67
  -5   8   6  983.49   48.21
   5  -8  -6  896.76   41.11
  -5   8   6  926.33   43.21
   5  -8  -6  957.05   35.87
  -5   8   5 1043.75   46.67
   5  -8  -5  869.90   38.61
  -5   8   5  934.64   33.62
  -5   8   5  883.84   44.87
   5  -8  -5 1032.39   33.79
  -5   8   4   46.15    9.54
   5  -8  -4   27.07    6.88
  -5   8   4   24.29    8.62
  -5   8   4   28.52    5.97
   5  -8  -4   34.51    5.60
   5  -8  -3  935.39   36.74
  -5   8   3 1020.32   57.83
  -5   8   3  992.68   32.75
   5  -8  -3  946.32   28.67
   5  -8  -2 1731.28   48.61
  -5   8   2 1803.81   44.27
  -5   8   2 1921.56   86.94
   5  -8  -2 1802.55   38.04
   5  -8  -2 1783.08   39.37
  -5   8   1  320.33   37.63
   5  -8  -1  342.16   16.40
  -5   8   1  342.30   18.65
   5  -8  -1  305.50   15.37
  -5   8   0  442.68   45.12
   5  -8   0  442.88   19.45
  -5   8   0  458.04   21.80
   5  -8   0  427.38   18.08
  -5   8  -1 1398.97   79.73
   5  -8   1 1373.57   37.09
   5  -8   1 1420.82   34.60
  -5   8  -2  835.46   29.10
   5  -8   2  799.06   50.55
   5  -8   2  771.18   29.08
   5  -8   2  820.34   26.33
  -5   8  -2  818.26   26.88
   5  -8   3   10.32    8.76
  -5   8  -3   22.42    9.97
   5  -8   3    5.84    3.80
  -5   8  -3    6.06    3.69
  -5   8  -3    8.23    3.54
   5  -8   4  566.42   28.35
  -5   8  -4  602.83   43.27
  -5   8  -4  605.71   26.80
  -5   8  -4  598.85   24.65
   5  -8   4  638.81   45.17
   5  -8   5  939.16   39.62
  -5   8  -5  957.00   35.30
  -5   8  -5 1001.92   51.42
  -5   8  -5  964.27   32.82
   5  -8   5 1080.80   56.61
   5  -8   6  214.43   20.76
  -5   8  -6  219.22   17.68
  -5   8  -6  210.67   22.38
  -5   8  -6  219.51   16.45
   5  -8   6  252.05   26.75
  -5   8  -7   36.55    8.17
   5  -8   7   44.03   12.22
   5  -8   7   21.86    7.70
  -5   8  -7   27.64    6.55
   5  -8   7   23.93    6.58
   5  -8   8  399.97   32.46
  -5   8  -8  502.62   30.38
  -5   8  -8  500.55   28.19
   5  -8   8  519.87   35.38
   5  -8   8  493.11   30.65
  -5   8  -9  341.83   27.06
   5  -8   9  304.74   29.46
  -5   8  -9  370.91   26.16
   5  -8   9  338.56   28.32
   5  -8   9  312.92   26.82
   5  -8  10   10.89    7.35
   5  -7 -11   28.13    7.22
  -5   7  11   26.40    6.91
   5  -7 -11   35.55   10.37
   5  -7 -11   39.85   10.31
  -5   7  10  438.77   30.71
   5  -7 -10  440.35   31.66
   5  -7 -10  428.04   26.48
   5  -7 -10  408.46   31.01
  -5   7   9  495.09   33.30
   5  -7  -9  492.59   32.43
   5  -7  -9  524.32   29.31
   5  -7  -9  479.21   33.86
  -5   7   8    2.06    7.35
   5  -7  -8    7.17    4.36
   5  -7  -8    2.12    4.65
  -5   7   7  438.19   31.45
   5  -7  -7  500.37   31.27
   5  -7  -7  491.84   28.12
  -5   7   7  460.43   27.84
  -5   7   6 1068.27   47.92
   5  -7  -6  960.89   41.51
  -5   7   6  990.31   43.21
   5  -7  -6 1041.09   36.44
   5  -7  -5  612.13   31.27
  -5   7   5  596.36   35.77
   5  -7  -5  625.50   24.91
  -5   7   4  241.74   18.22
   5  -7  -4  204.91   17.09
  -5   7   4  198.10   14.05
  -5   7   4  236.56   25.10
   5  -7  -4  191.17   12.38
  -5   7   3 2840.28   54.82
   5  -7  -3 2652.20   61.59
   5  -7  -3 2803.50   44.69
  -5   7   3 2902.22   96.53
  -5   7   3 2717.07   54.37
   5  -7  -3 2688.44   48.05
  -5   7   2 1936.63   38.24
   5  -7  -2 1976.04   50.16
   5  -7  -2 1968.14   37.47
  -5   7   2 1881.53   43.48
   5  -7  -2 1894.60   37.84
  -5   7   1    7.13    6.96
   5  -7  -1    1.97    1.75
  -5   7   1   -0.30    3.08
   5  -7  -1   -1.36    2.63
  -5   7   0 1217.19   71.13
   5  -7   0 1330.47   32.95
  -5   7   0 1345.72   35.40
   5  -7   0 1293.78   55.74
   5  -7   0 1269.81   29.83
  -5   7  -1 2325.22   96.66
   5  -7   1 2264.96   47.07
   5  -7   1 2346.85   42.51
   5  -7   1 2327.08   80.80
  -5   7  -1 2301.51   42.72
   5  -7   2  406.52   14.56
   5  -7   2  393.17   19.95
  -5   7  -2  418.76   39.12
  -5   7  -2  409.43   19.78
   5  -7   2  412.63   34.75
  -5   7  -2  377.04   16.74
  -5   7  -3  477.92   22.23
   5  -7   3  448.29   23.22
  -5   7  -3  488.94   38.66
   5  -7   3  464.65   37.20
  -5   7  -3  455.88   19.22
  -5   7  -4 1607.09   65.40
   5  -7   4 1511.21   46.64
  -5   7  -4 1543.78   42.44
  -5   7  -4 1559.71   38.66
   5  -7   4 1544.65   37.47
   5  -7   5  706.91   34.50
  -5   7  -5  709.10   29.49
  -5   7  -5  712.61   39.89
  -5   7  -5  727.23   27.25
   5  -7   5  593.61   40.82
   5  -7   5  713.42   27.92
  -5   7  -6   12.96    5.70
   5  -7   6   21.43    8.77
  -5   7  -6   16.26    5.18
  -5   7  -6   13.34    3.78
   5  -7   6   12.64    5.08
  -5   7  -7  589.44   30.33
  -5   7  -7  663.80   29.41
   5  -7   7  619.02   38.97
   5  -7   7  606.08   32.22
  -5   7  -8  558.38   32.15
  -5   7  -8  553.74   29.18
   5  -7   8  525.79   35.19
   5  -7   8  494.07   31.71
   5  -7   9   33.86   10.37
  -5   7  -9   24.16    9.33
  -5   7  -9   18.41    5.94
   5  -7   9   -1.24    6.42
  -5   7 -10  121.64   16.41
   5  -7  10  103.81   16.38
  -5   6  12    4.04    6.33
   5  -6 -12   23.84    8.56
   5  -6 -12   17.21    7.42
  -5   6  11  445.85   30.25
   5  -6 -11  470.07   32.04
   5  -6 -11  448.78   25.80
   5  -6 -11  459.54   30.91
  -5   6  10  635.24   37.03
   5  -6 -10  616.46   35.87
   5  -6 -10  610.49   30.58
   5  -6 -10  666.76   37.63
   5  -6  -9   26.80    6.86
  -5   6   9   20.09    6.80
   5  -6  -9   32.19    7.99
   5  -6  -9   23.81    8.14
  -5   6   8  400.14   30.07
   5  -6  -8  458.86   29.73
   5  -6  -8  458.34   30.13
  -5   6   7 1319.76   53.83
   5  -6  -7 1303.49   49.18
  -5   6   7 1342.14   46.37
  -5   6   6  780.42   39.39
   5  -6  -6  717.67   35.36
   5  -6  -6  738.42   29.90
  -5   6   6  705.95   35.12
  -5   6   5   31.13    8.05
   5  -6  -5   18.34    5.08
   5  -6  -5   18.86    3.99
  -5   6   5   29.92    8.49
  -5   6   4 1802.26   45.84
  -5   6   4 1807.91   67.66
   5  -6  -4 1740.66   37.11
  -5   6   3 2203.74   44.46
   5  -6  -3 2097.58   53.00
  -5   6   3 2201.21   45.80
   5  -6  -3 2273.28   36.39
   5  -6  -3 2178.93   39.69
  -5   6   2  239.76   11.92
   5  -6  -2  220.35   15.57
  -5   6   2  230.65   28.25
   5  -6  -2  234.38   11.13
  -5   6   2  216.90   13.32
   5  -6  -2  229.27   11.26
  -5   6   1  400.90   13.57
   5  -6  -1  370.34   15.12
  -5   6   1  347.12   35.72
  -5   6   1  389.81   17.49
   5  -6  -1  372.33   14.10
   5  -6   0 2108.93   41.46
  -5   6   0 2160.66   43.28
   5  -6   0 2107.48   36.80
  -5   6   0 2019.51   87.23
  -5   6  -1 2323.33   93.07
   5  -6   1 2171.29   45.10
  -5   6  -1 2217.99   44.95
   5  -6   1 2254.93   63.56
  -5   6  -1 2195.88   38.92
  -5   6  -2   11.35    4.73
   5  -6   2   24.55    7.44
   5  -6   2   24.51    3.56
  -5   6  -2   16.08    4.19
  -5   6  -2   18.18    3.60
  -5   6  -2   15.76    7.00
   5  -6   2   17.37    3.29
  -5   6  -3 1261.30   47.27
   5  -6   3 1324.72   27.21
  -5   6  -3 1281.59   57.84
  -5   6  -3 1249.06   35.35
   5  -6   3 1176.86   50.80
  -5   6  -3 1235.29   30.70
   5  -6   3 1196.62   30.56
  -5   6  -4 1921.73   60.51
   5  -6   4 1720.35   65.34
  -5   6  -4 1842.23   45.48
  -5   6  -4 1902.54   41.16
  -5   6  -4 1900.66   65.56
   5  -6   4 1826.68   43.66
  -5   6  -5  156.28   17.76
  -5   6  -5  177.61   18.18
  -5   6  -5  168.40   14.04
   5  -6   5  137.86   18.19
  -5   6  -5  171.28   12.73
   5  -6   5  171.02   14.70
  -5   6  -6  624.77   32.96
  -5   6  -6  596.42   34.56
  -5   6  -6  587.55   28.10
  -5   6  -6  590.00   25.58
   5  -6   6  607.39   31.02
  -5   6  -7 1205.90   40.36
   5  -6   7 1028.37   50.57
   5  -6   7 1064.07   45.48
  -5   6  -7 1128.96   42.36
  -5   6  -8  203.67   19.90
  -5   6  -8  215.55   18.48
   5  -6   8  210.43   22.54
   5  -6   8  178.74   20.06
   5  -6   9   68.07   13.13
  -5   6  -9   51.09   12.20
  -5   6  -9   52.37   10.07
   5  -6   9   44.38   10.48
  -5   6 -10  455.93   34.88
  -5   6 -10  469.86   32.19
   5  -6  10  480.08   33.03
   5  -6  10  509.60   36.93
  -5   5  12  310.99   25.31
   5  -5 -12  319.40   25.07
   5  -5 -12  337.40   24.47
  -5   5  11  908.19   44.15
   5  -5 -11  928.36   36.24
   5  -5 -11  945.04   41.36
  -5   5  10  554.92   35.18
   5  -5 -10  547.68   32.62
   5  -5 -10  569.08   28.26
   5  -5 -10  585.91   32.90
  -5   5   9  143.45   17.73
   5  -5  -9  158.07   17.20
   5  -5  -9  148.40   14.66
   5  -5  -9  157.52   17.20
   5  -5  -8 1659.35   55.93
   5  -5  -8 1832.05   53.72
  -5   5   8 1662.88   61.42
  -5   5   8 1689.59   48.52
   5  -5  -8 1856.40   59.60
  -5   5   7 1182.06   49.34
  -5   5   7 1108.19   40.48
   5  -5  -7 1109.54   44.30
   5  -5  -7 1214.58   44.68
   5  -5  -7 1149.02   42.96
  -5   5   6   17.33    6.45
   5  -5  -6    7.35    3.30
  -5   5   6   14.20    5.29
   5  -5  -6   14.26    3.53
  -5   5   5 1813.44   48.46
   5  -5  -5 1656.29   52.16
   5  -5  -5 1735.81   40.15
  -5   5   5 1732.16   59.26
  -5   5   4 3040.48   56.58
   5  -5  -4 3008.21   68.04
   5  -5  -4 3115.68   49.64
  -5   5   4 3153.83   87.96
  -5   5   3  403.77   16.48
   5  -5  -3  371.10   21.43
  -5   5   3  390.14   32.74
   5  -5  -3  393.59   12.53
   5  -5  -3  398.45   14.52
  -5   5   3  407.30   33.25
  -5   5   2  178.68    9.73
   5  -5  -2  179.15   13.94
  -5   5   2  154.36   21.75
   5  -5  -2  179.33    9.19
  -5   5   2  169.03   10.94
   5  -5  -2  176.57    8.92
  -5   5   2  181.38   23.53
  -5   5   1 1274.88   38.68
  -5   5   1 1357.66   25.37
   5  -5  -1 1341.70   36.87
  -5   5   1 1380.31   71.50
   5  -5  -1 1345.13   29.15
   5  -5  -1 1294.59   25.29
  -5   5   1 1287.84   30.89
  -5   5   0 2006.01   50.55
  -5   5   0 1994.98   28.31
   5  -5   0 1935.58   32.02
  -5   5   0 1967.52   38.50
  -5   5   0 1995.52   81.68
  -5   5   0 1952.17   32.42
  -5   5  -1  218.57   16.58
  -5   5  -1  218.42   13.09
  -5   5  -1  207.54   11.85
  -5   5  -1  201.56    9.95
  -5   5  -1  244.17   26.97
   5  -5   1  212.05    9.65
  -5   5  -2  744.56   32.01
  -5   5  -2  741.03   29.17
   5  -5   2  677.88   18.53
  -5   5  -2  683.93   24.32
   5  -5   2  684.66   31.55
  -5   5  -2  702.41   20.12
   5  -5   2  700.37   21.72
  -5   5  -2  733.83   43.13
  -5   5  -3 1537.01   49.26
  -5   5  -3 1665.33   50.24
   5  -5   3 1606.28   30.32
  -5   5  -3 1509.91   38.24
  -5   5  -3 1501.95   32.83
   5  -5   3 1458.39   37.77
  -5   5  -3 1594.37   59.14
   5  -5   3 1536.54   51.46
  -5   5  -4  522.34   29.28
  -5   5  -4  524.31   30.02
   5  -5   4  514.91   16.61
   5  -5   4  477.86   30.14
  -5   5  -4  501.42   19.66
   5  -5   4  489.46   24.44
  -5   5  -4  508.71   30.51
  -5   5  -4  475.33   21.66
  -5   5  -5    7.11    4.50
   5  -5   5    3.45    7.27
  -5   5  -5   16.19    6.07
  -5   5  -5   14.47    4.63
  -5   5  -5   15.10    3.96
  -5   5  -5   13.60    5.01
   5  -5   5   20.31    6.30
  -5   5  -6  647.88   34.48
  -5   5  -6  746.41   38.21
  -5   5  -6  709.78   32.55
  -5   5  -6  646.63   29.45
  -5   5  -6  665.42   27.24
   5  -5   6  559.24   36.61
   5  -5   6  570.12   32.16
  -5   5  -7  488.32   27.75
  -5   5  -7  527.47   26.71
   5  -5   7  448.49   33.38
   5  -5   7  523.37   33.33
   5  -5   8   11.63    5.08
  -5   5  -8    8.83    6.37
  -5   5  -8    6.67    4.56
   5  -5   8    3.43    6.04
  -5   5  -9  340.56   28.73
  -5   5  -9  413.35   28.11
   5  -5   9  343.59   28.38
   5  -5   9  398.20   30.73
  -5   5 -10  757.05   45.41
  -5   5 -10  793.91   41.95
   5  -5  10  744.31   41.58
   5  -5  10  867.65   44.62
  -5   4  13   30.20    8.24
   5  -4 -13   46.89   10.19
  -5   4  12  599.58   35.53
   5  -4 -12  613.50   33.30
   5  -4 -12  595.18   30.29
  -5   4  11  944.29   45.53
   5  -4 -11  887.97   39.91
   5  -4 -11  900.23   34.60
   5  -4 -11  931.00   38.18
   5  -4 -10   24.30    5.65
  -5   4  10   17.78    5.10
   5  -4 -10   39.59    9.26
   5  -4 -10   36.31    7.67
   5  -4  -9  768.06   37.01
   5  -4  -9  837.19   34.26
   5  -4  -9  799.79   35.53
  -5   4   8 1997.47   65.78
   5  -4  -8 1847.24   58.23
   5  -4  -8 1993.53   55.63
  -5   4   8 1790.37   48.13
   5  -4  -8 1940.33   56.37
  -5   4   7 1001.86   42.82
   5  -4  -7  839.38   38.43
   5  -4  -7  963.49   39.67
  -5   4   7  818.57   33.63
  -5   4   7  919.48   37.40
   5  -4  -7  921.08   37.86
  -5   4   6  288.12   20.24
  -5   4   6  252.63   19.79
   5  -4  -6  258.98   20.54
   5  -4  -6  322.39   24.23
  -5   4   6  306.35   22.51
   5  -4  -6  264.95   17.83
  -5   4   5 2328.65   51.04
  -5   4   5 2382.52   69.25
   5  -4  -5 2250.87   61.94
  -5   4   5 2486.67   69.85
   5  -4  -5 2318.28   47.37
  -5   4   4 2513.12   76.06
  -5   4   4 2337.91   45.06
   5  -4  -4 2489.21   64.40
  -5   4   4 2538.70   75.08
   5  -4  -4 2425.93   30.44
   5  -4  -4 2484.01   41.63
  -5   4   3    9.93    3.60
  -5   4   3    4.89    2.64
   5  -4  -3    5.28    2.63
  -5   4   3    4.35    4.92
  -5   4   3    5.45    4.87
   5  -4  -3    5.80    1.62
   5  -4  -3    3.52    1.42
  -5   4   2 1411.03   37.52
  -5   4   2 1518.04   29.20
  -5   4   2 1564.15   25.96
   5  -4  -2 1536.19   44.17
  -5   4   2 1262.62   57.85
   5  -4  -2 1483.52   25.13
  -5   4   2 1365.11   62.16
  -5   4   1 3143.85   59.01
  -5   4   1 3239.32   42.29
  -5   4   1 3118.90   56.98
   5  -4  -1 3314.48   62.92
  -5   4   1 3194.72  100.81
  -5   4   1 3130.48   48.58
   5  -4  -1 3137.58   39.77
   5  -4  -1 3228.07   33.63
  -5   4   0  817.59   29.19
  -5   4   0  798.06   32.99
   5  -4   0  873.46   28.20
  -5   4   0  829.06   51.36
  -5   4   0  799.19   21.97
  -5   4   0  782.58   17.46
   5  -4   0  822.68   18.49
  -5   4   0  832.66   48.06
  -5   4  -1  750.51   28.92
  -5   4  -1  757.98   36.10
   5  -4   1  642.89   17.63
   5  -4   1  666.43   27.92
  -5   4  -1  700.77   23.02
  -5   4  -1  657.44   41.78
  -5   4  -1  668.50   20.12
  -5   4  -1  649.06   16.93
   5  -4   1  627.84   20.56
  -5   4  -1  746.71   42.42
  -5   4  -2 1400.52   42.38
  -5   4  -2 1316.07   52.75
  -5   4  -2 1212.66   26.13
  -5   4  -2 1441.12   53.81
   5  -4   2 1300.23   26.59
   5  -4   2 1236.63   33.89
  -5   4  -2 1240.92   52.26
  -5   4  -2 1254.06   32.64
   5  -4   2 1233.16   35.10
  -5   4  -3  424.38   24.69
  -5   4  -3  415.43   26.97
  -5   4  -3  446.67   30.59
   5  -4   3  399.82   14.44
   5  -4   3  394.47   16.27
  -5   4  -3  375.27   18.00
   5  -4   3  371.25   22.77
  -5   4  -3  371.04   15.15
   5  -4   3  352.41   21.29
   5  -4   4    2.41    1.66
  -5   4  -4    0.06    3.43
   5  -4   4    9.69    4.52
  -5   4  -4    1.99    4.09
  -5   4  -4    7.01    4.10
  -5   4  -4    3.22    3.03
  -5   4  -4    3.23    1.88
   5  -4   4    4.68    3.15
  -5   4  -5  459.83   27.46
  -5   4  -5  502.29   30.63
  -5   4  -5  473.56   22.69
   5  -4   5  493.88   17.53
  -5   4  -5  513.75   26.96
   5  -4   5  484.76   30.39
  -5   4  -5  504.02   21.63
   5  -4   5  506.40   30.68
  -5   4  -6  536.04   30.29
  -5   4  -6  557.93   25.34
  -5   4  -6  530.85   30.99
   5  -4   6  541.01   19.61
  -5   4  -6  497.12   25.76
   5  -4   6  466.48   31.92
   5  -4   7   55.57   10.98
  -5   4  -7   74.12   11.59
  -5   4  -7   87.37   12.23
  -5   4  -7   72.46   10.63
   5  -4   7  102.10   15.52
   5  -4   8   85.26   14.79
  -5   4  -8  110.67   13.69
  -5   4  -8  109.69   15.84
  -5   4  -8  108.14   13.40
   5  -4   8  122.10   16.06
  -5   4  -9  518.51   29.05
  -5   4  -9  515.27   35.34
  -5   4  -9  597.78   34.53
   5  -4   9  473.04   33.75
   5  -4   9  583.95   33.87
  -5   4 -10  183.05   22.61
  -5   4 -10  219.88   22.28
   5  -4  10  212.68   22.68
   5  -4  10  194.97   19.63
  -5   4 -11   59.57   11.63
  -5   3  14   -0.62    4.81
   5  -3 -14    1.34    4.66
  -5   3  13  631.30   36.61
   5  -3 -13  556.08   30.39
  -5   3  12  873.51   43.63
   5  -3 -12  804.41   36.53
   5  -3 -12  816.03   31.80
  -5   3  11  162.68   19.23
   5  -3 -11  173.64   17.09
   5  -3 -11  182.63   15.17
   5  -3 -11  172.78   14.53
  -5   3  10  261.69   24.19
   5  -3 -10  270.87   21.44
   5  -3 -10  277.47   19.05
   5  -3 -10  268.31   18.42
   5  -3 -10  288.88   19.78
  -5   3   9 1458.69   57.26
   5  -3  -9 1517.59   51.58
   5  -3  -9 1610.03   48.16
   5  -3  -9 1587.16   44.88
   5  -3  -9 1550.66   46.89
  -5   3   8 1381.14   51.89
   5  -3  -8 1296.58   48.16
   5  -3  -8 1398.10   46.40
  -5   3   8 1306.01   40.84
   5  -3  -8 1265.70   42.11
  -5   3   7  322.94   22.08
   5  -3  -7  282.61   22.46
   5  -3  -7  330.85   23.53
  -5   3   7  346.07   21.91
   5  -3  -7  301.39   19.87
  -5   3   6  837.37   30.71
   5  -3  -6  822.08   38.38
   5  -3  -6  916.86   41.70
  -5   3   6  921.76   38.42
  -5   3   6  766.54   34.19
   5  -3  -6  775.76   31.83
  -5   3   5 3638.22   60.90
   5  -3  -5 3710.29   85.00
   5  -3  -5 4045.55   95.13
  -5   3   5 4052.30   89.09
  -5   3   5 3844.09   87.78
   5  -3  -5 3400.50   63.18
  -5   3   4 1185.69   31.47
  -5   3   4 1220.71   17.84
  -5   3   4 1232.12   29.74
   5  -3  -4 1300.22   48.29
   5  -3  -4 1227.68   50.51
  -5   3   4 1334.51   53.56
  -5   3   4 1352.73   52.47
   5  -3  -4 1215.99   17.47
   5  -3  -4 1197.55   27.41
  -5   3   3  126.32   10.06
  -5   3   3  127.09    5.56
  -5   3   3  134.64    8.70
   5  -3  -3  170.85   17.02
  -5   3   3  154.60   19.28
   5  -3  -3  130.53   16.01
  -5   3   3  131.34   17.45
   5  -3  -3  141.76    6.97
  -5   3   2 2466.15   48.18
  -5   3   2 2560.54   37.78
  -5   3   2 2645.71   39.80
  -5   3   2 2553.08   83.08
   5  -3  -2 2460.23   65.91
  -5   3   2 2435.51   78.09
   5  -3  -2 2760.37   32.83
  -5   3   1 2635.32   51.10
  -5   3   1 2830.74   48.73
  -5   3   1 2616.56   36.62
  -5   3   1 2645.08   84.56
   5  -3  -1 2869.46   67.46
   5  -3  -1 2587.97   61.03
  -5   3   1 2836.15   88.92
  -5   3   1 2636.06   41.21
   5  -3  -1 2691.92   31.61
  -5   3   1 2529.09   31.09
  -5   3   0    2.10    3.01
   5  -3   0    3.33    2.97
  -5   3   0   -1.70    2.98
   5  -3   0   11.49    3.34
  -5   3   0    3.64    5.63
  -5   3   0    6.15    5.17
   5  -3   0    8.70    2.19
  -5   3   0    1.62    1.65
  -5   3   0    0.31    1.82
  -5   3   0    5.62    1.33
  -5   3  -1 1624.11   42.58
  -5   3  -1 1770.33   52.44
   5  -3   1 1483.60   36.14
   5  -3   1 1538.49   29.07
  -5   3  -1 1721.08   59.36
   5  -3   1 1492.69   35.81
  -5   3  -1 1685.86   60.47
  -5   3  -1 1611.55   35.19
  -5   3  -1 1520.95   29.71
  -5   3  -1 1517.09   26.00
  -5   3  -2 1922.90   58.07
   5  -3   2 1951.39   34.28
   5  -3   2 1911.03   36.45
  -5   3  -2 1921.29   59.48
  -5   3  -2 1909.30   40.24
  -5   3  -2 1968.05   33.26
  -5   3  -2 2043.64   51.16
  -5   3  -3  158.28   16.57
   5  -3   3  173.59    9.57
   5  -3   3  152.08    8.31
  -5   3  -3  168.34   16.65
  -5   3  -3  175.53   16.47
  -5   3  -3  163.40   11.39
  -5   3  -3  156.75    9.83
  -5   3  -3  159.94   15.17
  -5   3  -4  282.76   22.33
   5  -3   4  292.10   20.38
   5  -3   4  272.16   12.66
  -5   3  -4  250.40   19.09
  -5   3  -4  248.83   15.06
  -5   3  -4  274.39   14.56
  -5   3  -4  284.64   19.63
  -5   3  -4  289.65   20.54
   5  -3   5 1395.17   49.12
  -5   3  -5 1355.77   49.66
   5  -3   5 1312.52   30.59
  -5   3  -5 1288.28   38.10
  -5   3  -5 1395.12   38.48
  -5   3  -5 1365.20   47.37
  -5   3  -6  244.87   20.55
   5  -3   6  263.00   14.47
  -5   3  -6  275.56   19.22
   5  -3   6  229.46   21.41
  -5   3  -6  270.47   18.59
  -5   3  -6  256.92   21.54
  -5   3  -7  166.65   16.99
  -5   3  -7  197.94   17.36
   5  -3   7  190.89   13.84
  -5   3  -7  180.92   17.80
   5  -3   7  161.39   18.94
  -5   3  -7  163.89   17.67
  -5   3  -8  645.85   32.94
  -5   3  -8  760.77   39.85
  -5   3  -8  702.94   35.61
   5  -3   8  584.07   37.76
   5  -3   8  769.39   37.08
  -5   3  -9  343.50   23.63
  -5   3  -9  347.52   29.36
  -5   3  -9  350.07   26.79
   5  -3   9  329.19   28.39
   5  -3   9  363.90   25.48
   5  -3  10   16.35    8.17
  -5   3 -10    9.05    5.10
  -5   3 -10    8.45    5.24
  -5   3 -10   -2.88    7.75
   5  -3  10   11.59    5.80
  -5   3 -11  223.97   24.63
  -5   3 -11  275.32   25.40
   5  -3  11  255.50   23.65
  -5   2  14  337.62   26.72
   5  -2 -14  337.13   23.58
  -5   2  13 1296.35   53.75
   5  -2 -13 1237.69   45.17
  -5   2  12  439.91   31.58
   5  -2 -12  451.14   26.69
   5  -2 -12  458.24   23.45
   5  -2 -11   42.56    7.36
   5  -2 -11   44.56    9.30
   5  -2 -11   36.96    7.36
  -5   2  10 1124.09   50.40
  -5   2  10 1098.70   36.21
   5  -2 -10 1181.65   44.47
   5  -2 -10 1211.15   40.46
   5  -2 -10 1147.12   38.58
  -5   2   9 1856.55   61.74
  -5   2   9 1768.04   44.41
   5  -2  -9 1809.89   56.78
   5  -2  -9 1890.60   53.03
  -5   2   9 1710.09   44.99
   5  -2  -9 1766.27   48.14
  -5   2   8  706.14   33.45
  -5   2   8  599.00   22.98
   5  -2  -8  681.30   34.99
   5  -2  -8  720.26   34.09
  -5   2   8  667.82   28.73
   5  -2  -8  664.28   28.24
   5  -2  -8  688.96   30.32
  -5   2   7 1025.52   35.60
   5  -2  -7 1033.72   44.64
   5  -2  -7 1136.83   45.42
  -5   2   7  994.20   37.51
   5  -2  -7 1044.46   34.83
   5  -2  -7 1063.59   37.80
  -5   2   6 2467.44   45.17
  -5   2   6 2540.35   51.22
   5  -2  -6 2757.86   76.35
   5  -2  -6 2798.61   74.82
  -5   2   6 2631.16   66.90
  -5   2   6 2522.68   31.40
   5  -2  -6 2721.70   60.57
  -5   2   5 2042.76   40.16
  -5   2   5 2067.72   41.61
   5  -2  -5 2386.22   72.47
   5  -2  -5 2288.44   66.91
  -5   2   5 2431.17   67.67
   5  -2  -5 2158.74   51.39
  -5   2   5 2165.20   25.08
  -5   2   4   19.40    3.95
  -5   2   4   25.26    2.85
   5  -2  -4   30.45    7.33
  -5   2   4   21.02    3.80
   5  -2  -4   18.41    6.26
  -5   2   4   23.04    7.80
  -5   2   4   36.40    9.78
   5  -2  -4   27.30    4.92
  -5   2   3  731.50   22.95
  -5   2   3  736.33   15.77
  -5   2   3  747.13   20.11
   5  -2  -3  667.07   35.23
   5  -2  -3  756.80   33.33
  -5   2   3  700.76   39.39
  -5   2   3  819.81   43.84
   5  -2  -3  714.92   17.46
  -5   2   2 1998.67   40.96
  -5   2   2 2023.50   31.01
  -5   2   2 2068.77   33.38
   5  -2  -2 2016.55   50.89
  -5   2   2 1979.75   69.42
  -5   2   2 2016.90   70.78
   5  -2  -2 2134.47   23.36
  -5   2   1  874.31   20.21
  -5   2   1  869.41   21.07
   5  -2  -1  846.45   20.53
   5  -2  -1  894.87   29.57
  -5   2   1  879.37   47.15
   5  -2  -1  869.84   12.61
  -5   2   1  899.09   44.62
  -5   2   1  848.25   12.86
  -5   2   1  922.90   27.84
  -5   2   0  347.64   12.20
  -5   2   0  354.70   15.26
   5  -2   0  345.61   15.13
   5  -2   0  351.08   12.95
   5  -2   0  365.19   16.28
  -5   2   0  396.93   30.96
  -5   2   0  350.56   14.68
  -5   2   0  337.74    9.22
  -5   2   0  414.00   28.55
  -5   2   0  344.49   17.86
  -5   2  -1 1907.57   43.99
   5  -2   1 1930.17   25.58
   5  -2   1 1996.48   34.38
  -5   2  -1 1989.28   38.72
   5  -2   1 1888.90   35.56
  -5   2  -1 2074.02   64.15
  -5   2  -1 1923.26   32.05
  -5   2  -1 1948.06   29.67
  -5   2  -1 1993.87   47.49
  -5   2  -2 1268.33   40.44
   5  -2   2 1299.31   27.63
  -5   2  -2 1333.20   46.28
   5  -2   2 1269.83   25.54
  -5   2  -2 1269.31   31.12
  -5   2  -2 1291.39   26.84
  -5   2  -2 1272.89   39.46
  -5   2  -3    8.91    4.36
  -5   2  -3    2.49    3.48
   5  -2   3   13.96    2.39
  -5   2  -3    4.48    3.47
   5  -2   3    5.67    2.37
  -5   2  -3    7.37    3.08
  -5   2  -3    5.80    2.54
  -5   2  -4 1763.02   56.28
   5  -2   4 1952.87   37.77
  -5   2  -4 1815.97   49.50
  -5   2  -4 1865.01   42.15
  -5   2  -4 2060.25   45.04
  -5   2  -4 1918.54   54.13
  -5   2  -5 1268.04   48.53
   5  -2   5 1326.04   32.59
  -5   2  -5 1281.88   39.98
  -5   2  -5 1317.33   38.15
   5  -2   5 1418.38   47.14
  -5   2  -5 1397.89   41.00
  -5   2  -5 1333.27   46.33
  -5   2  -6    5.64    4.88
   5  -2   6    3.54    2.31
   5  -2   6    1.34    4.45
  -5   2  -6    3.64    4.50
  -5   2  -6   12.30    4.82
  -5   2  -6    3.67    3.46
  -5   2  -7  704.90   35.85
  -5   2  -7  746.31   35.87
   5  -2   7  725.10   29.13
  -5   2  -7  706.16   34.43
   5  -2   7  679.10   37.79
  -5   2  -7  779.80   36.47
  -5   2  -8 1066.32   44.01
   5  -2   8 1107.55   40.87
  -5   2  -8 1185.67   50.58
  -5   2  -8 1118.36   46.41
   5  -2   8 1053.34   49.78
  -5   2  -9   90.90   13.09
   5  -2   9   90.59   14.85
  -5   2  -9  111.32   17.30
  -5   2  -9   90.69   13.67
  -5   2 -10  176.67   17.59
  -5   2 -10  160.95   20.69
  -5   2 -10  171.66   19.09
   5  -2  10  144.54   18.61
   5  -2  10  181.09   18.08
  -5   2 -11  575.04   37.05
  -5   2 -11  651.52   37.47
   5  -2  11  650.85   37.32
  -5   1  14  596.11   36.37
   5  -1 -14  593.69   31.37
  -5   1  13  983.20   47.61
   5  -1 -13  874.53   37.97
  -5   1  12  120.79   16.61
   5  -1 -12  148.47   15.79
   5  -1 -12  139.01   12.80
  -5   1  11  504.76   27.46
  -5   1  11  495.76   33.61
   5  -1 -11  532.13   29.98
   5  -1 -11  553.18   26.31
   5  -1 -11  553.53   28.89
  -5   1  10 2912.29   79.38
  -5   1  10 2731.51   63.71
   5  -1 -10 2879.84   73.42
   5  -1 -10 2738.11   65.58
  -5   1   9 1455.89   50.02
  -5   1   9 1410.80   41.97
   5  -1  -9 1457.61   52.52
  -5   1   9 1457.42   42.52
   5  -1  -9 1489.13   48.19
   5  -1  -9 1342.67   41.83
  -5   1   9 1406.33   35.08
   5  -1  -8  128.28   11.71
  -5   1   8  138.11   13.65
  -5   1   8  118.85   10.92
   5  -1  -8  132.31   16.21
   5  -1  -8  155.73   16.17
  -5   1   8  132.07   13.23
  -5   1   8  119.57    8.30
  -5   1   7 2845.61   44.90
  -5   1   7 2797.64   56.71
  -5   1   7 2725.31   50.67
   5  -1  -7 3078.62   80.10
   5  -1  -7 3092.24   76.38
  -5   1   7 3099.19   69.83
   5  -1  -7 2587.51   49.07
  -5   1   7 2696.85   39.43
  -5   1   6 2118.41   37.51
  -5   1   6 2049.77   42.89
   5  -1  -6 2264.68   66.57
   5  -1  -6 2149.49   62.28
  -5   1   6 2280.41   61.65
   5  -1  -6 2117.78   35.72
  -5   1   6 2109.85   31.02
  -5   1   5   42.62    6.27
   5  -1  -5   59.14    3.66
  -5   1   5   59.43    6.44
   5  -1  -5   52.94    9.62
   5  -1  -5   63.52   10.37
  -5   1   5   72.21   11.37
  -5   1   5   58.16    4.14
  -5   1   4 1056.86   25.88
   5  -1  -4 1092.37   38.67
   5  -1  -4 1115.98   39.29
  -5   1   4 1097.28   46.48
  -5   1   4 1094.90   18.70
  -5   1   4 1062.00   26.70
  -5   1   3 1815.18   29.03
  -5   1   3 1797.68   32.75
   5  -1  -3 1904.63   45.38
   5  -1  -3 1912.59   47.45
  -5   1   3 1764.50   35.98
  -5   1   2 1281.02   24.32
  -5   1   2 1192.80   24.22
   5  -1  -2 1325.11   30.15
  -5   1   2 1134.90   51.40
   5  -1  -2 1244.09   34.35
  -5   1   2 1247.35   30.96
  -5   1   1  158.23    8.74
   5  -1  -1  148.06    8.38
   5  -1  -1  155.17    7.39
  -5   1   1  160.09   19.92
   5  -1  -1  154.96   10.51
  -5   1   1  147.33    4.22
  -5   1   1  136.51   10.71
  -5   1   0 1262.80   28.63
   5  -1   0 1286.33   26.71
   5  -1   0 1289.87   16.72
  -5   1   0 1344.97   54.16
   5  -1   0 1243.83   28.10
  -5   1   0 1259.04   22.90
  -5   1   0 1291.56   20.10
  -5   1   0 1266.44   35.55
  -5   1  -1 1238.32   32.06
   5  -1   1 1275.40   27.26
  -5   1  -1 1329.80   48.11
   5  -1   1 1285.72   26.15
  -5   1  -1 1289.67   29.85
  -5   1  -1 1267.52   24.64
  -5   1  -1 1300.37   38.35
  -5   1  -2   62.64    7.56
   5  -1   2   71.80    6.44
  -5   1  -2   76.39    7.23
  -5   1  -2   74.01   10.89
   5  -1   2   69.60    5.29
  -5   1  -2   80.56    7.07
  -5   1  -2   71.95    9.49
  -5   1  -3  796.27   32.30
   5  -1   3  863.26   17.57
   5  -1   3  820.29   23.49
  -5   1  -3  782.09   31.36
  -5   1  -3  809.42   24.69
  -5   1  -3  800.02   26.71
  -5   1  -3  797.98   33.65
  -5   1  -4 1505.77   50.80
   5  -1   4 1498.85   34.28
  -5   1  -4 1457.09   40.96
  -5   1  -4 1476.31   36.52
  -5   1  -4 1467.39   41.60
  -5   1  -4 1528.65   49.22
  -5   1  -5  259.27   22.03
  -5   1  -5  257.20   18.69
   5  -1   5  289.55   20.12
  -5   1  -5  288.61   17.43
   5  -1   5  277.29   15.47
  -5   1  -5  290.36   21.77
  -5   1  -6  273.45   23.28
   5  -1   6  289.65   17.58
  -5   1  -6  305.26   20.41
   5  -1   6  307.66   22.49
  -5   1  -6  294.14   21.32
  -5   1  -6  314.35   23.13
  -5   1  -7 1193.20   49.37
   5  -1   7 1333.28   43.17
  -5   1  -7 1322.35   49.09
   5  -1   7 1279.38   50.43
  -5   1  -7 1347.41   49.15
  -5   1  -7 1362.77   48.02
  -5   1  -8  673.47   36.37
  -5   1  -8  705.61   38.93
   5  -1   8  699.74   34.12
  -5   1  -8  729.80   37.11
   5  -1   8  653.33   38.22
   5  -1   9    1.29    6.81
  -5   1  -9   17.04    7.53
   5  -1   9   -5.78    6.02
  -5   1  -9    6.17    3.99
  -5   1  -9    1.43    4.83
  -5   1 -10  710.58   36.72
  -5   1 -10  612.74   37.61
  -5   1 -10  751.02   37.87
   5  -1  10  661.37   38.19
  -5   1 -11  612.87   36.23
   5  -1  11  666.75   36.75
  -5   0  15  169.89   19.45
   5   0 -15  173.01   16.98
  -5   0  14 1157.27   52.26
   5   0 -14 1073.40   42.79
  -5   0  13  397.80   26.16
  -5   0  13  414.61   31.11
   5   0 -13  451.24   27.66
   5   0 -12   10.74    3.81
  -5   0  12    0.78    6.69
  -5   0  12   -3.32    4.90
   5   0 -12    0.25    3.93
  -5   0  11 1157.84   44.29
  -5   0  11 1214.89   51.03
   5   0 -11 1162.91   46.67
   5   0 -11 1159.03   39.39
   5   0 -11 1085.57   41.73
  -5   0  10 1769.05   53.38
  -5   0  10 1882.05   58.50
   5   0 -10 1908.85   62.58
   5   0 -10 1907.41   53.48
  -5   0  10 1951.06   47.89
  -5   0   9  250.95   18.63
  -5   0   9  234.08   17.85
   5   0  -9  218.92   20.76
  -5   0   9  216.59   16.21
   5   0  -9  250.31   20.08
   5   0  -9  226.31   15.32
  -5   0   9  217.08   13.40
  -5   0   8 1396.26   39.56
  -5   0   8 1387.59   39.62
   5   0  -8 1422.46   51.38
  -5   0   8 1409.29   43.31
   5   0  -8 1373.50   32.93
  -5   0   8 1334.11   30.38
  -5   0   7 2188.48   35.79
  -5   0   7 2168.79   46.15
  -5   0   7 2129.57   45.67
   5   0  -7 2099.75   59.55
   5   0  -7 2157.10   60.10
   5   0  -7 2187.64   35.56
  -5   0   7 2113.36   35.80
  -5   0   6 1217.59   26.21
  -5   0   6 1116.77   29.76
  -5   0   6 1106.68   29.80
   5   0  -6 1163.70   40.32
  -5   0   6 1283.03   45.00
   5   0  -6 1076.00   40.37
   5   0  -6 1161.19   19.24
  -5   0   6 1157.53   23.50
  -5   0   5   68.14    6.82
   5   0  -5   83.91    9.71
  -5   0   5   72.00   11.26
   5   0  -5   79.50   10.52
   5   0  -5   75.39    3.06
  -5   0   5   82.97    5.67
  -5   0   5   66.03    6.58
  -5   0   4 2791.11   44.45
   5   0  -4 2811.06   51.36
   5   0  -4 2866.68   59.62
  -5   0   4 2771.59   37.75
  -5   0   4 2739.33   45.15
  -5   0   3 2363.14   35.97
  -5   0   3 2181.34   36.80
   5   0  -3 2316.22   36.99
   5   0  -3 2453.94   39.86
   5   0  -3 2378.25   49.12
  -5   0   3 2292.69   33.68
  -5   0   3 2307.04   42.57
  -5   0   2   34.20    3.99
   5   0  -2   49.52    4.90
   5   0  -2   43.90    4.03
  -5   0   2   45.92   10.28
   5   0  -2   44.98    5.97
  -5   0   2   43.04    5.84
  -5   0   1 2921.12   43.92
   5   0  -1 2915.45   43.58
   5   0  -1 2959.11   33.30
  -5   0   1 2925.82   83.71
   5   0  -1 2939.80   47.51
  -5   0   1 2848.30   32.27
  -5   0   1 2854.18   54.39
  -5   0   0 1676.08   24.88
  -5   0   0 1626.04   33.52
   5   0   0 1701.90   32.05
  -5   0   0 1634.63   56.86
   5   0   0 1639.84   31.46
  -5   0   0 1561.49   28.32
  -5   0   0 1617.22   42.15
  -5   0  -1   11.65    4.29
  -5   0  -1   10.40    3.28
   5   0   1   13.64    2.61
  -5   0  -1    8.70    4.00
   5   0   1    9.07    2.71
  -5   0  -1   10.60    2.77
  -5   0  -1   13.80    3.47
  -5   0  -2  932.81   29.80
  -5   0  -2  945.41   25.41
   5   0   2  949.12   25.59
  -5   0  -2  916.32   35.07
  -5   0  -2  888.63   29.44
   5   0   2 1039.53   21.34
  -5   0  -2  921.21   35.30
  -5   0  -3 1328.84   40.12
   5   0   3 1301.89   31.81
  -5   0  -3 1272.07   39.12
  -5   0  -3 1363.76   31.86
  -5   0  -3 1276.45   39.61
   5   0   3 1388.12   23.39
  -5   0  -3 1286.58   44.49
  -5   0  -4  312.56   21.16
   5   0   4  329.00   16.82
  -5   0  -4  297.73   17.57
  -5   0  -4  313.20   16.05
  -5   0  -4  327.06   21.13
  -5   0  -4  336.51   23.19
  -5   0  -5  336.41   24.81
   5   0   5  331.17   18.38
  -5   0  -5  343.50   22.93
  -5   0  -5  337.62   19.01
  -5   0  -5  353.99   24.39
  -5   0  -6 1059.13   46.83
  -5   0  -6 1140.29   39.89
   5   0   6 1087.88   37.84
   5   0   6 1174.52   42.49
  -5   0  -6 1075.81   41.91
  -5   0  -6 1214.65   45.41
  -5   0  -7 1048.86   47.84
   5   0   7 1053.27   41.41
  -5   0  -7 1139.27   43.47
  -5   0  -7 1067.03   42.43
   5   0   7 1116.30   45.52
  -5   0  -7 1126.45   42.41
   5   0   8    8.51    4.97
  -5   0  -8   27.22    9.07
   5   0   8    2.10    5.78
  -5   0  -8   13.64    6.64
  -5   0  -8   17.89    5.37
  -5   0  -9  254.52   23.15
   5   0   9  193.92   20.74
  -5   0  -9  204.02   21.74
  -5   0  -9  246.63   20.13
   5   0   9  197.08   20.90
  -5   0 -10  838.73   41.80
   5   0  10  697.23   38.75
  -5   0 -10  796.11   37.59
   5   0  10  794.45   40.90
  -5  -1  15  857.70   45.31
   5   1 -15  804.29   37.72
  -5  -1  14  698.09   36.01
  -5  -1  14  764.93   42.73
   5   1 -14  718.66   36.20
  -5  -1  13   -0.83    5.95
  -5  -1  13    0.65    5.40
   5   1 -13    0.04    6.12
  -5  -1  13   11.64    5.82
  -5  -1  12  490.16   30.95
  -5  -1  12  552.45   34.63
   5   1 -12  547.11   32.99
   5   1 -12  666.23   29.06
  -5  -1  12  623.54   34.32
  -5  -1  11 1308.31   50.23
  -5  -1  11 1461.68   52.16
   5   1 -11 1432.62   54.90
   5   1 -11 1440.31   44.99
   5   1 -11 1359.04   44.61
  -5  -1  11 1522.34   47.64
  -5  -1  10  425.45   26.96
  -5  -1  10  428.02   25.02
   5   1 -10  377.20   26.95
  -5  -1  10  437.99   22.80
   5   1 -10  499.02   27.62
   5   1 -10  437.38   21.80
  -5  -1  10  477.62   22.82
   5   1  -9   44.66    8.88
  -5  -1   9   46.71    7.84
  -5  -1   9   47.05    8.77
   5   1  -9   37.53    8.36
  -5  -1   9   33.63    7.47
   5   1  -9   36.08    5.62
  -5  -1   9   45.30    6.30
  -5  -1   8 1274.51   39.44
  -5  -1   8 1212.08   35.27
   5   1  -8 1152.70   42.72
  -5  -1   8 1297.22   44.20
   5   1  -8 1173.37   43.52
   5   1  -8 1223.77   27.11
  -5  -1   8 1193.36   29.52
  -5  -1   7 1072.69   22.78
  -5  -1   7 1010.91   31.47
  -5  -1   7  988.36   29.16
   5   1  -7  989.97   36.36
  -5  -1   7 1114.64   43.32
   5   1  -7 1054.95   39.43
   5   1  -7  997.16   20.65
  -5  -1   7  997.61   24.69
  -5  -1   6  295.78   15.48
  -5  -1   6  298.12   14.55
   5   1  -6  293.08   17.41
  -5  -1   6  306.09   24.27
   5   1  -6  304.03   19.93
  -5  -1   6  317.32   15.49
   5   1  -6  304.19    8.98
  -5  -1   6  289.52   12.16
  -5  -1   6  333.72   12.95
  -5  -1   5 1488.64   32.67
   5   1  -5 1637.67   37.10
  -5  -1   5 1693.72   61.38
   5   1  -5 1593.10   43.85
  -5  -1   5 1648.13   40.93
   5   1  -5 1600.28   19.87
  -5  -1   5 1511.93   28.96
  -5  -1   5 1567.72   31.49
  -5  -1   4 2329.66   39.65
   5   1  -4 2319.13   37.13
   5   1  -4 2414.65   40.57
  -5  -1   4 2402.75   78.26
   5   1  -4 2366.12   50.58
  -5  -1   4 2340.95   36.56
  -5  -1   4 2302.38   42.00
  -5  -1   3  589.14   17.45
   5   1  -3  578.83   17.03
   5   1  -3  573.00   16.02
  -5  -1   3  550.14   38.06
   5   1  -3  578.38   21.85
  -5  -1   3  594.41   16.76
  -5  -1   3  536.71   20.87
  -5  -1   2  807.60   20.84
   5   1  -2  857.15   21.40
   5   1  -2  854.27   17.49
  -5  -1   2  880.39   48.08
   5   1  -2  850.34   25.04
  -5  -1   2  809.19   17.94
  -5  -1   2  861.62   27.80
   5   1  -1 1938.16   36.96
  -5  -1   1 1996.55   36.21
   5   1  -1 2020.89   36.10
  -5  -1   1 2174.83   74.15
  -5  -1   1 2099.22   38.21
  -5  -1   1 1998.25   46.94
  -5  -1   0 1066.43   27.02
   5   1   0 1104.89   26.46
  -5  -1   0 1093.29   47.36
  -5  -1   0 1091.97   17.07
   5   1   0 1072.45   25.25
  -5  -1   0 1079.10   31.08
  -5  -1   0 1090.59   36.74
  -5  -1  -1  522.30   19.67
   5   1   1  510.38   18.62
  -5  -1  -1  520.19   28.87
  -5  -1  -1  488.92   16.63
   5   1   1  534.97   16.44
  -5  -1  -1  531.16   23.79
  -5  -1  -1  509.43   26.50
  -5  -1  -2 2018.37   44.88
   5   1   2 2063.10   41.66
  -5  -1  -2 2030.45   52.98
  -5  -1  -2 2133.75   38.07
   5   1   2 2132.33   34.10
  -5  -1  -2 2150.70   53.61
  -5  -1  -2 1990.72   56.95
  -5  -1  -3 1423.43   40.57
   5   1   3 1402.65   35.72
  -5  -1  -3 1330.20   39.65
  -5  -1  -3 1437.76   32.15
  -5  -1  -3 1493.26   47.16
   5   1   3 1457.96   25.84
  -5  -1  -3 1366.59   48.97
  -5  -1  -4    2.61    4.65
  -5  -1  -4    5.01    3.55
  -5  -1  -4    7.50    3.20
   5   1   4    7.90    3.18
  -5  -1  -4   13.60    3.86
  -5  -1  -4   13.12    5.10
  -5  -1  -5 1405.87   38.14
  -5  -1  -5 1276.69   47.19
   5   1   5 1333.77   41.54
  -5  -1  -5 1356.07   45.62
  -5  -1  -5 1334.69   48.83
  -5  -1  -6 1468.30   56.06
   5   1   6 1513.72   49.39
  -5  -1  -6 1675.54   46.33
   5   1   6 1666.89   48.97
  -5  -1  -6 1463.92   47.85
  -5  -1  -6 1515.61   51.10
  -5  -1  -7  140.73   15.20
  -5  -1  -7  106.62   15.51
   5   1   7  102.86   13.85
  -5  -1  -7  101.83   12.44
   5   1   7  112.49   13.88
  -5  -1  -7  127.94   14.17
  -5  -1  -8  246.89   24.46
   5   1   8  219.63   21.51
  -5  -1  -8  255.59   19.76
   5   1   8  258.80   22.83
  -5  -1  -9  691.88   40.18
   5   1   9  563.30   35.90
  -5  -1  -9  670.97   32.90
   5   1   9  587.55   35.21
   5   1  10  449.24   30.89
  -5  -1 -10  448.80   27.70
  -5  -2  15 1009.53   44.41
  -5  -2  15 1134.05   53.21
   5   2 -15 1068.49   45.74
  -5  -2  14   53.09   11.43
  -5  -2  14   47.87    8.98
   5   2 -14   48.41    8.55
  -5  -2  14   37.00    9.73
  -5  -2  13  195.88   19.98
  -5  -2  13  244.50   23.41
   5   2 -13  251.18   23.21
  -5  -2  13  285.71   25.55
  -5  -2  12 1210.74   48.97
   5   2 -12 1181.97   40.38
   5   2 -12 1144.48   49.69
   5   2 -12 1169.62   42.72
  -5  -2  12 1295.81   48.99
  -5  -2  11 1015.37   46.02
  -5  -2  11 1080.26   42.13
   5   2 -11 1006.22   44.93
   5   2 -11 1022.12   39.60
   5   2 -11 1051.05   35.93
  -5  -2  11 1103.98   40.07
   5   2 -10    9.22    4.97
  -5  -2  10   12.05    5.06
  -5  -2  10    1.91    3.76
   5   2 -10    6.06    4.31
  -5  -2  10   10.19    5.05
   5   2 -10    9.17    3.51
  -5  -2  10    6.53    3.60
  -5  -2   9 1088.82   41.80
  -5  -2   9 1025.41   33.82
   5   2  -9  975.37   39.57
   5   2  -9 1002.24   40.60
  -5  -2   9 1027.65   42.70
   5   2  -9 1031.46   26.96
  -5  -2   9 1004.72   30.36
  -5  -2   8  960.39   34.66
  -5  -2   8  912.26   29.33
   5   2  -8  887.31   34.51
  -5  -2   8  840.05   42.49
   5   2  -8  890.01   37.19
   5   2  -8  907.44   22.11
  -5  -2   8  842.66   25.63
  -5  -2   7   82.12    9.36
  -5  -2   7   99.41    8.69
   5   2  -7   84.12   11.30
   5   2  -7  101.71   10.86
  -5  -2   7   89.02   15.18
  -5  -2   7  104.22    8.42
   5   2  -7   93.97    6.20
  -5  -2   7   87.30    7.65
  -5  -2   7  110.10    6.93
  -5  -2   6  335.93   17.07
  -5  -2   6  312.34   14.89
   5   2  -6  294.85   12.09
   5   2  -6  321.09   16.59
  -5  -2   6  269.96   29.93
  -5  -2   6  340.95   16.15
   5   2  -6  346.78   20.71
   5   2  -6  337.04   10.29
  -5  -2   6  330.04   14.00
  -5  -2   6  340.13   13.74
  -5  -2   5 1524.86   35.20
  -5  -2   5 1519.17   32.51
   5   2  -5 1500.14   28.90
   5   2  -5 1514.36   33.01
  -5  -2   5 1560.25   74.82
  -5  -2   5 1548.64   38.75
   5   2  -5 1462.20   41.25
   5   2  -5 1602.46   22.94
  -5  -2   5 1489.25   30.67
  -5  -2   5 1545.34   32.60
  -5  -2   4  408.72    9.60
   5   2  -4  419.67   14.41
   5   2  -4  403.80   14.57
  -5  -2   4  454.27   41.68
  -5  -2   4  430.67   21.33
  -5  -2   4  412.33   14.91
   5   2  -4  412.76   19.61
  -5  -2   4  362.91   17.32
  -5  -2   3  190.83   10.33
   5   2  -3  200.30   10.25
   5   2  -3  201.33    9.31
  -5  -2   3  206.87   28.99
  -5  -2   3  208.58   15.87
   5   2  -3  200.64   12.50
  -5  -2   3  207.84    6.73
  -5  -2   3  198.54   10.20
  -5  -2   3  212.17   14.22
  -5  -2   2 1513.11   31.29
   5   2  -2 1578.35   31.71
  -5  -2   2 1878.65   84.49
  -5  -2   2 1622.22   48.14
   5   2  -2 1596.47   34.98
  -5  -2   2 1587.39   24.66
  -5  -2   2 1558.16   31.56
  -5  -2   2 1816.11   45.45
  -5  -2   1 1156.75   27.58
   5   2  -1 1177.25   27.79
  -5  -2   1 1253.00   63.91
  -5  -2   1 1182.03   42.48
   5   2  -1 1183.69   28.49
  -5  -2   1 1189.39   28.29
  -5  -2   1 1267.38   40.96
  -5  -2   0  157.95   10.34
   5   2   0  177.86   10.92
  -5  -2   0  208.79   22.74
  -5  -2   0  180.14   17.10
   5   2   0  182.50   10.49
  -5  -2   0  202.37   15.20
  -5  -2   0  192.96   16.90
  -5  -2  -1 1062.48   29.32
   5   2   1 1035.26   28.93
  -5  -2  -1 1098.79   45.75
   5   2   1 1122.15   25.78
  -5  -2  -1 1129.92   38.47
  -5  -2  -1 1123.21   44.98
  -5  -2  -2 1803.89   42.30
  -5  -2  -2 1901.19   53.75
   5   2   2 1804.46   41.68
  -5  -2  -2 1898.94   34.55
  -5  -2  -2 1850.66   51.79
   5   2   2 1864.89   33.38
  -5  -2  -2 1857.58   60.67
   5   2   3  896.12   21.64
  -5  -2  -3  875.82   31.14
  -5  -2  -3  928.94   24.34
  -5  -2  -3  897.72   32.95
   5   2   3  883.66   30.70
  -5  -2  -3  918.30   36.14
  -5  -2  -3  932.06   44.03
  -5  -2  -4  431.61   17.69
  -5  -2  -4  405.98   23.39
   5   2   4  414.19   22.69
  -5  -2  -4  458.23   25.47
  -5  -2  -4  397.98   27.43
  -5  -2  -5 1755.62   54.74
   5   2   5 1800.42   53.71
  -5  -2  -5 1824.56   54.01
  -5  -2  -5 1825.61   52.00
  -5  -2  -5 1774.83   57.30
  -5  -2  -6 1042.21   46.10
   5   2   6 1053.38   44.57
  -5  -2  -6 1132.66   42.19
  -5  -2  -6 1162.63   44.20
   5   2   6 1173.62   39.73
  -5  -2  -7    5.50    3.32
   5   2   7    2.92    4.23
  -5  -2  -7   -6.15    7.38
   5   2   7  -10.45    8.58
  -5  -2  -7    6.69    4.17
  -5  -2  -8  515.49   35.67
   5   2   8  459.74   32.98
  -5  -2  -8  512.53   28.39
  -5  -2  -9  932.25   47.86
   5   2   9  800.32   43.32
  -5  -2  -9  925.67   38.70
   5   2   9  781.80   41.76
   5   2  10  112.01   16.10
  -5  -3  15  332.43   26.34
  -5  -3  15  365.24   30.37
   5   3 -15  318.98   26.17
  -5  -3  15  298.82   28.23
  -5  -3  14   -1.51    8.01
  -5  -3  14  -13.06   10.34
   5   3 -14    4.22    6.87
  -5  -3  14   -4.31    7.82
  -5  -3  13  411.74   31.34
  -5  -3  13  548.18   33.22
   5   3 -13  471.81   33.02
  -5  -3  13  616.76   37.26
  -5  -3  12 1115.90   52.27
  -5  -3  12 1334.14   48.72
   5   3 -12 1185.57   50.57
   5   3 -12 1268.87   43.39
  -5  -3  12 1395.06   50.31
  -5  -3  11   93.46   14.89
  -5  -3  11  101.14   12.09
   5   3 -11   83.63   13.07
   5   3 -11   92.51   11.79
   5   3 -11   93.59   10.11
  -5  -3  11  100.93   11.91
  -5  -3  10  572.63   34.03
  -5  -3  10  547.76   25.58
   5   3 -10  502.86   29.28
  -5  -3  10  466.59   32.34
   5   3 -10  525.01   29.32
   5   3 -10  510.65   20.99
  -5  -3  10  470.88   23.16
  -5  -3   9 1708.31   43.20
   5   3  -9 1710.95   50.64
   5   3  -9 1764.25   53.96
   5   3  -9 1692.24   35.66
  -5  -3   9 1690.32   41.57
  -5  -3   8  306.45   19.71
  -5  -3   8  294.32   15.95
   5   3  -8  274.45   12.32
   5   3  -8  305.40   19.11
  -5  -3   8  255.86   29.26
  -5  -3   8  321.13   16.70
   5   3  -8  271.67   19.86
   5   3  -8  295.77   12.76
  -5  -3   8  292.76   15.50
  -5  -3   7   59.16    8.09
  -5  -3   7   58.73    7.02
   5   3  -7   55.66    5.45
   5   3  -7   62.10    7.98
  -5  -3   7   56.53    6.85
   5   3  -7   58.63    9.09
   5   3  -7   54.26    5.02
  -5  -3   7   46.25    5.90
  -5  -3   7   61.95    5.82
  -5  -3   6 1892.71   43.12
   5   3  -6 1952.43   34.12
   5   3  -6 1945.11   40.73
  -5  -3   6 2036.03   43.17
   5   3  -6 1975.34   50.03
   5   3  -6 2060.03   31.59
  -5  -3   6 1916.60   38.55
  -5  -3   6 1884.15   37.74
  -5  -3   5  658.94   23.03
   5   3  -5  640.29   18.47
   5   3  -5  643.88   20.45
  -5  -3   5  666.03   24.62
   5   3  -5  665.14   26.61
  -5  -3   5  666.00   21.03
  -5  -3   5  664.69   23.17
   5   3  -4  260.95   11.86
  -5  -3   4  244.71   15.70
  -5  -3   4  263.81    9.19
   5   3  -4  274.96   16.02
  -5  -3   4  274.03   13.03
  -5  -3   4  240.64   16.33
  -5  -3   3 1299.82   29.78
   5   3  -3 1350.06   29.24
  -5  -3   3 1296.60   39.69
  -5  -3   3 1390.35   23.45
   5   3  -3 1332.69   34.30
  -5  -3   3 1313.58   29.74
  -5  -3   3 1238.26   40.74
  -5  -3   2 1482.48   32.00
   5   3  -2 1488.61   32.55
  -5  -3   2 1389.12   44.15
  -5  -3   2 1545.41   26.76
   5   3  -2 1504.73   35.11
  -5  -3   2 1431.09   31.84
  -5  -3   2 1522.37   49.97
  -5  -3   1  187.40   11.24
   5   3  -1  194.35   11.64
  -5  -3   1  166.94   26.30
  -5  -3   1  182.16   16.23
  -5  -3   1  192.06   10.15
   5   3  -1  196.57   11.95
  -5  -3   1  169.85   19.91
  -5  -3   0  730.77   23.31
  -5  -3   0  758.25   50.48
   5   3   0  742.89   24.72
  -5  -3   0  753.48   34.77
  -5  -3   0  726.09   25.37
   5   3   0  783.14   23.08
  -5  -3  -1 1816.89   40.36
  -5  -3  -1 1862.81   68.43
   5   3   1 1854.94   43.17
  -5  -3  -1 1864.24   57.70
  -5  -3  -1 1813.14   49.67
   5   3   1 1892.39   36.81
   5   3   2  951.12   24.84
  -5  -3  -2  918.58   29.66
  -5  -3  -2  961.80   42.38
   5   3   2  926.95   32.11
  -5  -3  -2  953.15   38.41
  -5  -3  -2 1063.60   52.88
  -5  -3  -3   11.56    7.33
  -5  -3  -3    2.04    2.76
   5   3   3   11.44    2.99
  -5  -3  -3    8.71    4.76
   5   3   3    3.74    4.26
  -5  -3  -3    9.21    3.83
  -5  -3  -4  963.27   36.05
   5   3   4 1048.44   40.63
  -5  -3  -4 1006.02   39.99
  -5  -3  -4 1086.31   47.92
  -5  -3  -5 1448.76   48.80
   5   3   5 1436.88   52.10
  -5  -3  -5 1487.91   48.94
  -5  -3  -5 1508.90   54.92
  -5  -3  -6  269.66   22.81
   5   3   6  239.76   22.65
   5   3   6  303.37   19.57
  -5  -3  -6  261.70   19.88
  -5  -3  -6  232.82   20.61
  -5  -3  -7  157.81   19.35
   5   3   7  132.81   18.34
  -5  -3  -7  166.04   16.49
  -5  -3  -7  155.93   16.13
  -5  -3  -8  723.47   42.18
   5   3   8  643.10   40.09
  -5  -3  -8  714.64   34.80
  -5  -3  -9  693.85   41.60
   5   3   9  612.83   37.77
  -5  -3  -9  683.67   34.28
   5   3   9  636.68   38.72
  -5  -4  15    2.88    7.13
  -5  -4  15   28.37    9.12
  -5  -4  14  123.57   17.20
   5   4 -14  178.74   20.82
  -5  -4  14  172.99   21.67
  -5  -4  13  454.54   35.10
  -5  -4  13  586.15   32.96
   5   4 -13  506.14   34.41
  -5  -4  13  666.19   38.44
  -5  -4  12  524.26   36.91
  -5  -4  12  654.05   32.11
   5   4 -12  582.57   34.81
   5   4 -12  573.33   29.88
  -5  -4  12  628.05   33.64
  -5  -4  11   47.04    8.01
  -5  -4  11   39.61   10.84
   5   4 -11   36.79    8.64
   5   4 -11   36.89    8.68
  -5  -4  11   35.07    9.30
   5   4 -11   39.89    6.69
  -5  -4  11   35.36    7.38
  -5  -4  10  736.68   38.96
  -5  -4  10  734.36   28.63
   5   4 -10  647.34   32.81
   5   4 -10  681.98   24.25
   5   4 -10  658.51   33.45
  -5  -4  10  662.06   28.17
  -5  -4   9  769.82   35.19
  -5  -4   9  787.81   27.60
   5   4  -9  753.02   32.06
   5   4  -9  784.64   23.77
   5   4  -9  687.44   33.21
  -5  -4   9  716.05   27.25
  -5  -4   8   44.45    6.17
  -5  -4   8   53.12    8.77
   5   4  -8   45.37    8.39
   5   4  -8   46.06    7.26
  -5  -4   8   41.60    6.72
   5   4  -8   50.68    5.63
  -5  -4   8   37.81    6.29
  -5  -4   7  730.90   28.36
   5   4  -7  778.26   21.03
   5   4  -7  790.53   27.36
  -5  -4   7  814.28   28.23
   5   4  -7  855.34   22.01
   5   4  -7  748.14   31.96
  -5  -4   7  800.13   26.11
  -5  -4   7  706.60   22.72
   5   4  -6 1983.01   34.17
  -5  -4   6 1926.48   44.09
   5   4  -6 1960.26   35.56
  -5  -4   6 1995.17   45.30
   5   4  -6 1889.58   49.47
  -5  -4   6 1976.24   41.37
  -5  -4   6 1824.71   41.99
  -5  -4   5  205.33   13.18
   5   4  -5  205.89   10.85
  -5  -4   5  217.51   14.50
  -5  -4   5  215.80    9.65
   5   4  -5  223.45   15.60
  -5  -4   5  213.91   12.43
  -5  -4   5  204.46   14.72
   5   4  -4  748.61   22.05
  -5  -4   4  778.27   28.98
  -5  -4   4  772.87   18.56
   5   4  -4  723.08   27.06
  -5  -4   4  767.39   23.61
  -5  -4   3 2436.54   44.36
   5   4  -3 2368.78   43.80
  -5  -4   3 2392.40   56.07
  -5  -4   3 2543.59   37.67
   5   4  -3 2435.52   49.51
  -5  -4   3 2442.01   44.74
  -5  -4   3 2314.47   67.81
  -5  -4   2  511.82   19.12
   5   4  -2  557.86   20.61
  -5  -4   2  501.43   26.43
  -5  -4   2  552.96   16.81
   5   4  -2  512.47   20.94
  -5  -4   2  530.12   19.62
  -5  -4   1  191.23   11.86
   5   4  -1  178.65   12.37
  -5  -4   1  197.51   17.27
  -5  -4   1  202.20   11.15
   5   4  -1  181.82   12.09
  -5  -4   0 2886.96   51.95
   5   4   0 2930.40   57.48
  -5  -4   0 2827.42   71.61
  -5  -4   0 2979.15   54.10
   5   4   0 2920.85   51.65
   5   4   1 1619.29   36.05
  -5  -4  -1 1512.44   37.61
   5   4   1 1514.93   42.97
  -5  -4  -1 1481.82   51.92
  -5  -4  -1 1507.12   43.39
   5   4   2  142.11   10.22
  -5  -4  -2  127.97   11.14
  -5  -4  -2  113.03   16.68
   5   4   2  150.76   14.18
  -5  -4  -2  126.66   15.60
  -5  -4  -2  133.00   14.45
  -5  -4  -3  824.47   30.86
  -5  -4  -3  800.37   39.02
   5   4   3  878.16   38.11
  -5  -4  -3  860.25   39.52
  -5  -4  -3  892.90   50.24
  -5  -4  -4 1503.33   45.29
   5   4   4 1473.72   53.47
  -5  -4  -4 1468.94   52.18
  -5  -4  -4 1577.21   62.83
  -5  -4  -5  332.50   22.79
   5   4   5  302.08   25.71
  -5  -4  -5  338.65   24.45
  -5  -4  -5  326.45   27.74
  -5  -4  -6   10.18    5.40
  -5  -4  -6   18.69    5.24
  -5  -4  -6   15.61    5.96
   5   4   6    5.14    4.98
  -5  -4  -7  373.63   29.01
   5   4   7  334.91   29.32
  -5  -4  -7  439.88   27.34
  -5  -4  -7  376.25   26.44
  -5  -4  -8  699.57   41.48
   5   4   8  635.49   39.51
  -5  -4  -8  700.54   36.10
  -5  -5  15   11.92    7.44
   5   5 -14  410.34   32.07
  -5  -5  14  435.69   34.85
   5   5 -13  415.54   31.11
  -5  -5  13  484.22   32.92
  -5  -5  12    9.47    4.29
  -5  -5  12    2.34    5.98
   5   5 -12   17.37    6.08
   5   5 -12   10.54    5.18
  -5  -5  12   14.16    6.16
  -5  -5  11  377.81   31.11
  -5  -5  11  351.06   20.55
   5   5 -11  332.38   24.75
   5   5 -11  329.26   18.60
   5   5 -11  343.39   24.84
  -5  -5  11  340.58   22.47
  -5  -5  10  702.28   38.35
   5   5 -10  721.44   25.61
   5   5 -10  669.12   34.25
  -5  -5  10  690.65   29.82
  -5  -5   9  131.82   14.83
  -5  -5   9  139.38   13.40
   5   5  -9  119.26    9.61
   5   5  -9  120.70   14.02
  -5  -5   9  130.97   12.24
  -5  -5   8   74.82   10.15
  -5  -5   8   82.28    9.65
   5   5  -8   92.35    8.15
   5   5  -8   69.66   10.93
  -5  -5   8   74.45    8.80
  -5  -5   7 1244.17   37.57
  -5  -5   7 1300.15   38.06
   5   5  -7 1372.01   31.21
   5   5  -7 1239.43   42.23
  -5  -5   7 1335.36   36.11
  -5  -5   7 1198.93   34.30
  -5  -5   6  757.37   27.27
   5   5  -6  794.20   22.89
  -5  -5   6  789.86   28.89
   5   5  -6  790.48   31.71
  -5  -5   6  801.37   26.76
  -5  -5   5  102.34    9.61
   5   5  -5   97.87    8.05
  -5  -5   5   95.25   10.17
  -5  -5   5  102.78    7.45
   5   5  -5  100.14   10.99
  -5  -5   5   95.14    8.94
  -5  -5   5   88.15   11.85
   5   5  -4 1004.95   28.01
  -5  -5   4 1015.02   34.70
  -5  -5   4 1015.12   24.21
   5   5  -4 1012.32   33.12
  -5  -5   4  984.20   28.72
  -5  -5   3 2038.33   41.89
   5   5  -3 2008.52   43.22
  -5  -5   3 1990.89   52.52
  -5  -5   3 2084.39   36.93
  -5  -5   3 2066.37   42.58
  -5  -5   2  267.63   14.28
   5   5  -2  263.48   15.63
  -5  -5   2  239.11   18.63
  -5  -5   2  257.65   12.58
  -5  -5   2  235.50   13.76
   5   5  -2  247.91   15.40
  -5  -5   1 1090.36   30.40
   5   5  -1 1080.38   34.90
  -5  -5   1 1021.38   41.96
  -5  -5   1 1102.03   28.79
   5   5  -1 1044.21   31.82
   5   5   0 2672.38   51.87
  -5  -5   0 2536.08   50.33
   5   5   0 2811.25   62.16
  -5  -5   0 2353.17   67.51
  -5  -5   0 2572.23   51.34
   5   5   1  746.73   25.88
  -5  -5  -1  723.65   26.30
   5   5   1  764.04   33.82
  -5  -5  -1  713.10   37.25
  -5  -5  -1  714.42   29.44
  -5  -5  -2  230.01   15.38
   5   5   2  237.57   20.43
  -5  -5  -2  240.47   21.99
  -5  -5  -2  231.21   19.05
  -5  -5  -3 1826.37   47.87
   5   5   3 1883.22   62.47
  -5  -5  -3 1865.33   62.27
  -5  -5  -4 1082.55   39.24
   5   5   4 1080.84   50.37
  -5  -5  -4 1159.34   49.44
  -5  -5  -5   40.53   13.78
  -5  -5  -5   34.89    7.47
   5   5   5   34.58   10.13
  -5  -5  -5   35.19    8.80
  -5  -5  -6  381.43   27.01
   5   5   6  337.62   30.11
  -5  -5  -6  416.25   28.96
  -5  -5  -6  310.12   27.54
  -5  -5  -7  505.57   34.15
   5   5   7  461.61   34.66
  -5  -5  -7  527.27   32.03
  -5  -5  -8  252.40   22.75
  -5  -5  -8  240.51   21.24
  -5  -6  14  376.16   32.69
   5   6 -14  440.30   29.47
  -5  -6  13   51.14   11.40
   5   6 -13   47.68   10.23
  -5  -6  12  350.81   31.20
  -5  -6  12  381.67   26.49
   5   6 -12  365.09   25.78
  -5  -6  11  832.61   46.00
   5   6 -11  731.99   28.80
  -5  -6  11  768.73   34.62
   5   6 -11  740.97   37.67
  -5  -6  10  201.19   20.65
   5   6 -10  182.90   13.38
  -5  -6  10  207.40   16.79
   5   6 -10  189.76   18.92
  -5  -6   9  182.55   17.28
  -5  -6   9  205.65   16.99
   5   6  -9  193.26   13.22
  -5  -6   9  186.17   14.94
   5   6  -9  188.89   18.39
  -5  -6   8 1090.37   38.19
  -5  -6   8 1170.37   39.17
   5   6  -8 1211.22   32.50
  -5  -6   8 1182.88   36.68
   5   6  -8 1086.53   42.55
  -5  -6   7  867.48   32.24
  -5  -6   7  917.96   31.05
   5   6  -7  838.01   35.85
  -5  -6   6    6.56    3.21
   5   6  -6    1.73    3.90
  -5  -6   6    3.48    2.65
  -5  -6   6    3.53    2.07
  -5  -6   6    5.77    3.17
  -5  -6   5  731.69   26.11
   5   6  -5  714.94   25.81
  -5  -6   5  682.26   28.65
  -5  -6   5  732.90   22.24
  -5  -6   5  712.43   25.82
   5   6  -5  698.31   29.79
   5   6  -4 1581.06   41.51
  -5  -6   4 1627.01   46.37
  -5  -6   4 1702.23   35.03
  -5  -6   4 1625.48   39.54
   5   6  -4 1609.22   45.05
  -5  -6   3  368.95   17.57
   5   6  -3  377.82   20.57
  -5  -6   3  345.82   21.96
  -5  -6   3  381.06   15.91
  -5  -6   3  355.94   17.67
   5   6  -3  380.50   20.59
   5   6  -2   80.67    9.43
  -5  -6   2   77.44    8.24
   5   6  -2   86.36   10.29
  -5  -6   2   76.80   10.96
  -5  -6   2   89.78    8.10
  -5  -6   2   76.87    8.50
   5   6  -1 1729.22   44.53
  -5  -6   1 1796.04   41.81
   5   6  -1 1741.26   51.98
  -5  -6   1 1611.59   54.62
  -5  -6   1 1774.33   40.09
  -5  -6   0 1335.80   36.73
   5   6   0 1341.97   38.14
   5   6   0 1350.45   48.34
  -5  -6   0 1213.44   49.41
  -5  -6   0 1344.71   37.35
  -5  -6  -1   94.66    9.92
  -5  -6  -1   79.76   13.32
   5   6   1  101.86   14.01
  -5  -6  -1   83.70   10.00
  -5  -6  -2  605.65   26.36
   5   6   2  554.70   35.10
  -5  -6  -2  592.84   36.40
  -5  -6  -2  592.43   31.51
  -5  -6  -3 1549.33   45.37
   5   6   3 1427.23   59.72
  -5  -6  -3 1638.24   61.57
  -5  -6  -3 1605.77   58.56
  -5  -6  -4  318.54   21.57
   5   6   4  287.37   27.41
  -5  -6  -4  323.21   27.68
   5   6   5   52.03   13.28
  -5  -6  -5   50.10    9.11
  -5  -6  -5   49.32   11.45
  -5  -6  -6  756.42   39.14
   5   6   6  735.67   44.07
  -5  -6  -6  834.26   44.11
  -5  -6  -7  565.10   36.83
  -5  -6  -7  654.31   38.33
   5   7 -14  190.26   20.05
  -5  -7  13   76.92   15.95
   5   7 -13   69.76   12.67
  -5  -7  13   64.73   12.84
  -5  -7  12  568.78   40.45
   5   7 -12  466.76   32.40
  -5  -7  12  560.28   32.55
   5   7 -12  514.43   32.15
  -5  -7  11  500.95   35.11
   5   7 -11  463.54   35.06
   5   7 -11  416.52   30.59
   5   7 -11  499.86   24.67
  -5  -7  11  462.50   27.38
   5   7 -11  439.42   30.29
   5   7 -10    1.99    3.76
  -5  -7  10   -0.62    3.90
   5   7 -10   -0.69    2.59
  -5  -7  10    3.33    4.78
  -5  -7   9  908.16   38.03
  -5  -7   9  902.74   38.14
   5   7  -9  953.78   31.40
  -5  -7   9  916.64   34.86
   5   7  -9  840.89   40.49
  -5  -7   8 1421.39   44.31
  -5  -7   8 1443.51   46.08
   5   7  -8 1550.12   39.36
  -5  -7   8 1490.89   43.52
   5   7  -8 1448.99   51.59
  -5  -7   7  154.74   13.33
  -5  -7   7  157.42   14.33
  -5  -7   7  147.42   11.13
  -5  -7   7  170.14   14.07
   5   7  -7  148.83   15.85
  -5  -7   6  909.54   31.15
  -5  -7   6  863.28   33.54
  -5  -7   6  937.28   27.96
  -5  -7   6  905.94   31.83
   5   7  -6  891.50   37.41
  -5  -7   5 1669.60   48.10
  -5  -7   5 1813.29   39.09
  -5  -7   5 1742.88   43.78
   5   7  -5 1647.67   50.00
   5   7  -4  782.74   33.17
  -5  -7   4  798.83   27.79
   5   7  -4  809.80   35.15
  -5  -7   4  790.64   33.09
  -5  -7   4  844.75   25.95
  -5  -7   4  758.57   27.84
  -5  -7   3   30.72    5.38
  -5  -7   3   25.01    6.10
   5   7  -3   32.83    6.99
   5   7  -3   26.68    6.97
  -5  -7   3   36.62    5.29
  -5  -7   3   29.28    5.18
  -5  -7   2 1149.76   33.51
   5   7  -2 1177.73   38.81
   5   7  -2 1126.70   46.11
  -5  -7   2 1139.38   44.33
  -5  -7   2 1164.17   32.32
  -5  -7   2 1098.71   33.96
  -5  -7   1 1140.29   34.29
   5   7  -1 1088.92   37.18
   5   7  -1 1156.81   48.71
  -5  -7   1 1032.54   44.67
  -5  -7   1 1098.04   32.87
  -5  -7   0  180.78   13.78
   5   7   0  168.20   19.27
  -5  -7   0  157.70   17.95
  -5  -7   0  185.58   14.33
  -5  -7  -1  186.02   14.62
   5   7   1  151.33   19.21
  -5  -7  -1  163.40   19.23
  -5  -7  -1  177.38   15.49
  -5  -7  -2  885.15   33.33
  -5  -7  -2  841.95   44.88
  -5  -7  -2  872.07   39.14
  -5  -7  -3  527.33   26.99
  -5  -7  -3  566.42   36.87
  -5  -7  -3  525.61   33.90
  -5  -7  -4   16.35    5.25
   5   7   4   12.48    8.35
  -5  -7  -4   12.25    6.81
  -5  -7  -5  433.98   27.99
   5   7   5  345.75   30.75
  -5  -7  -5  433.13   33.92
  -5  -7  -6  445.04   30.51
  -5  -7  -6  421.42   32.97
   5   8 -12  376.29   29.16
  -5  -8  12  402.74   28.12
   5   8 -11  122.06   17.31
  -5  -8  11  179.87   21.00
   5   8 -11  156.49   23.18
  -5  -8  11  148.02   15.97
   5   8 -10  153.28   18.41
  -5  -8  10  145.83   16.88
   5   8 -10  151.55   24.43
  -5  -8  10  133.99   16.25
   5   8 -10  149.49   13.79
  -5  -8  10  155.43   15.50
   5   8  -9  877.51   42.92
  -5  -8   9  942.22   38.86
   5   8  -9 1039.55   62.93
  -5  -8   9  980.35   41.41
  -5  -8   9  935.08   36.63
   5   8  -8  450.27   30.52
  -5  -8   8  505.73   26.21
  -5  -8   8  482.59   27.59
  -5  -8   8  535.10   23.25
  -5  -8   8  484.40   25.49
  -5  -8   7   60.76    8.78
   5   8  -7   58.43   11.36
  -5  -8   7   43.39    7.90
  -5  -8   7   55.07    7.50
  -5  -8   7   55.65    8.51
   5   8  -6 1226.90   46.95
  -5  -8   6 1309.92   38.74
  -5  -8   6 1313.96   35.94
  -5  -8   6 1251.73   39.42
   5   8  -5 1459.46   48.75
  -5  -8   5 1392.75   45.68
  -5  -8   5 1483.78   37.81
  -5  -8   5 1438.93   41.28
  -5  -8   4   78.06    8.90
   5   8  -4   67.21   10.40
  -5  -8   4   77.69   10.49
  -5  -8   4   83.10    8.42
  -5  -8   4   72.03    8.82
  -5  -8   3  447.12   21.45
   5   8  -3  479.02   26.46
  -5  -8   3  430.18   26.75
  -5  -8   3  490.24   21.44
  -5  -8   3  473.57   22.64
  -5  -8   2 1474.85   40.27
   5   8  -2 1440.35   60.92
  -5  -8   2 1409.41   51.76
  -5  -8   2 1515.64   39.86
  -5  -8   1  642.41   26.56
   5   8  -1  614.54   40.71
  -5  -8   1  597.19   35.04
  -5  -8   1  639.71   26.45
  -5  -8   0   58.91    8.14
   5   8   0   41.68   11.14
  -5  -8   0   41.65    8.88
   5   8   0   31.49   10.16
  -5  -8   0   53.34    8.04
  -5  -8  -1  872.39   33.52
  -5  -8  -1  763.11   43.32
   5   8   1  711.36   44.76
  -5  -8  -1  780.94   34.72
  -5  -8  -2  617.86   28.93
   5   8   2  496.32   34.76
   5   8   2  531.12   38.39
  -5  -8  -2  595.29   38.70
  -5  -8  -2  602.52   33.78
  -5  -8  -3   -5.49    6.14
   5   8   3    9.13    7.40
  -5  -8  -3   -4.44    7.02
  -5  -8  -3    5.69    5.65
  -5  -8  -4  190.97   18.11
   5   8   4  138.89   20.07
  -5  -8  -4  156.23   20.54
  -5  -8  -5  297.60   29.16
   5   9 -12  156.45   19.68
   5   9 -11   22.48   10.61
  -5  -9  11   28.53    9.41
   5   9 -11   17.77    7.74
  -5  -9  11   34.30    8.60
   5   9 -10  436.29   32.84
  -5  -9  10  596.24   33.47
   5   9 -10  532.64   47.95
  -5  -9  10  555.17   34.16
  -5  -9  10  532.73   29.50
   5   9  -9  437.88   32.17
  -5  -9   9  510.09   28.87
   5   9  -9  570.74   50.99
  -5  -9   9  515.63   31.22
  -5  -9   9  510.48   24.98
  -5  -9   9  521.43   28.43
  -5  -9   8   26.75    6.86
   5   9  -8   23.36    7.04
  -5  -9   8   31.26    7.98
  -5  -9   8   34.66    6.55
   5   9  -8   23.19   14.43
  -5  -9   8   36.45    7.76
   5   9  -7  161.71   18.75
  -5  -9   7  188.63   15.48
   5   9  -7  162.07   32.79
  -5  -9   7  153.09   16.13
  -5  -9   7  190.92   14.74
  -5  -9   7  200.16   16.53
   5   9  -6  655.54   35.47
   5   9  -6  627.38   58.21
  -5  -9   6  678.51   33.03
  -5  -9   6  735.92   28.47
  -5  -9   6  719.32   31.00
  -5  -9   5  396.85   21.35
   5   9  -5  385.55   26.46
   5   9  -5  395.12   46.98
  -5  -9   5  397.03   25.36
  -5  -9   5  434.18   21.47
  -5  -9   5  421.01   22.85
  -5  -9   4    0.78    3.20
  -5  -9   4   -1.84    5.15
   5   9  -4    5.94    7.04
  -5  -9   4   -4.99    4.50
  -5  -9   4    0.35    3.70
  -5  -9   3  830.45   30.61
   5   9  -3  797.30   56.93
  -5  -9   3  800.05   38.67
  -5  -9   3  890.07   31.36
  -5  -9   3  867.78   32.49
  -5  -9   2 1246.74   38.40
   5   9  -2 1090.16   64.00
  -5  -9   2 1091.79   48.11
  -5  -9   2 1189.72   37.58
  -5  -9   1  110.31   11.67
  -5  -9   1  107.99   15.25
   5   9  -1  111.66   19.98
   5   9  -1  133.78   20.93
  -5  -9   1  111.07   11.65
  -5  -9   0  364.30   21.75
   5   9   0  263.75   29.89
   5   9   0  339.46   31.20
  -5  -9   0  326.80   28.25
  -5  -9   0  330.81   21.82
  -5  -9  -1  736.59   31.79
   5   9   1  529.28   39.11
   5   9   1  598.54   40.35
  -5  -9  -1  713.57   43.31
  -5  -9  -1  622.02   32.66
  -5  -9  -2  174.80   16.24
   5   9   2  137.57   19.06
   5   9   2  179.51   22.09
  -5  -9  -2  150.36   20.22
  -5  -9  -2  152.69   17.47
   5   9   3   35.07   11.09
  -5  -9  -3   35.25    7.74
  -5  -9  -3   23.31    6.83
   5  10 -11  480.57   41.11
  -5 -10  10  571.07   32.78
   5  10 -10  522.54   36.73
  -5 -10  10  585.00   36.51
   5  10  -9  130.48   25.61
  -5 -10   9   92.74   12.40
   5  10  -9   71.23   13.67
  -5 -10   9  105.97   14.76
  -5 -10   9   93.76   11.45
  -5 -10   9  109.30   13.53
  -5 -10   8   59.49    9.74
  -5 -10   8   50.67   10.20
  -5 -10   8   39.74    7.49
  -5 -10   8   58.51    9.99
   5  10  -8   42.47   17.01
   5  10  -7  606.77   58.82
  -5 -10   7  545.81   31.54
  -5 -10   7  597.28   27.62
  -5 -10   7  596.65   29.75
  -5 -10   6  589.98   27.83
   5  10  -6  536.23   57.40
  -5 -10   6  598.92   32.77
  -5 -10   6  609.63   27.57
  -5 -10   6  610.13   29.59
  -5 -10   5   29.41    6.24
  -5 -10   5   28.04    6.95
  -5 -10   5   33.59    6.47
  -5 -10   5   33.75    6.95
   5  10  -5   53.99   17.75
  -5 -10   4  223.59   16.39
   5  10  -4  201.74   32.74
  -5 -10   4  197.05   19.21
  -5 -10   4  231.12   16.66
  -5 -10   4  247.34   18.15
  -5 -10   3  602.94   27.15
   5  10  -3  544.33   49.09
  -5 -10   3  556.41   33.85
  -5 -10   3  617.12   27.83
  -5 -10   2  264.20   18.12
   5  10  -2  213.36   29.65
  -5 -10   2  212.50   21.86
  -5 -10   2  237.14   17.65
   5  10  -1   25.37   10.76
  -5 -10   1   21.57    6.96
  -5 -10   1   31.08    6.51
  -5 -10   1   25.69    6.40
  -5 -10   0  464.39   25.55
   5  10   0  327.85   32.20
  -5 -10   0  373.75   31.97
  -5 -10   0  412.60   26.09
  -5 -10  -1  371.66   23.34
   5  10   1  301.94   29.97
   5  10   1  351.41   30.89
  -5 -10  -1  330.47   25.15
  -5 -11   7  913.12   37.30
  -5 -11   6   83.49   11.09
  -5 -11   6  103.45   12.20
  -5 -11   5  167.30   15.12
  -5 -11   5  161.77   14.91
  -5 -11   4  608.86   28.65
  -5 -11   4  635.12   29.99
  -5 -11   3  296.30   19.98
  -5 -11   3  274.64   20.02
  -5 -11   2    8.02    3.53
  -5 -11   2    7.53    4.42
  -5 -11   1  247.28   20.01
   6 -12   0  113.00   12.45
   6 -12   1  145.35   14.36
   6 -12   2  374.38   24.26
   6 -12   2  353.43   22.88
   6 -12   3  320.74   22.21
  -6  11   5  881.74   38.69
  -6  11   5  751.69   45.92
   6 -11  -4  287.46   24.62
  -6  11   4  336.00   23.56
  -6  11   4  301.83   31.28
   6 -11  -3   89.26   13.65
  -6  11   3   89.67   12.32
  -6  11   3   91.69   19.16
   6 -11  -3   63.86    8.66
   6 -11  -2  685.43   36.45
  -6  11   2  739.69   58.26
   6 -11  -2  701.05   29.38
   6 -11  -1  780.19   38.27
   6 -11  -1  830.34   31.80
  -6  11   0    4.38    7.34
   6 -11   0   10.27    3.35
   6 -11   1  547.68   27.52
  -6  11  -1  597.87   60.80
   6 -11   1  571.75   26.86
   6 -11   2  779.12   33.96
  -6  11  -2  806.76   68.25
   6 -11   2  816.33   32.95
  -6  11  -3  209.54   33.72
   6 -11   3  213.86   18.28
   6 -11   3  229.15   17.64
   6 -11   4   83.42   12.36
   6 -11   4   85.70   11.07
  -6  11  -4   89.08   20.33
  -6  11  -5  711.82   34.48
   6 -11   5  671.53   31.30
  -6  11  -5  714.12   33.42
  -6  10   7  143.92   16.41
   6 -10  -6  626.39   37.45
  -6  10   6  692.15   33.84
  -6  10   6  576.78   37.33
   6 -10  -5  375.98   28.16
  -6  10   5  435.07   25.85
  -6  10   5  371.81   31.86
   6 -10  -5  416.09   23.81
   6 -10  -4   11.60    4.84
  -6  10   4    4.52    3.93
  -6  10   4    8.35    5.58
   6 -10  -4    0.18    3.92
   6 -10  -3  422.43   28.11
  -6  10   3  465.01   25.58
  -6  10   3  437.71   40.95
   6 -10  -3  410.37   21.31
   6 -10  -2 1053.81   43.47
  -6  10   2 1204.37   73.27
  -6  10   2 1173.91   40.93
   6 -10  -2 1077.99   34.56
   6 -10  -1  507.94   29.25
  -6  10   1  477.93   49.97
   6 -10  -1  500.35   22.93
   6 -10   0  124.02   11.88
  -6  10   0   86.28   22.60
   6 -10   0  105.39   10.54
   6 -10   1  935.46   34.45
   6 -10   1  993.60   33.43
   6 -10   2  819.49   33.38
  -6  10  -2  880.53   67.86
   6 -10   2  842.02   31.44
   6 -10   3   10.95    4.95
  -6  10  -3   18.15    9.35
   6 -10   3   13.60    4.53
   6 -10   4  607.33   31.60
  -6  10  -4  663.74   31.37
   6 -10   4  641.72   28.48
  -6  10  -4  663.72   52.01
  -6  10  -4  667.47   29.56
   6 -10   5  949.42   42.08
  -6  10  -5  973.14   39.82
  -6  10  -5  949.53   57.06
  -6  10  -5 1012.65   38.38
  -6  10  -6   50.83   12.26
   6 -10   6   75.38   16.55
   6 -10   6   54.35   11.89
  -6  10  -6   73.69   11.72
  -6  10  -6   46.68    8.76
  -6  10  -7  146.33   15.70
  -6   9   9  224.97   24.79
  -6   9   8   67.39   13.72
   6  -9  -8   72.37   13.21
  -6   9   8   48.84    9.83
  -6   9   7  791.55   44.94
   6  -9  -7  714.08   40.41
  -6   9   7  746.42   35.35
  -6   9   7  647.88   37.36
   6  -9  -6  901.30   44.11
  -6   9   6  900.87   37.04
   6  -9  -6  915.89   37.09
  -6   9   6  811.85   43.72
  -6   9   5   76.20   10.58
   6  -9  -5   71.74   11.90
   6  -9  -5   62.08    8.73
  -6   9   5   75.11   13.92
   6  -9  -4  333.54   24.57
  -6   9   4  353.97   21.54
  -6   9   4  322.17   31.82
   6  -9  -4  330.80   18.68
   6  -9  -3 1058.09   42.88
  -6   9   3 1102.10   37.83
  -6   9   3 1147.99   65.40
   6  -9  -3 1029.99   32.27
   6  -9  -2  570.83   30.46
  -6   9   2  603.74   51.57
  -6   9   2  592.67   27.18
   6  -9  -2  566.87   22.98
   6  -9  -1    8.27    4.45
  -6   9   1    9.97    4.59
  -6   9   1    2.74    7.84
   6  -9  -1    6.97    3.04
   6  -9  -1   15.62    4.24
   6  -9   0  653.93   26.03
   6  -9   0  642.37   24.56
  -6   9   0  609.21   55.87
   6  -9   1  779.44   29.69
  -6   9  -1  792.04   63.36
   6  -9   1  788.64   27.81
   6  -9   2  231.80   16.82
  -6   9  -2  266.82   35.43
   6  -9   2  244.20   15.88
   6  -9   3  105.97   20.44
   6  -9   3  117.01   13.09
  -6   9  -3  128.62   13.28
   6  -9   3  111.01   11.02
  -6   9  -3  109.33   11.03
  -6   9  -3  120.42   22.18
   6  -9   4  780.90   35.11
  -6   9  -4  791.61   34.02
  -6   9  -4  816.52   52.97
  -6   9  -4  847.05   31.96
   6  -9   5  306.31   24.12
  -6   9  -5  346.69   23.04
  -6   9  -5  351.41   21.41
  -6   9  -5  345.35   32.01
   6  -9   6   25.83    7.81
   6  -9   6   42.30   13.26
  -6   9  -6   28.11    7.59
  -6   9  -6   31.76    8.12
  -6   9  -6   29.11    6.89
  -6   9  -7  419.85   27.92
   6  -9   7  366.79   30.64
  -6   9  -7  421.16   25.61
   6  -9   7  471.67   36.14
  -6   9  -8  588.72   32.31
  -6   8  10  631.31   40.53
   6  -8 -10  660.59   34.61
  -6   8   9  103.91   16.70
   6  -8  -9  121.54   16.88
   6  -8  -9  130.21   15.59
  -6   8   8  306.67   28.78
   6  -8  -8  316.90   26.79
   6  -8  -7 1283.00   52.75
   6  -8  -7 1264.16   47.36
  -6   8   7 1227.45   50.10
   6  -8  -6  596.07   35.06
   6  -8  -6  674.91   30.37
  -6   8   6  581.65   35.92
  -6   8   5   95.04   12.79
   6  -8  -5   65.90   11.15
  -6   8   5   82.17   10.40
   6  -8  -5   73.98    8.95
  -6   8   5   86.28   15.15
   6  -8  -4 1589.14   53.53
  -6   8   4 1728.82   46.46
  -6   8   4 1697.72   73.02
   6  -8  -4 1623.26   40.44
   6  -8  -3 1476.55   49.89
  -6   8   3 1527.88   42.75
  -6   8   3 1554.13   75.19
   6  -8  -3 1454.28   36.37
   6  -8  -2   58.27    9.83
  -6   8   2   46.94    7.19
   6  -8  -2   41.43    5.77
  -6   8   2   60.29   16.45
   6  -8  -1  556.38   28.87
   6  -8  -1  587.09   22.29
  -6   8   1  603.03   25.86
  -6   8   1  546.40   50.72
   6  -8  -1  570.69   21.29
   6  -8   0 1041.77   31.81
  -6   8   0 1119.48   35.35
  -6   8   0 1004.45   68.81
   6  -8   0 1066.52   29.82
   6  -8   1  300.04   17.47
  -6   8  -1  253.81   33.95
   6  -8   1  280.25   15.18
   6  -8   1  298.25   32.43
   6  -8   2   57.03   13.84
   6  -8   2   54.53    8.21
  -6   8  -2   55.59    8.17
   6  -8   2   63.99    7.57
  -6   8  -2   52.96    7.01
  -6   8  -2   67.37   17.48
   6  -8   3  680.56   30.40
  -6   8  -3  741.04   30.90
  -6   8  -3  744.61   27.08
  -6   8  -3  767.48   52.15
   6  -8   4  387.41   24.74
  -6   8  -4  396.08   23.06
   6  -8   4  354.49   34.36
  -6   8  -4  404.02   20.86
  -6   8  -4  415.70   35.14
   6  -8   5    3.27    5.54
  -6   8  -5   -2.62    6.31
   6  -8   5   -0.09    4.54
  -6   8  -5    0.00    3.66
  -6   8  -5    1.38    3.08
  -6   8  -6  158.59   19.32
   6  -8   6  142.85   17.93
  -6   8  -6  167.34   16.53
  -6   8  -6  165.39   14.68
   6  -8   6  146.25   21.29
   6  -8   7  298.19   27.38
  -6   8  -7  346.92   25.08
  -6   8  -7  343.65   22.71
   6  -8   7  321.96   29.60
   6  -8   8   72.26   15.72
  -6   8  -8  103.78   15.14
  -6   8  -8  108.82   13.78
   6  -8   8  115.45   17.95
  -6   7  11  750.18   42.89
   6  -7 -11  770.61   36.21
  -6   7  10  312.05   28.35
   6  -7 -10  374.87   29.26
   6  -7 -10  338.81   24.26
   6  -7  -9   57.85   10.19
  -6   7   9   45.13   10.55
   6  -7  -9   70.10   12.84
  -6   7   8  885.43   47.67
  -6   7   8  821.45   37.85
   6  -7  -8  836.31   41.91
   6  -7  -8  900.08   40.91
   6  -7  -8  852.57   42.03
  -6   7   7 1239.02   48.77
   6  -7  -7 1281.96   51.28
   6  -7  -7 1338.03   47.94
  -6   7   6  178.88   18.49
   6  -7  -6  152.39   17.42
   6  -7  -6  151.59   13.77
  -6   7   6  150.86   18.01
  -6   7   5  738.71   31.99
   6  -7  -5  620.82   33.76
   6  -7  -5  683.21   26.17
  -6   7   5  621.50   39.38
  -6   7   4 1908.44   45.63
   6  -7  -4 1874.93   57.40
  -6   7   4 1856.96   46.41
   6  -7  -4 1924.17   41.52
  -6   7   4 1947.11   76.92
   6  -7  -3  802.04   35.47
  -6   7   3  841.35   29.64
   6  -7  -3  803.90   24.59
  -6   7   3  860.69   55.15
   6  -7  -2  146.46   14.87
  -6   7   2  162.81   12.95
   6  -7  -2  162.57   10.28
   6  -7  -2  132.35    9.19
  -6   7   2  175.86   27.16
   6  -7  -1 1653.60   48.95
   6  -7  -1 1604.87   36.69
  -6   7   1 1658.24   41.74
   6  -7  -1 1727.68   58.23
   6  -7  -1 1601.01   34.16
   6  -7   0 1518.51   45.91
   6  -7   0 1424.30   36.09
  -6   7   0 1482.42   38.90
   6  -7   0 1534.03   58.84
   6  -7   0 1471.27   32.67
  -6   7   0 1395.42   77.87
   6  -7   1   15.94    5.87
   6  -7   1   14.36    4.33
  -6   7  -1   11.53    3.11
   6  -7   1   13.54    3.36
  -6   7  -1   17.50   10.38
   6  -7   2  838.67   23.29
   6  -7   2  737.39   29.48
  -6   7  -2  798.81   30.06
   6  -7   2  758.34   43.69
  -6   7  -2  840.01   25.90
  -6   7  -2  875.11   56.08
   6  -7   3  831.22   33.45
  -6   7  -3  923.03   33.48
   6  -7   3  833.65   47.41
  -6   7  -3  917.30   28.49
  -6   7  -3  928.45   53.15
   6  -7   4   27.36    8.62
  -6   7  -4   47.02   11.35
  -6   7  -4   43.72    7.90
  -6   7  -4   38.23    6.23
  -6   7  -5  300.35   25.91
  -6   7  -5  278.53   19.89
   6  -7   5  241.28   26.03
  -6   7  -5  299.58   17.92
  -6   7  -6  588.40   30.19
  -6   7  -6  618.88   27.57
  -6   7  -7  204.29   19.19
  -6   7  -7  198.35   16.80
   6  -7   7  181.54   22.06
   6  -7   8   42.52   11.49
  -6   7  -8   44.15   10.16
  -6   7  -8   32.66    7.22
   6  -7   8   24.88    7.41
  -6   7  -9  440.26   29.42
   6  -7   9  401.78   32.58
   6  -6 -12  947.49   38.97
  -6   6  11  453.57   33.73
   6  -6 -11  464.03   31.25
   6  -6 -11  453.58   26.93
   6  -6 -10   -2.72    4.20
  -6   6  10   -2.66    8.52
   6  -6 -10    6.76    5.75
  -6   6   9  789.80   45.09
   6  -6  -9  822.93   41.60
   6  -6  -9  871.62   38.15
  -6   6   8 1253.13   55.02
   6  -6  -8 1114.32   47.74
   6  -6  -8 1270.11   47.95
  -6   6   8 1121.43   42.95
   6  -6  -8 1208.79   49.19
  -6   6   7  442.51   30.38
  -6   6   7  364.53   25.39
   6  -6  -7  354.59   26.08
   6  -6  -7  403.89   28.04
   6  -6  -7  340.46   23.43
  -6   6   6  122.84   14.08
  -6   6   6   99.10   14.24
   6  -6  -6  123.96   16.61
   6  -6  -6   79.25   12.13
   6  -6  -6  106.09   11.26
  -6   6   5 1408.30   41.55
   6  -6  -5 1324.99   50.00
   6  -6  -5 1380.38   36.54
  -6   6   5 1375.45   58.52
  -6   6   4 1035.39   31.00
   6  -6  -4 1001.63   41.50
   6  -6  -4 1054.33   28.35
  -6   6   4 1065.77   55.37
  -6   6   3    8.59    5.19
  -6   6   3   13.80    3.25
   6  -6  -3    3.18    4.00
  -6   6   3    7.97    3.11
   6  -6  -3   10.42    2.48
  -6   6   2  551.99   18.21
   6  -6  -2  537.87   27.86
   6  -6  -2  535.03   18.19
  -6   6   2  518.70   21.71
   6  -6  -2  519.29   17.18
  -6   6   2  497.64   43.77
   6  -6  -1 1648.23   48.36
   6  -6  -1 1546.36   34.58
  -6   6   1 1557.62   37.57
   6  -6  -1 1542.51   30.79
  -6   6   1 1449.28   75.85
  -6   6   0  406.19   25.15
   6  -6   0  437.36   23.86
   6  -6   0  401.58   18.29
  -6   6   0  407.79   18.61
   6  -6   0  415.39   15.23
  -6   6   0  383.60   39.14
  -6   6  -1  203.57   18.63
   6  -6   1  256.37   17.86
   6  -6   1  221.86   11.39
   6  -6   1  241.03   19.85
  -6   6  -1  213.14   11.48
  -6   6  -1  233.89   28.99
  -6   6  -2 1488.89   53.02
   6  -6   2 1400.36   45.63
   6  -6   2 1512.40   31.67
  -6   6  -2 1465.20   40.46
   6  -6   2 1448.08   52.33
  -6   6  -2 1452.08   32.78
  -6   6  -2 1521.09   68.55
  -6   6  -3  849.38   46.86
  -6   6  -3  828.18   40.73
   6  -6   3  864.91   23.94
  -6   6  -3  820.90   30.56
   6  -6   3  796.70   41.09
  -6   6  -3  804.71   25.36
  -6   6  -4   37.20    9.24
   6  -6   4   35.56    9.32
  -6   6  -4   35.81    6.85
  -6   6  -4   41.75    9.64
  -6   6  -4   38.19    5.98
   6  -6   4   49.89    7.93
  -6   6  -5  807.31   42.29
  -6   6  -5  888.94   42.26
  -6   6  -5  801.54   33.14
   6  -6   5  766.67   44.33
  -6   6  -5  880.54   30.21
   6  -6   5  828.94   35.37
  -6   6  -6  834.88   43.19
  -6   6  -6  770.55   34.38
  -6   6  -6  835.02   31.82
   6  -6   6  731.55   36.80
   6  -6   7   -0.39    6.70
  -6   6  -7    4.97    5.39
  -6   6  -7   -0.83    3.60
   6  -6   7   -2.41    4.72
  -6   6  -8  542.21   34.01
  -6   6  -8  571.56   31.18
   6  -6   8  479.12   36.10
   6  -6   8  560.35   37.11
  -6   6  -9  658.38   40.86
  -6   6  -9  693.71   37.38
   6  -6   9  685.16   41.69
   6  -6   9  739.58   45.70
  -6   5  12  975.55   48.95
   6  -5 -12  960.40   43.93
   6  -5 -12  971.14   38.17
  -6   5  11  205.66   22.90
   6  -5 -11  186.37   19.63
   6  -5 -11  182.07   16.60
  -6   5  10  349.56   30.03
   6  -5 -10  330.83   25.48
   6  -5 -10  403.24   24.97
  -6   5   9 1443.04   60.07
   6  -5  -9 1365.28   52.35
   6  -5  -9 1465.01   49.61
   6  -5  -9 1418.81   49.63
   6  -5  -8  840.99   40.81
   6  -5  -8  928.94   40.43
  -6   5   8  833.99   35.97
   6  -5  -8  863.62   38.58
   6  -5  -7   15.47    6.38
  -6   5   7   17.88    7.56
   6  -5  -7    6.14    4.30
  -6   5   7    2.14    2.83
   6  -5  -7    0.80    3.24
  -6   5   6 1558.62   46.50
   6  -5  -6 1492.35   53.62
  -6   5   6 1496.24   54.80
   6  -5  -6 1701.36   61.94
  -6   5   6 1687.52   60.13
   6  -5  -6 1485.47   43.61
  -6   5   5 1054.54   33.29
  -6   5   5 1084.62   50.64
   6  -5  -5 1111.93   45.57
  -6   5   5 1175.56   53.54
   6  -5  -5 1089.04   31.53
  -6   5   4  113.00    9.46
  -6   5   4  114.03   17.43
   6  -5  -4  100.90   13.46
   6  -5  -4  121.00   19.68
  -6   5   4  101.96   17.08
   6  -5  -4   94.99    7.74
  -6   5   3  342.30   33.08
  -6   5   3  332.10   14.95
   6  -5  -3  324.92   23.80
   6  -5  -3  297.94   29.25
  -6   5   3  309.48   30.39
   6  -5  -3  310.16   11.83
   6  -5  -3  323.44   12.90
  -6   5   2  641.63   27.71
  -6   5   2  635.59   46.73
  -6   5   2  689.77   20.05
   6  -5  -2  702.69   33.81
   6  -5  -2  577.24   39.16
  -6   5   2  584.70   43.69
   6  -5  -2  697.61   20.31
  -6   5   2  666.83   23.19
   6  -5  -2  683.63   17.89
  -6   5   1  480.62   24.60
  -6   5   1  476.15   41.68
  -6   5   1  497.43   15.14
   6  -5  -1  515.45   27.72
   6  -5  -1  467.13   32.19
  -6   5   1  560.53   46.41
  -6   5   1  490.07   19.30
   6  -5  -1  475.69   14.63
  -6   5   0   59.58    9.31
   6  -5   0   58.42    9.93
   6  -5   0   72.64    9.69
  -6   5   0   74.62   16.57
  -6   5   0   81.78   17.12
  -6   5   0   71.28    7.36
   6  -5   0   70.27    5.66
  -6   5   0   65.94    5.61
  -6   5  -1  928.88   37.31
   6  -5   1  893.53   23.25
   6  -5   1  847.29   34.41
  -6   5  -1  912.28   53.78
  -6   5  -1  946.68   30.23
  -6   5  -1  897.44   22.29
  -6   5  -2  775.06   35.70
  -6   5  -2  861.37   47.21
  -6   5  -2  785.20   36.48
   6  -5   2  791.43   22.19
   6  -5   2  728.82   28.29
  -6   5  -2  778.62   28.25
   6  -5   2  791.68   34.28
  -6   5  -2  801.42   22.35
   6  -5   2  727.71   25.09
  -6   5  -3   49.34   10.71
  -6   5  -3   33.61    7.82
   6  -5   3   43.83    8.84
  -6   5  -3   37.76    8.23
   6  -5   3   41.90    5.07
  -6   5  -3   42.66    7.12
  -6   5  -3   37.45    5.29
   6  -5   3   47.05    7.70
  -6   5  -4  453.27   29.50
  -6   5  -4  552.84   33.66
   6  -5   4  474.03   17.94
  -6   5  -4  494.98   30.60
  -6   5  -4  451.10   22.79
   6  -5   4  452.97   29.88
  -6   5  -4  445.83   19.30
   6  -5   4  425.31   25.03
  -6   5  -5 1136.87   48.22
  -6   5  -5 1245.39   51.25
  -6   5  -5 1162.31   45.35
  -6   5  -5 1049.23   37.36
   6  -5   5 1079.42   49.73
  -6   5  -5 1161.24   34.64
   6  -5   5  968.60   42.29
  -6   5  -6  209.86   21.00
  -6   5  -6  241.74   21.84
  -6   5  -6  201.46   17.51
   6  -5   6  175.07   21.42
  -6   5  -6  207.44   15.74
   6  -5   6  214.37   21.48
  -6   5  -7  109.43   14.43
  -6   5  -7  119.46   15.26
  -6   5  -7   98.13   11.91
   6  -5   7  113.02   17.07
  -6   5  -8  846.33   43.31
  -6   5  -8  869.25   38.97
  -6   5  -9  512.26   36.45
  -6   5  -9  566.45   34.26
   6  -5   9  487.66   35.98
   6  -5   9  589.19   37.97
  -6   5 -10   -3.63    6.39
  -6   4  13  771.69   43.13
   6  -4 -13  717.69   36.48
  -6   4  12  564.24   37.80
   6  -4 -12  567.56   32.48
   6  -4 -12  587.47   29.03
   6  -4 -11    6.36    4.33
  -6   4  11  -10.09    9.96
   6  -4 -11    5.73    5.85
  -6   4  10 1106.25   53.08
   6  -4 -10 1165.06   46.99
   6  -4 -10 1215.50   43.28
  -6   4   9 1821.91   66.39
   6  -4  -9 1608.61   56.01
   6  -4  -9 1719.27   53.89
  -6   4   9 1630.07   50.60
   6  -4  -9 1702.10   50.61
  -6   4   8  368.36   26.65
   6  -4  -8  340.68   25.55
   6  -4  -8  373.48   25.65
  -6   4   8  332.20   23.13
   6  -4  -8  341.34   22.30
  -6   4   7  394.15   24.23
   6  -4  -7  362.00   26.43
   6  -4  -7  404.34   28.57
  -6   4   7  369.89   25.86
  -6   4   7  344.28   23.68
   6  -4  -7  363.52   22.58
  -6   4   6 2056.79   49.81
   6  -4  -6 1993.18   63.87
   6  -4  -6 2198.52   71.65
  -6   4   6 2209.34   67.65
  -6   4   6 1990.51   63.17
   6  -4  -6 1862.89   51.07
  -6   4   5  742.99   25.98
   6  -4  -5  793.97   39.69
   6  -4  -5  895.23   47.56
  -6   4   5  757.82   41.61
  -6   4   5  847.56   43.82
   6  -4  -5  662.85   24.77
  -6   4   4   88.37    9.84
  -6   4   4  105.28    8.82
   6  -4  -4   95.28   13.59
   6  -4  -4  110.45   16.58
  -6   4   4   90.51   15.72
  -6   4   4   88.27   15.26
   6  -4  -4   95.36    7.33
  -6   4   3  954.59   31.90
  -6   4   3 1075.32   26.97
   6  -4  -3 1180.67   48.82
  -6   4   3 1113.50   57.83
   6  -4  -3  896.42   46.26
  -6   4   3  989.28   52.30
   6  -4  -3 1048.72   22.44
   6  -4  -3 1072.34   22.13
  -6   4   2 1240.97   37.10
  -6   4   2 1375.76   28.41
   6  -4  -2 1446.11   54.15
  -6   4   2 1265.85   64.01
   6  -4  -2 1282.25   51.25
  -6   4   2 1218.16   60.78
  -6   4   2 1325.05   31.61
   6  -4  -2 1364.88   23.64
  -6   4   1    4.98    2.85
   6  -4  -1    7.61    4.61
  -6   4   1    6.37    3.51
  -6   4   1    9.40    2.46
  -6   4   1    5.71    7.77
   6  -4  -1   -0.46    3.55
  -6   4   1    7.35    6.43
  -6   4   1   15.73    3.41
   6  -4  -1    1.87    0.90
  -6   4   0 1381.80   41.99
  -6   4   0 1530.72   54.75
   6  -4   0 1300.73   46.26
   6  -4   0 1249.49   27.66
  -6   4   0 1471.40   65.56
   6  -4   0 1291.20   41.37
  -6   4   0 1392.78   67.27
  -6   4   0 1284.08   29.96
  -6   4   0 1248.91   23.30
  -6   4  -1  910.19   35.83
  -6   4  -1  924.60   45.19
   6  -4   1  850.09   22.67
   6  -4   1  851.21   29.74
  -6   4  -1  956.75   48.75
  -6   4  -1  858.37   47.77
  -6   4  -1  840.25   27.95
  -6   4  -1  860.43   24.40
  -6   4  -1  822.82   20.14
  -6   4  -2   43.86    8.29
  -6   4  -2   44.14   10.01
   6  -4   2   49.69    5.49
   6  -4   2   42.37    5.80
  -6   4  -2   41.45    6.52
  -6   4  -2   39.96   10.41
  -6   4  -2   42.04    4.87
  -6   4  -2   44.29    9.86
  -6   4  -3  689.21   33.92
  -6   4  -3  731.57   39.18
   6  -4   3  651.25   20.79
  -6   4  -3  591.26   34.94
  -6   4  -3  681.29   35.66
  -6   4  -3  632.50   25.36
  -6   4  -3  618.88   20.79
  -6   4  -4  888.50   40.91
  -6   4  -4  893.92   42.44
   6  -4   4  859.14   24.82
  -6   4  -4  835.51   30.71
   6  -4   4  885.71   39.28
  -6   4  -4  877.10   27.24
  -6   4  -4  900.02   39.02
  -6   4  -5  490.65   31.57
  -6   4  -5  554.87   32.50
  -6   4  -5  480.70   24.58
   6  -4   5  503.97   19.62
   6  -4   5  512.01   32.16
  -6   4  -5  536.90   23.52
  -6   4  -6   -2.75    6.56
   6  -4   6    0.68    6.22
  -6   4  -6    0.52    3.37
  -6   4  -6   10.10    5.22
  -6   4  -6    5.31    3.04
   6  -4   6   12.13    6.08
  -6   4  -7  430.89   27.51
  -6   4  -7  434.31   28.74
  -6   4  -7  444.44   25.84
   6  -4   7  380.72   31.65
   6  -4   7  507.67   33.55
  -6   4  -8  781.01   37.03
  -6   4  -8  886.68   45.25
  -6   4  -8  852.75   39.64
   6  -4   8  695.91   43.72
   6  -4   8  935.87   44.46
   6  -4   9  104.52   17.29
  -6   4  -9  104.01   13.61
  -6   4  -9  118.51   18.29
  -6   4  -9   98.80   14.85
   6  -4   9  115.72   15.88
  -6   4 -10  158.84   19.13
  -6   3  13  981.71   49.60
   6  -3 -13  914.24   40.05
  -6   3  12   76.21   13.84
   6  -3 -12   88.75   12.50
   6  -3 -12   90.42   11.13
   6  -3 -11  300.99   23.03
   6  -3 -11  297.31   20.65
  -6   3  10 1150.42   53.59
   6  -3 -10 1147.81   46.05
   6  -3 -10 1226.52   43.83
  -6   3   9  671.68   37.35
   6  -3  -9  616.79   34.12
   6  -3  -9  604.54   31.82
  -6   3   9  593.81   29.31
   6  -3  -8    6.70    4.91
  -6   3   8   15.56    6.15
   6  -3  -8   12.65    5.42
  -6   3   8    6.13    3.63
   6  -3  -8    9.15    3.59
  -6   3   7 1551.15   44.98
   6  -3  -7 1524.45   57.04
  -6   3   7 1644.31   54.41
   6  -3  -7 1527.76   45.54
  -6   3   6 1496.93   39.51
   6  -3  -6 1513.32   58.20
   6  -3  -6 1644.55   62.70
  -6   3   6 1673.70   58.24
  -6   3   5  376.04   18.17
  -6   3   5  353.35   16.93
   6  -3  -5  365.58   28.81
   6  -3  -5  360.28   28.58
  -6   3   5  441.90   31.35
  -6   3   5  393.91   30.05
  -6   3   4  537.42   22.27
  -6   3   4  602.33   20.76
   6  -3  -4  586.61   37.95
   6  -3  -4  591.19   35.60
  -6   3   4  628.45   39.83
  -6   3   4  614.84   40.10
  -6   3   3 2101.53   46.12
  -6   3   3 2097.07   32.85
  -6   3   3 2246.50   39.87
   6  -3  -3 1868.95   66.82
   6  -3  -3 2110.43   63.26
  -6   3   3 1980.25   74.27
  -6   3   3 2201.83   80.60
  -6   3   2  877.28   29.82
  -6   3   2  858.79   22.82
  -6   3   2  850.59   21.42
   6  -3  -2  858.18   36.17
  -6   3   2  847.68   49.44
  -6   3   2  881.89   52.58
  -6   3   1  901.92   31.07
  -6   3   1  943.31   28.19
   6  -3  -1  860.13   22.46
   6  -3  -1  752.48   34.57
   6  -3  -1  922.32   33.49
  -6   3   1 1023.03   57.96
  -6   3   1  977.29   52.52
  -6   3   1  870.82   23.10
  -6   3   1  876.48   15.39
  -6   3   0 2507.72   56.55
  -6   3   0 2513.84   56.18
   6  -3   0 2268.36   51.79
   6  -3   0 2377.00   40.38
   6  -3   0 2431.21   50.95
  -6   3   0 2718.28   88.67
  -6   3   0 2422.08   40.51
  -6   3   0 2669.56   82.82
  -6   3   0 2340.22   32.04
  -6   3  -1  625.41   30.86
   6  -3   1  592.52   19.03
   6  -3   1  638.32   22.23
  -6   3  -1  605.31   37.46
  -6   3  -1  644.02   23.63
  -6   3  -1  603.20   16.04
  -6   3  -1  682.54   38.21
  -6   3  -1  639.23   29.13
  -6   3  -2   75.53   11.20
   6  -3   2   74.50    6.80
   6  -3   2   74.70    6.80
  -6   3  -2   76.57   12.51
  -6   3  -2   74.80    8.28
  -6   3  -2   69.84    6.06
  -6   3  -2   72.77   10.41
  -6   3  -3 1344.48   36.89
  -6   3  -3 1393.89   51.26
   6  -3   3 1418.27   32.24
  -6   3  -3 1445.83   32.37
  -6   3  -3 1449.26   49.34
  -6   3  -4 1446.61   53.20
   6  -3   4 1497.67   34.52
  -6   3  -4 1479.14   49.27
  -6   3  -4 1403.43   39.64
   6  -3   4 1586.97   50.30
  -6   3  -4 1585.12   38.27
  -6   3  -4 1503.53   52.95
  -6   3  -5   17.49    6.27
   6  -3   5   15.57    7.27
  -6   3  -5   20.33    7.11
   6  -3   5   11.65    3.22
  -6   3  -5   16.95    5.20
  -6   3  -5   14.27    4.37
  -6   3  -6  635.84   34.55
   6  -3   6  676.35   25.32
  -6   3  -6  708.63   32.65
   6  -3   6  690.62   38.49
  -6   3  -6  716.20   31.31
  -6   3  -6  702.60   37.71
  -6   3  -7 1175.58   46.63
   6  -3   7 1215.44   37.59
  -6   3  -7 1291.37   49.81
   6  -3   7 1220.83   54.70
  -6   3  -7 1259.97   45.96
  -6   3  -8  416.47   27.43
  -6   3  -8  424.66   31.87
  -6   3  -8  429.37   28.71
   6  -3   8  409.77   32.84
   6  -3   9   60.29   12.55
  -6   3  -9   77.35   12.09
  -6   3  -9   80.52   16.25
  -6   3  -9   63.78   10.97
   6  -3   9   72.95   12.24
  -6   3 -10  322.53   32.49
  -6   3 -10  349.10   28.68
  -6   2  14  994.06   50.25
   6  -2 -14  998.30   42.02
  -6   2  13  298.29   27.71
   6  -2 -13  302.66   22.96
   6  -2 -12  115.42   14.47
   6  -2 -12  126.00   13.14
  -6   2  11 1118.71   53.69
   6  -2 -11 1156.23   45.74
   6  -2 -11 1124.91   40.86
  -6   2  10  762.41   41.17
   6  -2 -10  727.26   36.85
   6  -2 -10  737.91   34.28
   6  -2  -9   12.97    5.39
  -6   2   9   17.51    6.84
   6  -2  -9   16.12    6.27
  -6   2   9   10.43    4.85
  -6   2   8  580.28   28.43
   6  -2  -8  653.18   37.09
   6  -2  -8  624.48   35.46
  -6   2   8  554.53   29.80
  -6   2   7 1380.28   34.80
  -6   2   7 1388.18   40.06
   6  -2  -7 1547.26   60.25
   6  -2  -7 1695.60   60.47
  -6   2   7 1592.37   53.96
  -6   2   6  182.12   12.36
  -6   2   6  200.73   13.34
   6  -2  -6  221.69   22.51
   6  -2  -6  194.34   20.42
  -6   2   6  231.82   21.90
  -6   2   5  349.09   16.58
  -6   2   5  357.30   12.13
  -6   2   5  376.27   17.12
   6  -2  -5  385.61   28.98
   6  -2  -5  384.67   27.46
  -6   2   5  405.21   30.34
  -6   2   4 1752.77   39.98
  -6   2   4 1793.71   29.75
  -6   2   4 1854.30   37.38
   6  -2  -4 1654.18   56.87
   6  -2  -4 1850.83   56.95
  -6   2   4 1946.41   71.01
  -6   2   3 1068.63   30.92
  -6   2   3 1091.09   23.08
  -6   2   3 1070.64   26.00
   6  -2  -3 1053.57   40.06
   6  -2  -3 1102.31   39.92
  -6   2   3  981.26   52.86
  -6   2   2   10.15    3.20
   6  -2  -2   23.11    5.63
  -6   2   2   16.95    2.97
  -6   2   2   15.49    3.11
   6  -2  -2   23.26    5.58
  -6   2   2   12.21    7.29
   6  -2  -2    8.59    2.37
  -6   2   1 1745.58   35.49
   6  -2  -1 1746.19   33.88
   6  -2  -1 1867.35   36.07
   6  -2  -1 1834.57   43.03
  -6   2   1 1783.79   32.21
  -6   2   1 1684.59   20.71
  -6   2   1 1778.71   44.45
  -6   2   0 1141.93   31.76
  -6   2   0 1211.21   25.62
   6  -2   0 1211.63   27.76
   6  -2   0 1202.29   31.00
  -6   2   0 1262.60   57.74
  -6   2   0 1197.91   19.84
  -6   2   0 1252.71   38.61
  -6   2  -1  304.14   18.02
   6  -2   1  317.25   13.90
  -6   2  -1  327.16   26.38
   6  -2   1  309.97   13.92
  -6   2  -1  316.97   16.26
  -6   2  -1  317.54   11.32
  -6   2  -1  303.75   20.14
  -6   2  -2 1080.77   39.00
   6  -2   2 1057.85   27.34
  -6   2  -2 1008.49   42.65
   6  -2   2 1110.80   25.18
  -6   2  -2 1064.97   30.94
  -6   2  -2 1056.68   25.33
  -6   2  -2 1098.47   40.37
  -6   2  -3 2711.15   70.67
   6  -2   3 2785.42   48.67
  -6   2  -3 2641.95   66.80
  -6   2  -3 2706.74   53.63
  -6   2  -3 2874.16   50.45
  -6   2  -3 2724.21   69.03
  -6   2  -4  971.34   43.05
   6  -2   4 1030.89   29.01
  -6   2  -4 1030.92   38.33
  -6   2  -4  979.83   32.33
  -6   2  -4 1077.41   33.14
  -6   2  -4 1006.74   42.33
  -6   2  -5  295.81   24.25
   6  -2   5  293.77   16.08
  -6   2  -5  325.22   20.01
   6  -2   5  330.88   23.40
  -6   2  -5  335.49   20.36
  -6   2  -5  316.39   24.50
  -6   2  -6 1516.58   56.54
   6  -2   6 1553.02   41.39
  -6   2  -6 1619.86   50.35
   6  -2   6 1698.34   58.20
  -6   2  -6 1602.30   50.12
  -6   2  -6 1777.52   59.63
  -6   2  -7 1151.25   48.43
   6  -2   7 1148.46   38.65
  -6   2  -7 1236.31   48.52
  -6   2  -7 1126.83   44.98
   6  -2   7 1157.33   51.33
  -6   2  -7 1199.38   47.80
   6  -2   8   -3.33    7.25
  -6   2  -8    7.84    5.96
   6  -2   8   -2.10    5.46
  -6   2  -8    4.24    5.87
  -6   2  -8    1.59    4.21
  -6   2  -9  442.94   29.31
  -6   2  -9  461.06   36.28
  -6   2  -9  486.42   32.59
   6  -2   9  409.72   32.74
  -6   2 -10  510.72   38.08
  -6   2 -10  642.42   37.73
   6  -2  10  588.52   38.02
  -6   1  14  783.96   45.18
   6  -1 -14  713.76   35.72
  -6   1  13  -11.24   10.24
   6  -1 -13   -0.58    3.83
  -6   1  12  454.42   34.47
  -6   1  12  462.91   27.66
   6  -1 -12  498.65   30.15
   6  -1 -12  533.84   27.36
  -6   1  11 1566.85   61.00
  -6   1  11 1336.56   45.89
   6  -1 -11 1406.04   52.52
   6  -1 -11 1561.75   48.99
  -6   1  10  268.10   22.25
  -6   1  10  268.72   19.28
   6  -1 -10  281.17   23.77
  -6   1  10  197.82   16.75
   6  -1 -10  265.54   20.98
  -6   1   9  394.43   24.32
  -6   1   9  368.37   20.96
   6  -1  -9  420.35   30.07
  -6   1   9  381.48   23.87
   6  -1  -9  434.15   28.82
  -6   1   8 1908.58   38.45
  -6   1   8 1912.88   49.35
   6  -1  -8 2039.28   66.99
  -6   1   8 2040.55   59.53
  -6   1   7  244.39   12.69
  -6   1   7  230.74   15.22
   6  -1  -7  240.97   21.75
  -6   1   7  280.62   22.66
   6  -1  -7  252.64   22.21
  -6   1   6  504.21   19.40
  -6   1   6  486.28   20.42
   6  -1  -6  503.99   29.77
  -6   1   6  528.22   32.77
   6  -1  -6  480.74   30.15
  -6   1   6  515.67   14.13
  -6   1   5 1699.62   36.67
  -6   1   5 1619.54   36.56
   6  -1  -5 1723.82   51.00
   6  -1  -5 1701.26   54.19
  -6   1   5 1697.45   27.06
  -6   1   4  827.58   20.61
  -6   1   4  827.37   23.73
   6  -1  -4  853.54   30.80
  -6   1   4  809.97   44.37
   6  -1  -4  816.78   34.04
  -6   1   4  849.84   26.20
  -6   1   3   17.24    4.14
   6  -1  -3   17.21    4.97
  -6   1   3   10.59    2.23
  -6   1   3   15.28    3.31
   6  -1  -3   20.48    4.32
  -6   1   3    5.30    5.00
   6  -1  -3   10.67    2.43
  -6   1   2 1793.86   33.82
   6  -1  -2 1772.89   34.45
   6  -1  -2 1897.52   32.76
  -6   1   2 1719.12   71.64
   6  -1  -2 1794.03   42.82
  -6   1   2 1742.26   41.76
  -6   1   1 1830.03   36.26
   6  -1  -1 1908.44   35.65
   6  -1  -1 1891.65   26.41
   6  -1  -1 1835.61   39.74
  -6   1   1 1876.89   31.15
  -6   1   1 1783.24   20.80
  -6   1   1 1860.58   45.74
  -6   1   0  305.25   11.36
  -6   1   0  287.30   14.74
   6  -1   0  296.30   13.58
  -6   1   0  313.72   27.45
   6  -1   0  309.14   14.21
  -6   1   0  303.73    9.54
  -6   1   0  314.85   19.52
  -6   1  -1  192.93   13.40
   6  -1   1  195.23   11.39
  -6   1  -1  204.44   19.70
   6  -1   1  208.01   10.76
  -6   1  -1  195.43   12.42
  -6   1  -1  198.84    9.69
  -6   1  -1  199.75   16.46
  -6   1  -2 2018.66   50.84
   6  -1   2 2120.74   41.39
  -6   1  -2 2002.52   58.86
  -6   1  -2 2152.14   44.62
  -6   1  -2 2069.42   40.76
  -6   1  -2 2105.31   58.26
  -6   1  -3 1353.35   45.47
   6  -1   3 1403.06   34.36
  -6   1  -3 1354.83   44.51
  -6   1  -3 1388.95   36.38
  -6   1  -3 1413.23   37.64
  -6   1  -3 1415.71   49.50
  -6   1  -4    2.18    3.81
  -6   1  -4   -3.96    5.58
  -6   1  -4    3.13    3.07
   6  -1   4    0.18    2.68
  -6   1  -4   10.31    4.03
  -6   1  -5  962.98   45.27
   6  -1   5  999.53   32.18
  -6   1  -5 1083.57   36.54
   6  -1   5 1098.58   40.99
  -6   1  -5 1007.58   38.31
  -6   1  -5 1082.44   46.49
  -6   1  -6 1127.80   50.43
   6  -1   6 1200.36   38.42
  -6   1  -6 1327.84   44.89
   6  -1   6 1315.50   48.75
  -6   1  -6 1241.83   46.05
  -6   1  -6 1361.91   51.98
  -6   1  -7  455.76   31.75
   6  -1   7  471.00   26.03
  -6   1  -7  511.18   31.18
  -6   1  -7  521.18   31.18
   6  -1   7  503.33   32.16
  -6   1  -7  525.88   30.64
  -6   1  -8  159.71   18.84
   6  -1   8  135.09   15.67
  -6   1  -8  135.00   18.93
  -6   1  -8  148.70   16.79
   6  -1   8  147.85   18.65
  -6   1  -9  702.37   38.75
   6  -1   9  592.64   35.13
  -6   1  -9  642.88   41.09
  -6   1  -9  641.84   36.06
   6  -1   9  573.55   37.97
  -6   1 -10  612.36   35.11
   6  -1  10  513.43   35.47
  -6   0  15  464.92   34.69
  -6   0  14  205.96   23.19
   6   0 -14  208.72   19.45
  -6   0  13   45.16   10.59
  -6   0  13   55.81   10.48
   6   0 -13   66.99   11.26
   6   0 -13   60.70    9.42
  -6   0  12  976.72   42.98
  -6   0  12 1105.34   51.82
   6   0 -12 1038.01   46.11
   6   0 -12 1054.74   39.13
  -6   0  11  652.55   33.88
  -6   0  11  721.79   38.06
   6   0 -11  680.91   38.57
   6   0 -11  673.39   32.51
   6   0 -10   49.09    9.29
  -6   0  10   52.34    9.82
  -6   0  10   60.47   10.18
   6   0 -10   48.11   10.49
  -6   0  10   52.20    8.70
  -6   0   9 1068.60   37.88
  -6   0   9 1068.62   37.78
   6   0  -9 1057.82   47.18
  -6   0   9 1068.50   41.00
   6   0  -9 1160.47   48.14
  -6   0   9 1029.70   28.24
  -6   0   8 1246.61   27.97
  -6   0   8 1188.74   36.58
  -6   0   8 1183.38   36.43
   6   0  -8 1112.27   45.74
  -6   0   8 1282.79   46.33
   6   0  -8 1277.57   49.79
  -6   0   8 1179.03   27.76
  -6   0   7    5.86    2.58
   6   0  -7    7.83    4.97
  -6   0   7    3.12    2.48
  -6   0   7    0.57    3.56
  -6   0   7    2.18    1.49
  -6   0   6  686.80   24.07
   6   0  -6  749.72   31.18
  -6   0   6  762.93   38.84
   6   0  -6  717.40   34.72
  -6   0   6  730.43   19.17
  -6   0   6  690.61   22.04
  -6   0   5 2160.31   42.56
   6   0  -5 2260.06   49.49
  -6   0   5 2336.35   71.98
   6   0  -5 2329.50   59.57
  -6   0   5 2208.35   35.51
  -6   0   5 2219.45   42.53
  -6   0   4  137.08    8.66
   6   0  -4  128.70    8.62
   6   0  -4  138.09    9.83
  -6   0   4  111.14   16.81
   6   0  -4  142.25   13.02
  -6   0   4  128.75    7.61
  -6   0   4  126.60    9.93
  -6   0   3 1048.54   25.18
   6   0  -3 1088.15   26.09
   6   0  -3 1068.55   24.04
   6   0  -3 1125.98   34.02
  -6   0   3 1041.23   30.74
  -6   0   2 3707.85   53.80
   6   0  -2 3675.66   53.73
   6   0  -2 3578.54   44.40
  -6   0   2 3698.30  102.15
   6   0  -2 3559.97   60.44
  -6   0   2 3707.13   66.28
  -6   0   1  851.05   24.47
   6   0  -1  865.46   23.94
   6   0  -1  902.05   15.31
  -6   0   1  820.77   46.60
   6   0  -1  865.21   25.23
  -6   0   1  866.45   18.81
  -6   0   1  898.64   15.42
  -6   0   1  871.55   31.67
  -6   0   0  132.90   10.00
   6   0   0  132.26    9.49
  -6   0   0  142.47   18.00
   6   0   0  127.83    9.14
  -6   0   0  140.54    7.09
  -6   0   0  154.19    8.31
  -6   0   0  132.78   13.26
  -6   0  -1 2220.63   47.36
   6   0   1 2288.95   43.27
  -6   0  -1 2191.32   64.42
   6   0   1 2337.91   39.24
  -6   0  -1 2170.32   42.02
  -6   0  -1 2261.81   59.17
  -6   0  -2 1608.94   43.26
   6   0   2 1562.23   36.65
  -6   0  -2 1528.90   49.69
  -6   0  -2 1581.72   37.23
  -6   0  -2 1523.45   39.40
  -6   0  -2 1523.24   50.85
  -6   0  -3   87.07   10.62
   6   0   3   86.58    8.68
  -6   0  -3  102.39   11.89
  -6   0  -3  106.29    9.44
  -6   0  -3   98.36   10.98
  -6   0  -3   83.79   12.41
  -6   0  -4  430.05   26.67
   6   0   4  416.92   20.42
  -6   0  -4  471.09   21.43
  -6   0  -4  459.39   25.62
  -6   0  -4  452.97   29.29
  -6   0  -5  789.54   40.37
   6   0   5  818.44   31.14
  -6   0  -5  875.60   32.28
  -6   0  -5  857.27   37.59
  -6   0  -5  900.75   42.83
  -6   0  -6  599.91   37.01
   6   0   6  594.17   28.84
  -6   0  -6  639.89   30.52
   6   0   6  683.29   33.26
  -6   0  -6  627.26   32.95
  -6   0  -6  620.91   34.67
  -6   0  -7    3.92    3.86
   6   0   7    1.52    4.03
  -6   0  -7   -3.75    5.83
   6   0   7   -6.70    6.14
  -6   0  -7    3.81    4.64
  -6   0  -7    1.33    4.39
  -6   0  -8  398.57   30.95
   6   0   8  372.81   27.43
  -6   0  -8  422.21   27.55
   6   0   8  439.29   31.22
   6   0   9  418.99   30.79
  -6   0  -9  482.05   29.64
   6   0   9  425.74   31.68
   6   0  10   93.83   14.97
  -6  -1  15  266.14   26.85
  -6  -1  14   76.35   14.15
  -6  -1  14   80.97   12.50
   6   1 -14  100.39   14.15
  -6  -1  13  449.87   31.18
  -6  -1  13  540.66   36.85
   6   1 -13  530.69   34.03
   6   1 -13  526.40   26.83
  -6  -1  12  569.55   34.42
  -6  -1  12  636.07   37.37
   6   1 -12  609.17   37.35
   6   1 -11    5.99    4.57
  -6  -1  11   11.64    6.53
   6   1 -11    6.61    4.58
  -6  -1  11   13.49    4.83
  -6  -1  10  498.41   29.23
  -6  -1  10  415.53   24.50
   6   1 -10  403.86   28.50
  -6  -1  10  425.08   25.17
   6   1 -10  454.15   29.69
  -6  -1  10  442.32   20.86
  -6  -1   9  693.40   31.47
  -6  -1   9  630.07   27.66
   6   1  -9  600.23   33.07
  -6  -1   9  708.41   33.73
   6   1  -9  697.62   36.32
  -6  -1   9  654.12   23.06
  -6  -1   8  242.78   11.99
  -6  -1   8  227.66   16.39
  -6  -1   8  239.71   15.47
   6   1  -8  234.76   19.06
  -6  -1   8  275.69   22.36
   6   1  -8  232.70   20.39
  -6  -1   8  222.70   12.33
  -6  -1   7  137.58   11.30
   6   1  -7  134.97   13.28
  -6  -1   7  144.99   17.55
   6   1  -7  149.35   15.81
  -6  -1   7  130.57    8.97
  -6  -1   7  145.30    9.34
  -6  -1   6 1598.32   36.90
   6   1  -6 1576.72   40.76
  -6  -1   6 1730.42   63.16
   6   1  -6 1726.88   51.46
  -6  -1   6 1739.10   45.48
  -6  -1   6 1584.34   32.13
  -6  -1   6 1659.96   34.81
  -6  -1   5 1517.33   34.23
   6   1  -5 1503.07   31.69
   6   1  -5 1515.19   34.99
  -6  -1   5 1622.00   64.35
   6   1  -5 1587.93   45.75
  -6  -1   5 1521.24   30.69
  -6  -1   5 1489.83   34.83
  -6  -1   4    2.85    2.48
  -6  -1   4    0.72    2.04
   6   1  -4    8.20    2.67
  -6  -1   4    8.00    7.51
   6   1  -4    0.89    1.95
  -6  -1   4    2.02    1.52
  -6  -1   3 2589.25   44.29
   6   1  -3 2575.78   44.25
   6   1  -3 2591.82   38.65
  -6  -1   3 2498.27   86.07
  -6  -1   3 2543.14   52.34
  -6  -1   2 2588.76   45.02
   6   1  -2 2638.34   45.02
  -6  -1   2 2674.88   88.65
   6   1  -2 2693.33   49.57
  -6  -1   2 2668.62   56.38
  -6  -1   1   94.00    8.10
   6   1  -1   87.64    7.75
  -6  -1   1   98.15   16.32
  -6  -1   1   99.91    5.45
   6   1  -1   96.27    8.27
  -6  -1   1  101.33    8.34
  -6  -1   1   90.59   10.56
  -6  -1   0  888.29   27.06
   6   1   0  884.20   25.92
  -6  -1   0  939.38   44.42
  -6  -1   0  875.30   29.66
   6   1   0  926.27   24.85
  -6  -1   0  869.42   35.72
  -6  -1  -1 3197.75   58.95
   6   1   1 3248.86   55.73
  -6  -1  -1 3203.28   77.46
  -6  -1  -1 3225.09   66.40
   6   1   1 3358.42   49.98
  -6  -1  -1 3187.43   75.12
  -6  -1  -2 1111.89   35.22
   6   1   2 1108.70   31.75
  -6  -1  -2 1075.79   40.47
  -6  -1  -2 1190.76   30.65
  -6  -1  -2 1158.22   41.10
   6   1   2 1207.13   26.17
  -6  -1  -2 1051.18   43.87
  -6  -1  -3   14.39    5.60
  -6  -1  -3   15.60    4.38
  -6  -1  -3   19.77    5.55
   6   1   3   18.72    4.32
  -6  -1  -3   15.64    3.92
  -6  -1  -3   20.74    5.90
  -6  -1  -4 1412.16   47.85
   6   1   4 1408.91   40.93
  -6  -1  -4 1423.00   38.00
  -6  -1  -4 1446.30   47.65
  -6  -1  -4 1440.94   55.09
  -6  -1  -5  825.41   39.97
   6   1   5  853.05   34.15
  -6  -1  -5  907.78   32.42
  -6  -1  -5  812.03   35.72
  -6  -1  -5  787.93   39.24
  -6  -1  -6   66.86   12.32
   6   1   6   91.45   12.40
   6   1   6   99.66   12.74
  -6  -1  -6   91.19   12.06
  -6  -1  -6   80.10   12.32
  -6  -1  -7  280.71   26.15
   6   1   7  283.02   23.68
  -6  -1  -7  287.34   21.44
   6   1   7  304.21   23.82
  -6  -1  -7  304.72   22.88
  -6  -1  -8  432.14   33.08
   6   1   8  380.88   28.90
  -6  -1  -8  449.34   27.23
   6   1   8  421.39   29.62
   6   1   9  126.15   17.75
  -6  -1  -9  157.71   16.46
  -6  -2  15   -4.96    8.23
  -6  -2  15  -14.24    7.91
  -6  -2  14  286.50   25.59
  -6  -2  14  309.36   28.43
   6   2 -14  326.26   27.32
  -6  -2  13  638.85   37.99
   6   2 -13  645.61   39.20
   6   2 -13  602.07   29.62
  -6  -2  12   36.33    9.46
   6   2 -12   28.50    6.23
  -6  -2  12   26.65    8.55
   6   2 -12   19.69    7.32
  -6  -2  12   36.02    7.92
  -6  -2  11  533.38   33.57
  -6  -2  11  538.53   29.23
   6   2 -11  479.55   32.06
  -6  -2  11  520.70   28.62
   6   2 -11  539.68   32.27
  -6  -2  11  549.57   26.41
  -6  -2  10  867.56   40.27
  -6  -2  10  782.49   32.26
   6   2 -10  726.44   37.12
  -6  -2  10  861.61   38.79
   6   2 -10  771.69   38.52
  -6  -2  10  803.81   29.08
  -6  -2   9  499.36   27.20
  -6  -2   9  526.58   24.44
   6   2  -9  497.33   28.40
   6   2  -9  449.88   28.96
  -6  -2   9  496.19   20.80
  -6  -2   8   80.79   10.49
  -6  -2   8   87.22    9.70
   6   2  -8   85.72   11.13
  -6  -2   8   81.88   14.10
   6   2  -8   91.34   12.75
  -6  -2   8   75.71    7.64
   6   2  -7  998.11   40.10
  -6  -2   7  965.40   32.23
  -6  -2   7  983.30   29.59
   6   2  -7  989.62   25.61
   6   2  -7  976.82   32.55
  -6  -2   7  945.36   26.34
  -6  -2   7 1035.10   25.99
  -6  -2   6 1860.68   40.26
   6   2  -6 1765.15   35.36
   6   2  -6 1865.65   41.15
  -6  -2   6 2128.81   80.04
  -6  -2   6 2022.89   53.00
   6   2  -6 1905.82   52.74
  -6  -2   6 1859.85   37.21
  -6  -2   6 1931.31   39.45
  -6  -2   5    4.01    3.19
   6   2  -5   13.02    4.86
   6   2  -5   16.17    3.57
   6   2  -5    3.62    1.93
  -6  -2   5    9.43    8.12
  -6  -2   5   11.03    3.32
  -6  -2   5    8.19    1.89
  -6  -2   4 1001.34   26.95
   6   2  -4 1034.17   26.26
   6   2  -4 1033.94   24.57
  -6  -2   4 1017.74   61.06
  -6  -2   4 1097.68   43.13
   6   2  -4 1077.95   33.86
  -6  -2   4 1018.27   26.22
  -6  -2   4 1042.98   31.73
  -6  -2   3 1821.96   37.29
   6   2  -3 1795.92   36.60
  -6  -2   3 1973.94   86.27
  -6  -2   3 2148.14   62.70
   6   2  -3 1931.99   43.16
  -6  -2   3 1833.18   36.95
  -6  -2   3 1997.20   47.82
  -6  -2   2 1140.32   29.39
   6   2  -2 1192.91   29.67
  -6  -2   2 1274.76   49.21
   6   2  -2 1202.35   31.87
  -6  -2   2 1207.19   39.95
  -6  -2   1   10.03    4.92
  -6  -2   1    9.98    2.92
   6   2  -1   15.78    3.78
  -6  -2   1   21.09    9.01
   6   2  -1   11.55    3.04
  -6  -2   0 1671.82   39.11
   6   2   0 1669.43   38.79
  -6  -2   0 1802.74   64.85
   6   2   0 1800.91   36.92
  -6  -2   0 1694.04   46.34
  -6  -2   0 1677.64   55.17
  -6  -2  -1 2432.76   50.56
   6   2   1 2424.49   49.79
  -6  -2  -1 2572.20   70.31
   6   2   1 2578.92   44.30
  -6  -2  -1 2595.69   60.46
  -6  -2  -1 2536.48   71.73
  -6  -2  -2  317.34   18.45
   6   2   2  315.15   17.86
  -6  -2  -2  327.27   22.29
  -6  -2  -2  327.19   21.04
   6   2   2  332.13   14.03
  -6  -2  -2  333.71   26.36
  -6  -2  -3  747.46   31.02
   6   2   3  763.85   30.06
  -6  -2  -3  701.85   30.81
  -6  -2  -3  817.19   33.63
  -6  -2  -3  770.06   41.01
  -6  -2  -4 1756.96   53.34
   6   2   4 1801.04   51.06
  -6  -2  -4 1937.52   55.85
  -6  -2  -4 1803.03   62.27
  -6  -2  -5  749.72   37.55
   6   2   5  765.85   35.66
  -6  -2  -5  744.27   34.13
  -6  -2  -5  743.49   38.06
  -6  -2  -6   27.82    6.64
   6   2   6   33.55    7.56
  -6  -2  -6   21.78    6.94
   6   2   6   17.18    5.15
  -6  -2  -6   31.82    7.22
  -6  -2  -7  652.31   40.97
   6   2   7  588.14   36.20
  -6  -2  -7  639.20   31.84
   6   2   7  647.95   33.61
  -6  -2  -7  629.32   32.96
  -6  -2  -8  326.57   29.12
   6   2   8  254.57   25.58
  -6  -2  -8  325.23   22.92
  -6  -2  -9    9.44    5.40
  -6  -3  15   96.02   16.53
  -6  -3  15   91.72   14.73
  -6  -3  14  414.14   31.87
   6   3 -14  421.31   32.64
  -6  -3  14  467.91   34.48
  -6  -3  13  232.81   24.45
  -6  -3  13  301.26   25.50
   6   3 -13  259.80   25.25
   6   3 -13  248.03   19.60
  -6  -3  13  305.06   24.87
  -6  -3  12   22.79    7.47
   6   3 -12   28.12    7.83
  -6  -3  12   30.32   10.25
   6   3 -12   25.31    8.53
  -6  -3  12   39.73    9.10
  -6  -3  11 1184.45   52.47
  -6  -3  11 1132.91   41.08
   6   3 -11 1038.21   46.34
  -6  -3  11 1106.90   47.43
   6   3 -11 1164.49   47.90
  -6  -3  11 1102.58   38.37
  -6  -3  10  877.78   41.06
  -6  -3  10  849.96   32.60
   6   3 -10  810.92   37.82
  -6  -3  10  809.21   43.29
   6   3 -10  814.00   39.53
  -6  -3  10  790.72   29.80
  -6  -3   9    8.45    4.42
   6   3  -9    7.15    5.26
  -6  -3   9    6.35    4.87
   6   3  -9   11.90    6.12
  -6  -3   9    5.15    5.37
   6   3  -9    7.92    2.91
  -6  -3   9   10.34    3.45
  -6  -3   8 1388.52   42.45
  -6  -3   8 1428.28   37.48
   6   3  -8 1322.14   31.18
   6   3  -8 1397.97   41.21
  -6  -3   8 1336.18   66.94
   6   3  -8 1349.62   48.67
  -6  -3   8 1336.90   34.68
  -6  -3   7 2382.97   53.77
   6   3  -7 2538.85   43.93
   6   3  -7 2474.90   51.54
  -6  -3   7 2726.39  103.36
  -6  -3   7 2811.00   62.13
   6   3  -7 2595.25   64.98
  -6  -3   7 2413.40   47.09
  -6  -3   7 2615.57   46.33
   6   3  -6  251.18   12.70
   6   3  -6  283.27   14.85
  -6  -3   6  351.16   39.80
  -6  -3   6  326.31   20.95
   6   3  -6  295.70   19.88
  -6  -3   6  272.61   14.18
  -6  -3   6  310.55   15.74
   6   3  -5  473.29   17.53
  -6  -3   5  557.46   55.08
  -6  -3   5  504.75   27.23
   6   3  -5  488.14   24.17
  -6  -3   5  475.80   18.70
  -6  -3   5  454.89   21.71
  -6  -3   4 1917.38   40.18
   6   3  -4 2018.64   39.16
  -6  -3   4 2035.36   58.18
   6   3  -4 1945.81   46.36
  -6  -3   4 1971.22   40.23
  -6  -3   4 2048.05   49.38
  -6  -3   3 1270.82   31.85
   6   3  -3 1342.94   32.11
  -6  -3   3 1320.39   47.62
   6   3  -3 1340.01   36.19
  -6  -3   3 1297.27   31.94
  -6  -3   3 1424.61   44.55
  -6  -3   2    5.52    3.54
  -6  -3   2    7.34    4.89
  -6  -3   2    1.89    2.51
   6   3  -2    2.46    2.43
  -6  -3   2   13.42   12.07
   6   3  -2    2.48    2.16
  -6  -3   1  821.30   26.30
   6   3  -1  835.80   27.12
  -6  -3   1  854.71   55.37
  -6  -3   1  848.87   39.84
   6   3  -1  850.57   26.44
  -6  -3   1  880.68   41.58
  -6  -3   0 2290.17   47.68
   6   3   0 2227.21   48.13
  -6  -3   0 2395.76   82.29
  -6  -3   0 2571.88   61.71
   6   3   0 2399.68   45.71
  -6  -3   0 2433.45   73.59
  -6  -3  -1  575.85   23.74
  -6  -3  -1  576.86   35.01
   6   3   1  553.71   24.11
  -6  -3  -1  564.91   28.64
   6   3   1  569.42   20.40
  -6  -3  -1  589.45   37.08
   6   3   2   44.17    5.64
  -6  -3  -2   54.85   12.23
  -6  -3  -2   42.04    6.88
  -6  -3  -2   49.18    9.95
   6   3   2   45.80    7.29
  -6  -3  -2   60.73    9.37
  -6  -3  -3 1262.44   41.13
   6   3   3 1307.21   43.63
  -6  -3  -3 1333.31   44.96
  -6  -3  -3 1266.32   55.30
  -6  -3  -4  747.58   33.89
   6   3   4  817.11   37.16
  -6  -3  -4  873.86   36.01
  -6  -3  -4  807.04   42.35
  -6  -3  -5   41.39    9.25
  -6  -3  -5   36.24    8.26
   6   3   5   37.69    8.71
  -6  -3  -5   48.98    9.01
  -6  -3  -5   46.88    8.69
  -6  -3  -6  292.13   25.24
   6   3   6  258.09   24.23
  -6  -3  -6  264.79   20.87
  -6  -3  -6  290.60   23.04
  -6  -3  -7  776.52   44.45
   6   3   7  676.44   41.62
  -6  -3  -7  736.46   35.14
  -6  -3  -7  719.18   36.03
   6   3   8  171.77   21.79
  -6  -3  -8  184.49   17.97
  -6  -4  15  197.95   24.01
  -6  -4  14  361.69   32.64
  -6  -4  14  460.44   32.18
   6   4 -14  420.80   32.98
  -6  -4  14  528.15   36.75
  -6  -4  13   61.94   11.55
  -6  -4  13   46.64   11.96
   6   4 -13   57.51    9.83
   6   4 -13   48.28   11.42
  -6  -4  13   69.04   12.67
  -6  -4  12  448.39   34.89
  -6  -4  12  483.14   28.15
   6   4 -12  447.59   31.57
   6   4 -12  457.46   29.43
  -6  -4  12  494.98   28.65
  -6  -4  11  880.15   46.01
  -6  -4  11  817.39   33.57
   6   4 -11  787.68   39.08
  -6  -4  11  720.73   44.11
   6   4 -11  811.98   40.12
  -6  -4  11  744.58   32.02
  -6  -4  10  287.45   23.44
  -6  -4  10  278.01   18.04
   6   4 -10  269.45   20.83
  -6  -4  10  213.10   27.53
   6   4 -10  226.74   20.66
  -6  -4  10  267.65   17.60
  -6  -4   9  269.43   20.34
  -6  -4   9  297.62   17.46
   6   4  -9  297.37   20.18
  -6  -4   9  222.22   29.24
   6   4  -9  263.57   21.88
  -6  -4   9  242.00   15.83
  -6  -4   8 1775.51   49.30
   6   4  -8 1968.45   39.03
   6   4  -8 1935.83   48.20
  -6  -4   8 1687.65   88.90
   6   4  -8 1811.22   56.26
  -6  -4   8 1841.16   43.66
  -6  -4   7 1776.90   45.59
   6   4  -7 1811.92   37.18
   6   4  -7 1832.83   54.05
  -6  -4   7 1746.57   41.25
  -6  -4   7 1887.01   41.98
  -6  -4   6   12.69    5.34
   6   4  -6   24.71    6.66
   6   4  -6   15.37    3.50
  -6  -4   6   18.10    5.35
  -6  -4   6   15.53    3.91
   6   4  -5 1826.30   38.10
  -6  -4   5 1871.08   53.90
   6   4  -5 1846.61   48.13
  -6  -4   5 1748.73   39.96
  -6  -4   5 1737.89   47.70
  -6  -4   4 2164.23   44.60
   6   4  -4 2212.01   43.71
  -6  -4   4 2155.92   60.49
   6   4  -4 2176.42   50.61
  -6  -4   4 2176.79   44.71
  -6  -4   3  711.52   24.31
   6   4  -3  695.13   24.38
  -6  -4   3  705.81   34.66
   6   4  -3  744.85   27.42
  -6  -4   3  717.58   24.48
  -6  -4   3  791.73   37.00
  -6  -4   2  556.04   21.78
  -6  -4   2  615.04   62.96
   6   4  -2  600.16   23.10
  -6  -4   2  565.49   31.83
   6   4  -2  616.96   24.14
  -6  -4   2  581.61   36.34
  -6  -4   1 2170.91   46.00
  -6  -4   1 2370.33  105.16
   6   4  -1 2218.92   49.12
  -6  -4   1 2105.30   64.85
   6   4  -1 2279.71   47.52
  -6  -4   0  765.34   27.22
  -6  -4   0  811.58   52.65
   6   4   0  777.61   29.83
  -6  -4   0  816.26   40.29
  -6  -4   0  764.71   31.07
  -6  -4   0  834.70   49.44
   6   4   0  842.52   27.10
  -6  -4  -1   19.44    9.90
  -6  -4  -1   17.46    4.50
   6   4   1   17.99    4.16
  -6  -4  -1   25.51    8.78
   6   4   1   19.61    5.70
  -6  -4  -1   16.87    5.01
  -6  -4  -2  929.93   33.16
  -6  -4  -2  883.43   42.80
   6   4   2  905.79   37.02
  -6  -4  -2  978.88   40.94
  -6  -4  -2  908.15   51.83
  -6  -4  -3  680.77   30.18
   6   4   3  688.90   34.61
  -6  -4  -3  702.35   34.42
  -6  -4  -3  687.03   42.64
  -6  -4  -4   67.19   13.17
  -6  -4  -4   51.01    9.01
   6   4   4   50.08   10.75
  -6  -4  -4   75.37   11.28
  -6  -4  -5  104.99   13.81
   6   4   5  103.37   15.80
  -6  -4  -5  111.82   16.44
  -6  -4  -6  548.16   34.47
   6   4   6  478.93   35.41
  -6  -4  -6  576.61   32.41
  -6  -4  -6  518.08   31.96
  -6  -4  -7  153.67   19.78
   6   4   7  110.60   18.13
  -6  -4  -7  140.09   16.05
  -6  -4  -7  149.65   16.74
  -6  -5  14   53.74   12.48
   6   5 -14   61.97   12.54
  -6  -5  14   71.70   14.86
  -6  -5  13  191.28   24.15
  -6  -5  13  235.04   20.26
   6   5 -13  242.59   24.20
   6   5 -13  204.65   19.27
  -6  -5  13  242.27   22.61
  -6  -5  12  842.14   48.50
  -6  -5  12  877.09   36.75
   6   5 -12  804.24   41.03
  -6  -5  12  817.49   37.49
  -6  -5  11  423.61   31.52
  -6  -5  11  284.27   33.24
   6   5 -11  340.73   26.51
  -6  -5  11  366.44   22.84
  -6  -5  10   10.33    6.80
   6   5 -10   -0.99    4.10
  -6  -5  10   -1.35    9.31
  -6  -5  10    3.82    4.01
  -6  -5   9  705.44   32.63
   6   5  -9  698.74   35.97
  -6  -5   9  686.35   28.04
  -6  -5   8 1482.46   44.56
   6   5  -8 1553.98   52.37
  -6  -5   8 1522.67   41.16
  -6  -5   7  194.91   14.93
  -6  -5   7  205.22   17.09
   6   5  -7  195.61   17.41
  -6  -5   7  209.50   14.56
  -6  -5   7  180.44   13.81
   6   5  -6  383.27   17.39
  -6  -5   6  402.59   24.11
   6   5  -6  386.52   22.97
  -6  -5   6  378.33   19.00
   6   5  -5 2060.59   43.96
  -6  -5   5 2058.60   58.06
   6   5  -5 2092.82   53.14
  -6  -5   5 2026.27   45.18
  -6  -5   5 1949.13   56.73
  -6  -5   4 1795.00   41.88
   6   5  -4 1845.23   42.27
  -6  -5   4 1877.44   56.93
   6   5  -4 1947.39   48.76
  -6  -5   4 1844.85   42.93
  -6  -5   3    4.41    4.57
  -6  -5   3   -0.06    3.10
   6   5  -3    1.87    3.36
   6   5  -3    3.20    2.39
  -6  -5   3    3.93    3.67
  -6  -5   3   -2.91    3.74
  -6  -5   2 1248.82   34.60
   6   5  -2 1261.52   37.48
  -6  -5   2 1216.60   48.90
   6   5  -2 1203.87   36.26
  -6  -5   1 1820.16   43.47
   6   5  -1 1835.52   48.72
  -6  -5   1 1773.68   60.97
   6   5  -1 1910.83   45.40
   6   5   0  224.52   14.70
  -6  -5   0  185.04   13.67
  -6  -5   0  169.13   27.19
   6   5   0  190.18   16.24
  -6  -5   0  196.58   20.16
  -6  -5   0  192.15   29.20
   6   5   1  418.91   20.01
  -6  -5  -1  325.18   19.00
  -6  -5  -1  313.33   31.32
   6   5   1  367.66   24.33
  -6  -5  -1  362.68   28.35
  -6  -5  -1  416.15   39.62
  -6  -5  -2 1172.89   38.99
  -6  -5  -2 1155.42   53.82
   6   5   2 1188.36   47.78
  -6  -5  -2 1263.08   64.17
  -6  -5  -3  248.11   18.44
   6   5   3  274.63   24.37
  -6  -5  -3  295.04   30.98
  -6  -5  -4  123.39   14.17
   6   5   4  102.22   15.76
  -6  -5  -4  106.66   18.66
  -6  -5  -5  417.65   27.93
   6   5   5  348.18   30.68
  -6  -5  -5  405.45   31.31
  -6  -5  -6  313.13   26.27
   6   5   6  283.91   28.77
  -6  -5  -6  272.09   24.75
  -6  -5  -7   -2.91    4.69
  -6  -6  14   55.89   13.78
  -6  -6  13  751.86   48.53
  -6  -6  13  843.24   42.45
   6   6 -13  813.03   40.05
  -6  -6  12  645.23   43.57
  -6  -6  12  578.18   31.79
   6   6 -12  561.11   34.83
  -6  -6  11   20.12    8.85
   6   6 -11   11.75    5.66
  -6  -6  11   13.28    6.13
  -6  -6  10  474.77   30.02
  -6  -6  10  493.58   25.76
   6   6 -10  476.66   31.28
  -6  -6   9 1399.10   46.80
   6   6  -9 1454.89   53.56
  -6  -6   9 1462.92   43.54
  -6  -6   8  465.46   24.72
  -6  -6   8  537.53   29.03
   6   6  -8  467.55   29.17
  -6  -6   8  521.76   24.62
  -6  -6   7  142.62   12.96
  -6  -6   7  152.15   15.34
  -6  -6   7  138.82   12.20
   6   6  -7  150.86   15.75
  -6  -6   7  135.11   14.20
  -6  -6   6 1001.81   39.84
  -6  -6   6  954.45   32.37
   6   6  -6  979.10   38.41
   6   6  -5  921.73   31.26
  -6  -6   5  941.63   39.17
  -6  -6   5  938.39   31.40
   6   6  -5  934.06   36.01
  -6  -6   4  211.29   14.31
   6   6  -4  223.56   15.66
  -6  -6   4  201.11   18.72
  -6  -6   4  209.89   14.47
  -6  -6   4  159.74   23.25
   6   6  -4  204.50   16.16
  -6  -6   3  375.48   19.07
   6   6  -3  423.05   22.69
  -6  -6   3  360.85   25.91
  -6  -6   3  398.55   20.01
   6   6  -3  406.04   22.32
  -6  -6   2 1471.62   39.31
   6   6  -2 1539.48   46.69
  -6  -6   2 1375.74   54.07
   6   6  -2 1498.00   42.83
   6   6  -1  610.40   26.65
  -6  -6   1  604.99   25.20
   6   6  -1  606.31   30.72
  -6  -6   1  566.79   35.30
  -6  -6   0    0.89    4.72
  -6  -6   0    3.75    3.05
   6   6   0    3.40    2.70
   6   6   0    1.04    5.91
  -6  -6  -1  629.54   27.99
   6   6   1  615.81   35.46
  -6  -6  -1  697.68   40.78
  -6  -6  -2  602.92   28.56
   6   6   2  627.25   37.81
  -6  -6  -2  615.86   39.16
  -6  -6  -2  622.50   50.80
  -6  -6  -3   29.71   12.62
  -6  -6  -3   23.61    6.52
   6   6   3    4.46    5.73
  -6  -6  -4  258.43   20.72
   6   6   4  225.41   25.38
  -6  -6  -4  265.50   28.58
   6   6   5  559.37   40.63
  -6  -6  -5  472.12   36.87
  -6  -7  13  758.80   40.78
  -6  -7  12  352.82   31.84
  -6  -7  12  375.59   26.28
   6   7 -12  301.76   26.69
  -6  -7  11  100.45   15.48
  -6  -7  11  112.14   13.55
   6   7 -11   83.78   14.49
  -6  -7  10 1123.73   45.79
  -6  -7  10 1126.29   40.87
   6   7 -10 1083.99   49.05
  -6  -7   9  905.77   37.89
  -6  -7   9  989.80   42.91
  -6  -7   9  925.96   35.80
   6   7  -9  899.01   43.40
  -6  -7   8    5.41    4.12
   6   7  -8   16.14    6.52
  -6  -7   8    6.77    3.66
  -6  -7   8    7.37    3.97
  -6  -7   7  755.98   35.24
  -6  -7   7  768.55   30.75
   6   7  -7  725.32   35.93
  -6  -7   6 1109.61   43.01
  -6  -7   6 1176.12   37.53
   6   7  -6 1103.83   42.55
  -6  -7   5  313.00   18.56
  -6  -7   5  280.23   21.54
  -6  -7   5  305.71   18.52
   6   7  -5  307.14   21.59
   6   7  -4  211.30   17.36
  -6  -7   4  186.36   14.16
   6   7  -4  196.67   17.36
  -6  -7   4  171.04   17.55
  -6  -7   4  184.72   14.09
   6   7  -3  906.66   35.60
  -6  -7   3  886.34   30.75
  -6  -7   3  817.84   40.72
  -6  -7   3  897.81   31.96
   6   7  -2  336.36   21.06
  -6  -7   2  348.73   19.57
   6   7  -2  338.76   25.21
  -6  -7   2  317.61   26.38
  -6  -7   1   -1.93    3.58
   6   7  -1    0.96    2.96
   6   7  -1   -5.15    7.32
  -6  -7   1    1.51    4.16
  -6  -7   0  306.54   19.52
   6   7   0  298.29   25.75
  -6  -7   0  273.80   25.75
  -6  -7  -1  614.25   28.55
   6   7   1  523.46   36.15
  -6  -7  -1  562.25   38.04
  -6  -7  -2  106.97   12.58
   6   7   2  108.43   16.99
  -6  -7  -2  106.29   17.00
  -6  -7  -3   56.13   16.36
  -6  -7  -3   71.83   11.00
   6   7   3   48.56   12.58
  -6  -7  -4  332.38   24.69
   6   7   4  281.61   29.05
  -6  -8  12   23.77    9.98
   6   8 -12    6.40    4.78
  -6  -8  12   13.84    6.56
  -6  -8  11  310.71   26.47
   6   8 -11  247.39   32.32
  -6  -8  11  330.23   23.80
   6   8 -11  301.13   27.29
  -6  -8  10  990.26   43.27
  -6  -8  10 1001.68   39.91
   6   8 -10  898.32   46.40
  -6  -8   9  418.39   25.36
  -6  -8   9  406.63   28.49
  -6  -8   9  396.69   24.11
   6   8  -9  360.08   28.31
  -6  -8   8  130.98   13.41
  -6  -8   8  126.59   15.22
  -6  -8   8  133.73   13.61
   6   8  -8  103.53   15.20
   6   8  -7  709.97   37.50
  -6  -8   7  749.46   36.49
  -6  -8   7  796.88   32.71
   6   8  -6  682.21   35.06
  -6  -8   6  682.35   35.11
  -6  -8   6  777.37   31.76
  -6  -8   5    0.18    3.69
   6   8  -5   13.42    5.32
  -6  -8   5   -2.64    6.49
  -6  -8   5    2.23    4.06
  -6  -8   4  575.52   25.74
   6   8  -4  553.08   29.93
  -6  -8   4  550.12   33.19
  -6  -8   4  615.50   27.39
  -6  -8   3  805.34   30.60
   6   8  -3  823.78   35.58
  -6  -8   3  748.38   40.14
  -6  -8   2   35.96    6.86
   6   8  -2   36.22    7.64
   6   8  -2   24.27    8.42
  -6  -8   2   37.65    9.57
  -6  -8   1  230.05   17.03
   6   8  -1  207.47   23.72
  -6  -8   1  180.44   21.22
  -6  -8   0  608.31   28.61
   6   8   0  548.60   39.40
  -6  -8   0  530.02   37.70
  -6  -8  -1  137.55   14.07
  -6  -8  -1  129.17   19.01
   6   8   1   93.00   17.01
   6   8   1   69.74   14.78
  -6  -8  -2   63.77   10.47
   6   8   2   50.92   13.03
  -6  -8  -2   57.47   12.98
  -6  -8  -3  399.86   26.55
   6   8   3  338.39   32.38
   6   9 -11  589.55   39.68
   6   9 -11  600.35   51.95
   6   9 -10  349.21   29.95
  -6  -9  10  368.60   26.24
   6   9 -10  373.39   43.00
  -6  -9  10  398.63   25.81
  -6  -9   9   10.66    5.21
   6   9  -9    2.44    4.17
  -6  -9   9   -1.62    5.54
   6   9  -9    5.63    8.05
  -6  -9   9   -3.30    4.92
   6   9  -8  207.44   21.77
   6   9  -8  180.54   34.34
  -6  -9   8  225.47   21.41
  -6  -9   8  238.01   19.07
   6   9  -7  575.72   34.99
   6   9  -7  509.79   57.76
  -6  -9   7  613.20   34.80
  -6  -9   6  247.60   18.40
   6   9  -6  268.34   23.25
  -6  -9   6  228.47   20.98
  -6  -9   6  242.52   18.51
  -6  -9   5   48.03    8.07
   6   9  -5   38.32    8.63
  -6  -9   5   30.32    7.01
  -6  -9   5   55.46    8.93
  -6  -9   4  648.03   28.65
   6   9  -4  622.60   33.10
  -6  -9   4  609.67   36.13
  -6  -9   4  647.09   29.46
  -6  -9   3  335.03   20.68
  -6  -9   3  285.51   25.79
  -6  -9   2    3.26    3.26
  -6  -9   2    1.17    7.52
   6   9  -2   10.07    7.77
  -6  -9   1  516.22   26.78
   6   9  -1  386.34   37.15
   6   9  -1  422.38   36.54
  -6  -9   1  452.26   34.88
  -6  -9   0  567.31   28.87
   6   9   0  541.09   40.91
  -6  -9   0  536.62   39.21
  -6  -9  -1   -1.69    4.95
   6   9   1   -0.39    5.45
   6   9   1   -9.59    7.62
  -6 -10  10   24.93    8.95
  -6 -10   9  250.26   24.60
  -6 -10   8  369.85   28.93
  -6 -10   7  332.69   22.59
   6  10  -7  320.26   27.25
   6  10  -7  320.41   47.35
  -6 -10   7  333.61   26.69
  -6 -10   7  328.74   22.97
  -6 -10   6    3.92    3.38
  -6 -10   6    3.98    4.92
   6  10  -6    6.51   11.72
  -6 -10   6    3.78    4.22
  -6 -10   5  268.43   19.23
   6  10  -5  211.14   38.61
  -6 -10   5  245.61   22.94
  -6 -10   5  271.64   20.13
  -6 -10   4  396.28   23.24
   6  10  -4  349.09   42.48
  -6 -10   4  328.31   27.54
  -6 -10   3   12.09    5.13
  -6 -10   3    8.78    4.70
   6  10  -3   10.37    9.27
  -6 -10   2  202.28   16.83
   6  10  -2  162.12   26.60
   7 -11  -3  907.44   45.44
   7 -11  -2  395.87   29.28
   7 -11  -1   25.40    8.14
   7 -11   2   30.21    7.12
   7 -11   3  301.07   22.20
  -7  10   7  590.94   38.07
   7 -10  -6  263.08   25.38
  -7  10   6  281.94   22.23
  -7  10   6  256.19   26.11
  -7  10   5   47.60   12.67
   7 -10  -5   55.62   11.60
  -7  10   5   47.25    9.30
   7 -10  -4  427.75   31.12
  -7  10   4  525.27   28.39
  -7  10   4  479.91   41.47
   7 -10  -3  575.96   35.59
  -7  10   3  686.84   32.16
  -7  10   3  658.38   52.36
  -7  10   2   70.17   17.79
   7 -10  -2   60.35   11.09
  -7  10   2   78.04   11.21
   7 -10  -1  315.05   25.60
  -7  10   1  328.34   43.06
  -7  10   0  886.46   70.76
   7 -10   1  379.64   22.00
  -7  10  -1  356.44   44.16
  -7  10  -2  107.30   24.13
   7 -10   2   86.33   11.02
   7 -10   3  835.41   36.36
  -7  10  -3  899.88   64.89
   7 -10   4  299.71   23.07
  -7  10  -4  314.93   34.70
  -7  10  -5   48.72   13.02
  -7   9   9   65.34   14.04
  -7   9   8  852.15   40.73
  -7   9   7  459.80   28.27
  -7   9   7  400.63   30.47
   7  -9  -7  371.88   30.05
   7  -9  -7  491.45   34.21
   7  -9  -6    5.85    4.90
  -7   9   6    2.67    4.53
  -7   9   6    2.49    4.57
   7  -9  -5  293.09   25.72
  -7   9   5  337.21   22.40
  -7   9   5  349.31   32.20
   7  -9  -4  556.52   34.60
  -7   9   4  579.82   28.55
  -7   9   4  547.21   43.89
  -7   9   3  119.11   22.05
   7  -9  -3  126.47   16.39
  -7   9   3  136.20   14.19
   7  -9  -2  161.50   18.42
  -7   9   2  189.58   16.15
  -7   9   2  173.74   29.66
   7  -9  -1  559.01   33.57
  -7   9   1  604.02   28.38
  -7   9   1  570.88   54.81
   7  -9   0  315.09   18.51
  -7   9   0  278.42   38.12
  -7   9  -1    4.17    8.03
   7  -9   1    4.08    2.53
   7  -9   2  452.43   24.58
  -7   9  -2  549.30   50.71
   7  -9   3  576.72   29.61
   7  -9   3  627.45   49.35
  -7   9  -3  692.08   52.15
   7  -9   4   10.71    8.84
  -7   9  -4   24.81    9.60
   7  -9   4   18.84    6.51
  -7   9  -4   17.07    6.42
  -7   9  -5  188.75   23.68
   7  -9   5  173.96   19.25
  -7   9  -5  191.76   18.55
   7  -9   5  182.62   25.20
   7  -9   6  528.93   39.95
  -7   8  10  -12.60   10.50
  -7   8   9  485.90   37.95
   7  -8  -9  475.36   33.70
   7  -8  -9  482.55   31.21
   7  -8  -8  940.12   47.06
  -7   8   8  901.33   43.01
   7  -8  -8 1017.91   47.09
  -7   8   7  294.29   25.82
  -7   8   7  238.23   22.84
   7  -8  -7  214.21   21.77
   7  -8  -7  270.62   25.16
  -7   8   6  228.51   23.91
   7  -8  -6  262.01   24.17
   7  -8  -6  279.40   26.96
  -7   8   6  250.45   19.14
  -7   8   5  973.02   53.58
   7  -8  -5  912.46   45.24
  -7   8   5  977.78   36.72
   7  -8  -4  426.34   29.81
  -7   8   4  442.61   24.18
  -7   8   4  464.99   39.91
  -7   8   3   46.44   14.78
   7  -8  -3   53.78   10.31
  -7   8   3   57.03    8.55
   7  -8  -2  877.66   42.12
  -7   8   2  885.77   32.84
  -7   8   2  918.50   66.39
   7  -8  -1  328.56   25.29
  -7   8   1  331.19   19.84
  -7   8   1  305.46   38.78
  -7   8   0    5.37    6.16
   7  -8   0   -0.32    2.65
   7  -8   1  460.52   22.83
   7  -8   1  489.16   40.23
  -7   8  -1  495.78   49.07
   7  -8   2  618.95   28.46
   7  -8   2  649.19   46.41
  -7   8  -2  746.95   55.30
   7  -8   3   59.00   14.56
   7  -8   3   68.17   10.68
  -7   8  -3   85.77   17.84
  -7   8  -3   96.34   12.36
  -7   8  -4  105.92   17.95
   7  -8   4   72.52   15.20
   7  -8   4  113.02   14.54
  -7   8  -4  110.15   13.46
  -7   8  -5  378.30   31.57
   7  -8   5  310.79   25.99
  -7   8  -5  361.38   24.68
   7  -8   5  295.32   30.16
   7  -8   6  359.10   29.91
  -7   8  -6  409.60   27.15
   7  -8   6  364.38   33.50
   7  -7 -11   56.08   10.13
  -7   7  10   71.42   14.37
   7  -7 -10  106.25   15.71
   7  -7 -10   89.97   13.25
  -7   7   9 1134.96   56.43
   7  -7  -9  983.98   47.26
   7  -7  -9 1009.82   44.45
   7  -7  -8  619.69   37.23
   7  -7  -8  699.11   38.36
  -7   7   8  586.06   33.44
   7  -7  -7    8.25    5.70
  -7   7   7    3.43    5.53
   7  -7  -7    2.94    3.64
  -7   7   7    3.28    3.89
  -7   7   6  746.44   33.38
  -7   7   6  668.54   40.29
   7  -7  -6  647.72   37.53
   7  -7  -6  773.48   45.17
  -7   7   5  953.42   33.44
  -7   7   5  909.24   51.62
   7  -7  -5  920.37   44.60
  -7   7   5  923.29   34.36
   7  -7  -4  101.51   19.60
   7  -7  -4   76.47   12.87
  -7   7   4   77.29   16.01
  -7   7   4   65.37    8.75
  -7   7   3  672.20   52.08
   7  -7  -3  611.97   35.92
   7  -7  -3  645.15   49.48
  -7   7   3  636.69   26.85
   7  -7  -2 1124.06   48.20
  -7   7   2 1081.56   34.73
  -7   7   2 1025.10   67.76
   7  -7  -1  264.07   22.75
   7  -7  -1  239.06   27.45
   7  -7  -1  268.39   14.92
   7  -7  -1  296.35   23.56
  -7   7   1  276.61   17.09
  -7   7   1  264.69   34.80
   7  -7   0  261.75   25.51
   7  -7   0  276.81   16.36
  -7   7   0  275.54   17.02
   7  -7   0  282.10   23.75
  -7   7   0  276.44   35.39
   7  -7   1 1305.03   31.88
   7  -7   1 1152.21   48.06
   7  -7   1 1206.01   37.49
   7  -7   1 1220.94   52.07
  -7   7  -2  598.03   45.51
   7  -7   2  581.45   20.90
   7  -7   2  512.99   25.76
   7  -7   2  525.68   35.23
  -7   7  -3  101.59   12.23
  -7   7  -3   91.56   15.43
   7  -7   3   85.37   15.01
  -7   7  -3  131.42   20.02
  -7   7  -4  720.70   43.69
  -7   7  -4  826.92   46.57
  -7   7  -4  781.52   34.36
   7  -7   4  717.40   44.68
  -7   7  -5  602.52   40.71
  -7   7  -5  676.65   40.05
  -7   7  -5  658.35   32.57
   7  -7   5  547.80   40.19
   7  -7   6  109.12   17.98
  -7   7  -6  139.65   16.27
  -7   7  -7  271.50   23.57
   7  -7   7  182.02   23.18
   7  -6 -12  186.96   17.66
   7  -6 -11   24.07    6.74
  -7   6  11   19.03    5.84
   7  -6 -11   34.34    9.53
  -7   6  10  551.69   39.75
   7  -6 -10  500.69   32.74
   7  -6 -10  537.27   31.04
  -7   6   9  574.75   39.21
   7  -6  -9  528.19   33.65
   7  -6  -9  524.55   31.43
   7  -6  -8   10.44    5.62
  -7   6   8    9.36    5.61
   7  -6  -8   11.25    4.93
  -7   6   8    7.61    3.89
  -7   6   7  438.83   27.19
   7  -6  -7  375.98   28.23
   7  -6  -7  468.38   33.11
  -7   6   7  385.39   27.90
  -7   6   6  861.07   33.97
   7  -6  -6  819.74   41.65
  -7   6   6  777.57   43.26
  -7   6   5  187.11   13.95
  -7   6   5  218.84   24.71
   7  -6  -5  205.64   20.75
   7  -6  -5  239.07   27.33
   7  -6  -4   33.29   11.54
  -7   6   4   29.69    5.29
   7  -6  -4   37.30    9.12
  -7   6   4   35.40   10.46
  -7   6   4   23.45    4.66
  -7   6   4   28.10   11.46
  -7   6   3  981.08   27.53
  -7   6   3  941.58   60.57
   7  -6  -3 1011.60   48.58
   7  -6  -3  898.44   54.38
  -7   6   3  858.68   56.00
  -7   6   3  929.88   31.05
  -7   6   2  551.88   47.25
   7  -6  -2  549.08   34.89
   7  -6  -2  515.35   38.82
  -7   6   2  479.61   44.05
  -7   6   2  532.27   22.78
  -7   6   1   -2.70    5.59
   7  -6  -1    4.61    5.42
   7  -6  -1    2.11    4.37
   7  -6  -1    6.33    3.14
  -7   6   1    3.61    3.20
  -7   6   1    5.20    6.27
  -7   6   0 1181.91   45.88
   7  -6   0 1156.00   29.41
   7  -6   0 1134.40   47.30
  -7   6   0 1188.12   34.02
  -7   6  -1 1518.13   54.30
   7  -6   1 1464.11   33.34
   7  -6   1 1401.85   47.15
   7  -6   1 1488.41   50.61
  -7   6  -2  140.98   17.16
  -7   6  -2  143.02   20.49
   7  -6   2  137.45    9.97
  -7   6  -2  131.66   13.08
   7  -6   2  132.03   16.26
  -7   6  -3  561.89   35.41
   7  -6   3  579.64   21.19
  -7   6  -3  551.62   37.70
  -7   6  -3  522.51   26.27
   7  -6   3  489.97   32.24
  -7   6  -4 1343.94   56.69
  -7   6  -4 1365.94   56.01
  -7   6  -4 1247.89   42.56
   7  -6   4 1193.32   53.58
  -7   6  -5  769.64   43.28
  -7   6  -5  806.30   40.53
  -7   6  -5  719.67   33.54
   7  -6   5  702.14   42.82
  -7   6  -6   84.56   14.61
   7  -6   6   75.74   15.17
  -7   6  -6  100.69   13.84
  -7   6  -7  946.11   44.29
   7  -6   7  745.90   47.60
   7  -5 -13  604.93   31.18
   7  -5 -12   25.80    6.86
  -7   5  12    8.27    7.67
   7  -5 -12   30.14    9.16
  -7   5  11  253.84   26.70
   7  -5 -11  327.66   25.65
   7  -5 -11  300.76   22.45
  -7   5  10  943.53   51.61
   7  -5 -10  867.41   42.12
   7  -5 -10  924.70   40.51
  -7   5   9  128.57   17.88
   7  -5  -9   83.91   13.73
   7  -5  -9   93.14   13.52
  -7   5   8  279.27   23.25
   7  -5  -8  249.44   22.92
   7  -5  -8  268.86   23.82
  -7   5   8  237.19   21.95
  -7   5   7  951.65   37.62
   7  -5  -7  810.25   42.18
   7  -5  -7 1053.56   49.89
  -7   5   7  940.63   45.81
  -7   5   7  792.19   40.01
  -7   5   6  277.69   18.00
   7  -5  -6  279.91   24.99
   7  -5  -6  353.20   30.89
  -7   5   6  310.11   27.89
  -7   5   6  279.16   25.50
  -7   5   5   81.47    9.04
   7  -5  -5   98.10   17.85
   7  -5  -5   75.17   13.11
  -7   5   5   84.35   15.75
  -7   5   5   77.49   14.69
  -7   5   4  923.48   28.18
   7  -5  -4  954.15   47.58
   7  -5  -4  833.05   50.67
  -7   5   4  957.36   55.73
  -7   5   4  938.89   53.90
  -7   5   3  744.91   31.45
  -7   5   3  853.31   25.15
   7  -5  -3  916.87   47.44
   7  -5  -3  743.95   45.98
  -7   5   3  889.17   56.87
  -7   5   3  730.98   49.36
  -7   5   3  821.31   27.65
  -7   5   2   32.82    6.63
   7  -5  -2   50.42   11.16
  -7   5   2   44.17    5.34
   7  -5  -2   29.38    8.71
  -7   5   2   34.64   11.92
  -7   5   2   42.32   13.70
  -7   5   2   38.21    6.10
  -7   5   1  454.92   25.56
   7  -5  -1  488.80   30.47
  -7   5   1  501.62   44.71
  -7   5   1  555.45   48.19
  -7   5   1  487.24   20.12
  -7   5   0 1192.00   43.75
   7  -5   0 1139.68   28.72
   7  -5   0 1156.74   42.03
  -7   5   0 1228.93   67.95
  -7   5   0 1179.43   31.79
  -7   5  -1  424.85   26.80
   7  -5   1  384.75   16.23
   7  -5   1  391.49   21.67
  -7   5  -1  436.90   35.85
  -7   5  -1  354.17   33.95
  -7   5  -2   66.93   13.45
  -7   5  -2   72.07   11.69
   7  -5   2   72.25    7.17
  -7   5  -2   83.52   15.42
  -7   5  -2   79.85   10.01
  -7   5  -3 1353.48   53.31
  -7   5  -3 1332.81   55.32
   7  -5   3 1353.22   33.34
  -7   5  -3 1338.50   55.10
  -7   5  -3 1243.87   40.04
   7  -5   3 1232.51   48.36
  -7   5  -4 1258.31   52.75
  -7   5  -4 1317.15   54.27
   7  -5   4 1225.67   32.68
  -7   5  -4 1089.03   38.57
   7  -5   4 1176.17   50.08
  -7   5  -4 1177.84   49.11
  -7   5  -5  170.96   19.38
  -7   5  -5  188.95   20.17
  -7   5  -5  172.66   16.31
   7  -5   5  180.96   20.67
   7  -5   5  181.63   19.99
  -7   5  -6  618.36   37.70
  -7   5  -6  581.30   33.78
  -7   5  -6  570.27   31.50
   7  -5   6  539.18   37.90
   7  -5   6  622.30   40.02
  -7   5  -7  968.25   42.94
  -7   5  -7  976.25   45.63
   7  -5   7 1081.21   55.86
  -7   5  -8  344.74   29.60
   7  -5   8  372.89   32.56
   7  -4 -13  340.53   22.96
   7  -4 -12   82.40   12.85
   7  -4 -12   72.31   10.96
  -7   4  11  682.70   43.88
   7  -4 -11  692.45   36.53
   7  -4 -11  671.07   33.65
  -7   4  10  748.32   44.51
   7  -4 -10  678.30   36.84
   7  -4 -10  746.94   36.23
   7  -4  -9    1.93    4.26
  -7   4   9    4.63    4.79
   7  -4  -9    7.36    6.14
  -7   4   9   11.07    5.79
  -7   4   8  873.74   38.14
   7  -4  -8  951.45   45.53
   7  -4  -8  910.51   44.61
  -7   4   8  834.56   40.50
  -7   4   7 1253.20   41.03
   7  -4  -7 1300.20   54.84
   7  -4  -7 1347.08   57.91
  -7   4   7 1272.80   53.07
   7  -4  -6   13.78    7.33
  -7   4   6    4.54    2.98
   7  -4  -6   10.78    6.31
  -7   4   6   12.25    6.40
  -7   4   6   10.40    6.44
  -7   4   5  777.57   29.88
  -7   4   5  827.88   27.74
   7  -4  -5  841.70   46.45
   7  -4  -5  856.95   48.17
  -7   4   5  887.22   49.24
  -7   4   5  791.54   46.89
  -7   4   4 1964.23   49.34
  -7   4   4 2120.13   43.55
   7  -4  -4 2063.94   77.28
   7  -4  -4 2071.31   74.34
  -7   4   4 2232.80   82.18
  -7   4   4 2223.60   84.31
  -7   4   3  338.73   19.76
  -7   4   3  366.78   15.95
   7  -4  -3  283.13   27.58
   7  -4  -3  369.50   28.33
  -7   4   3  323.83   32.74
  -7   4   3  379.86   36.41
  -7   4   2  387.94   21.67
  -7   4   2  391.62   15.16
   7  -4  -2  376.64   29.89
   7  -4  -2  408.92   27.08
  -7   4   2  403.57   37.33
  -7   4   2  430.65   39.82
  -7   4   2  410.41   17.78
  -7   4   1 2161.64   56.23
   7  -4  -1 2130.86   41.00
   7  -4  -1 2229.06   58.67
  -7   4   1 2194.91   42.83
  -7   4   0  932.50   37.64
   7  -4   0  847.53   24.56
   7  -4   0  919.08   33.12
  -7   4   0  933.90   55.44
  -7   4   0  923.00   26.39
  -7   4  -1   -0.06    4.59
   7  -4   1   10.95    3.86
  -7   4  -1   10.54    4.74
  -7   4  -1    9.70    6.46
  -7   4  -1   11.07    6.47
   7  -4   1    0.14    2.26
  -7   4  -2 1005.03   42.93
  -7   4  -2  977.52   46.34
   7  -4   2  935.49   26.90
  -7   4  -2  916.85   32.62
  -7   4  -3 1212.99   49.31
  -7   4  -3 1180.73   50.46
   7  -4   3 1179.22   31.40
  -7   4  -3 1070.16   48.49
  -7   4  -3 1020.90   35.62
  -7   4  -4  301.58   25.42
  -7   4  -4  283.01   24.28
   7  -4   4  304.25   16.01
  -7   4  -4  260.12   18.31
   7  -4   4  315.09   24.44
  -7   4  -5  158.42   18.68
  -7   4  -5  182.13   18.87
   7  -4   5  162.47   12.09
  -7   4  -5  155.50   15.11
   7  -4   5  174.71   19.88
  -7   4  -6  864.05   44.08
  -7   4  -6  719.09   37.04
  -7   4  -6  790.56   37.07
   7  -4   6  778.37   44.30
   7  -4   6  933.96   48.70
  -7   4  -7  536.86   31.54
  -7   4  -7  573.84   35.05
   7  -4   7  526.42   38.79
   7  -4   7  610.24   37.97
   7  -4   8   36.53   10.29
  -7   4  -8   33.75    8.39
  -7   4  -8   35.51   10.95
   7  -4   8   31.67    9.04
   7  -3 -13    2.57    3.20
  -7   3  13   -3.67    8.62
   7  -3 -13    1.75    4.20
  -7   3  12  373.19   33.07
   7  -3 -12  426.10   28.15
   7  -3 -12  417.08   25.74
  -7   3  11  733.30   45.35
   7  -3 -11  686.11   36.33
   7  -3 -11  746.05   35.25
   7  -3 -10   23.47    6.71
  -7   3  10   24.13    8.87
   7  -3 -10   30.05    8.73
  -7   3   9  380.87   26.48
   7  -3  -9  389.35   28.73
   7  -3  -9  421.33   29.14
  -7   3   9  361.29   25.02
  -7   3   8 1188.03   42.20
   7  -3  -8 1276.09   54.34
   7  -3  -8 1371.83   56.70
  -7   3   8 1205.04   48.74
  -7   3   7  406.62   21.76
   7  -3  -7  419.91   32.29
   7  -3  -7  429.45   32.86
  -7   3   7  378.82   28.67
  -7   3   6  178.88   14.06
  -7   3   6  192.42   14.03
   7  -3  -6  202.14   23.26
   7  -3  -6  197.68   22.54
  -7   3   6  209.61   22.83
  -7   3   5 1590.88   41.59
  -7   3   5 1657.28   39.43
   7  -3  -5 1639.63   65.59
   7  -3  -5 1590.51   62.18
  -7   3   4 1979.14   47.13
  -7   3   4 2068.44   42.19
   7  -3  -4 1802.48   66.37
   7  -3  -4 1873.97   63.86
  -7   3   4 1947.86   76.93
  -7   3   3   18.01    4.65
   7  -3  -3   21.83    7.20
  -7   3   3    9.17    2.91
   7  -3  -3   29.28    8.18
  -7   3   3    8.09    6.29
  -7   3   2 2320.79   54.47
  -7   3   2 2301.08   45.05
   7  -3  -2 2219.88   42.24
   7  -3  -2 2181.83   57.72
  -7   3   2 2271.34   42.28
   7  -3  -2 2318.72   59.26
  -7   3   2 2436.43   91.90
  -7   3   1 3151.99   66.88
  -7   3   1 3133.25   60.80
   7  -3  -1 3042.64   50.61
   7  -3  -1 3171.24   64.14
  -7   3   1 3097.63   49.80
  -7   3   0  323.91   21.62
  -7   3   0  323.08   20.52
   7  -3   0  301.21   14.29
   7  -3   0  291.03   16.59
  -7   3   0  361.09   32.74
  -7   3   0  308.61   14.11
  -7   3  -1  541.11   29.73
   7  -3   1  490.86   18.88
   7  -3   1  505.93   20.15
  -7   3  -1  511.26   35.45
  -7   3  -1  530.02   28.75
  -7   3  -2 2365.11   68.83
   7  -3   2 2431.03   46.28
  -7   3  -2 2280.83   71.22
  -7   3  -2 2333.79   52.89
  -7   3  -2 2443.79   67.39
  -7   3  -3  703.62   37.51
   7  -3   3  798.16   25.93
  -7   3  -3  726.07   37.01
  -7   3  -3  760.15   29.61
  -7   3  -3  819.08   40.10
  -7   3  -4   -0.03    4.32
   7  -3   4   12.91    7.19
  -7   3  -4    6.05    3.87
  -7   3  -4    1.91    3.38
   7  -3   4    4.32    2.39
  -7   3  -4    8.23    4.51
  -7   3  -5  835.13   41.94
   7  -3   5  859.33   29.14
  -7   3  -5  859.61   35.59
   7  -3   5  967.78   43.86
  -7   3  -5  854.19   44.08
  -7   3  -6  693.10   37.40
   7  -3   6  745.11   28.91
  -7   3  -6  749.13   36.32
   7  -3   6  811.64   43.31
  -7   3  -6  842.03   44.03
   7  -3   7  108.61   16.74
  -7   3  -7  100.33   14.67
  -7   3  -7  120.78   16.77
  -7   3  -8  169.42   18.07
  -7   3  -8  207.65   24.00
   7  -3   8  155.39   20.91
  -7   3  -9  364.21   33.80
  -7   2  13  626.50   42.76
   7  -2 -13  690.86   36.28
   7  -2 -13  699.73   32.66
  -7   2  12  573.10   40.31
   7  -2 -12  569.90   33.37
   7  -2 -12  593.30   30.91
  -7   2  11  119.02   17.48
   7  -2 -11  117.77   15.60
   7  -2 -11   97.29   13.15
  -7   2  10  312.28   25.11
   7  -2 -10  303.56   25.77
   7  -2 -10  324.32   24.90
  -7   2  10  276.22   21.29
  -7   2   9  879.44   37.92
   7  -2  -9  912.89   45.78
   7  -2  -9  912.54   44.80
  -7   2   9  840.55   39.00
  -7   2   8  503.58   25.85
   7  -2  -8  581.11   37.56
   7  -2  -8  593.76   37.44
  -7   2   8  532.80   32.51
  -7   2   7  105.97    9.82
  -7   2   7  105.85   11.00
   7  -2  -7  125.98   17.31
   7  -2  -7  123.78   17.38
  -7   2   7  130.49   17.28
  -7   2   6 1157.20   33.07
  -7   2   6 1153.49   33.65
   7  -2  -6 1111.56   49.69
   7  -2  -6 1159.15   51.49
  -7   2   5 1831.35   43.74
  -7   2   5 1838.49   32.97
  -7   2   5 1824.49   41.05
   7  -2  -5 1683.19   57.07
   7  -2  -5 1878.26   62.17
  -7   2   5 1990.69   75.38
  -7   2   4  258.54   15.89
  -7   2   4  250.95   11.66
  -7   2   4  262.13   14.08
   7  -2  -4  286.50   20.23
   7  -2  -4  250.28   20.70
  -7   2   4  266.09   28.38
  -7   2   3  861.12   30.35
  -7   2   3  877.66   23.62
  -7   2   3  793.91   23.27
   7  -2  -3  858.84   25.12
   7  -2  -3  901.68   30.71
   7  -2  -3  871.70   35.50
  -7   2   3  865.68   52.66
  -7   2   2 2737.10   47.92
   7  -2  -2 2850.15   48.72
   7  -2  -2 2887.11   47.81
  -7   2   2 2973.01  102.33
   7  -2  -2 2743.46   59.94
  -7   2   2 2861.97   45.89
  -7   2   2 2898.47   60.86
  -7   2   1  987.23   29.23
   7  -2  -1 1009.94   27.09
  -7   2   1 1024.23   60.02
   7  -2  -1 1011.68   31.59
  -7   2   1  996.36   24.67
  -7   2   1 1100.99   38.03
  -7   2   0    0.20    3.09
   7  -2   0    4.84    2.60
  -7   2   0    4.32    2.67
  -7   2   0    4.73    6.44
   7  -2   0   -4.01    3.84
  -7   2   0    3.38    1.92
  -7   2  -1 1626.79   46.89
   7  -2   1 1655.86   37.19
  -7   2  -1 1576.80   60.50
   7  -2   1 1667.74   36.01
  -7   2  -1 1762.74   53.62
  -7   2  -2 2627.89   67.12
   7  -2   2 2729.34   50.40
  -7   2  -2 2621.85   73.20
  -7   2  -2 2643.00   55.11
  -7   2  -2 2732.22   71.72
  -7   2  -3  373.44   26.51
   7  -2   3  365.70   17.88
  -7   2  -3  324.73   24.08
  -7   2  -3  361.56   19.96
  -7   2  -3  354.87   26.50
  -7   2  -4  381.39   28.10
   7  -2   4  430.49   20.20
  -7   2  -4  405.78   25.47
  -7   2  -4  427.71   22.85
  -7   2  -4  447.31   30.64
  -7   2  -5 1356.47   55.14
   7  -2   5 1460.46   40.13
  -7   2  -5 1469.85   47.06
   7  -2   5 1546.80   53.56
  -7   2  -5 1488.75   58.35
  -7   2  -6  328.08   27.09
   7  -2   6  350.55   20.50
  -7   2  -6  358.97   25.22
   7  -2   6  399.29   29.09
  -7   2  -6  373.83   29.77
  -7   2  -7   72.77   13.44
   7  -2   7   58.65   12.00
   7  -2   7   40.90    8.06
  -7   2  -7   75.66   13.79
  -7   2  -8  556.18   34.31
  -7   2  -8  586.23   39.09
   7  -2   8  517.56   37.27
  -7   2  -9  264.37   27.71
  -7   1  14   89.52   16.46
   7  -1 -14  109.80   15.01
  -7   1  13  607.73   42.16
   7  -1 -13  617.10   35.31
   7  -1 -13  619.29   30.89
  -7   1  12  359.65   31.47
   7  -1 -12  329.28   26.55
   7  -1 -12  322.46   23.20
  -7   1  11  127.42   17.75
   7  -1 -11  129.42   17.52
   7  -1 -11  131.41   15.85
  -7   1  10 1161.71   45.84
   7  -1 -10 1251.60   55.01
  -7   1  10 1123.78   44.07
   7  -1 -10 1218.33   50.35
  -7   1   9 1251.25   43.34
   7  -1  -9 1273.05   54.66
  -7   1   9 1285.00   49.59
   7  -1  -9 1437.04   57.83
  -7   1   8   19.51    3.99
   7  -1  -8   21.46    7.67
  -7   1   8   24.21    6.57
   7  -1  -8   18.37    7.29
  -7   1   8   12.67    6.22
  -7   1   7 1308.37   33.48
  -7   1   7 1203.51   36.00
   7  -1  -7 1199.17   48.25
  -7   1   7 1336.20   55.69
   7  -1  -7 1279.45   53.35
  -7   1   6 1573.33   38.42
  -7   1   6 1550.13   38.96
   7  -1  -6 1602.78   51.10
   7  -1  -6 1532.97   56.11
  -7   1   5  599.87   23.64
  -7   1   5  573.44   18.74
  -7   1   5  576.95   21.78
   7  -1  -5  596.31   27.12
  -7   1   5  606.34   40.93
   7  -1  -5  586.80   31.75
  -7   1   4  737.57   21.58
  -7   1   4  714.54   23.21
   7  -1  -4  722.13   23.28
   7  -1  -4  796.37   26.91
   7  -1  -4  789.71   33.98
  -7   1   4  730.49   26.76
  -7   1   3 1862.15   36.95
   7  -1  -3 1868.24   38.43
   7  -1  -3 1863.34   36.41
   7  -1  -3 1923.66   49.53
  -7   1   3 1848.32   45.83
  -7   1   2 1243.54   30.92
   7  -1  -2 1245.09   30.80
  -7   1   2 1324.36   68.14
   7  -1  -2 1227.84   35.85
  -7   1   2 1276.08   27.13
  -7   1   2 1250.69   38.59
  -7   1   1  105.28    9.13
   7  -1  -1  106.86    8.67
  -7   1   1  108.31   18.94
   7  -1  -1  120.48   10.18
  -7   1   1  120.80    7.76
  -7   1   1  122.48   12.75
  -7   1   0  339.01   18.00
   7  -1   0  341.78   16.02
  -7   1   0  340.81   29.45
   7  -1   0  347.27   15.96
  -7   1   0  348.89   13.32
  -7   1   0  329.65   22.11
  -7   1  -1 2207.31   52.51
   7  -1   1 2215.47   44.80
  -7   1  -1 2208.49   70.58
   7  -1   1 2270.75   41.59
  -7   1  -1 2240.04   62.79
  -7   1  -2  668.37   30.86
   7  -1   2  743.56   25.53
  -7   1  -2  689.89   35.47
  -7   1  -2  754.13   27.42
  -7   1  -2  772.50   37.77
  -7   1  -3   57.25   11.18
  -7   1  -3   44.62    8.98
  -7   1  -3   43.42    8.28
   7  -1   3   44.45    6.59
  -7   1  -3   53.65    7.77
  -7   1  -4  885.87   43.23
   7  -1   4  904.92   30.82
  -7   1  -4  952.85   34.21
  -7   1  -4  910.05   45.06
  -7   1  -5  769.04   42.13
   7  -1   5  720.86   29.12
  -7   1  -5  751.46   33.35
   7  -1   5  815.35   37.01
  -7   1  -5  779.90   41.70
  -7   1  -6   79.83   13.98
   7  -1   6   76.86   10.22
  -7   1  -6  103.95   13.99
   7  -1   6  102.59   14.25
  -7   1  -6  100.42   15.08
  -7   1  -7  278.95   26.08
   7  -1   7  267.03   20.93
  -7   1  -7  316.10   25.90
   7  -1   7  274.15   24.78
  -7   1  -7  321.49   25.21
  -7   1  -8  437.61   32.31
   7  -1   8  364.19   26.56
   7  -1   8  385.57   31.14
  -7   0  14  397.88   34.59
   7   0 -14  386.20   28.47
  -7   0  13  358.95   31.57
  -7   0  13  357.39   27.15
   7   0 -13  342.39   27.36
   7   0 -13  340.69   23.12
   7   0 -12   40.57    8.43
  -7   0  12   65.33   13.04
  -7   0  12   55.65   11.18
   7   0 -12   67.61   12.80
  -7   0  11  430.87   29.20
  -7   0  11  438.72   27.99
   7   0 -11  455.12   33.50
   7   0 -11  473.52   30.49
  -7   0  10 1665.61   52.25
   7   0 -10 1717.57   63.77
  -7   0  10 1589.10   54.46
  -7   0   9  505.24   25.90
   7   0  -9  481.66   31.71
  -7   0   9  515.21   31.16
   7   0  -9  554.85   35.53
  -7   0   8  352.82   16.34
  -7   0   8  360.58   20.01
   7   0  -8  323.43   24.18
  -7   0   8  390.84   28.21
   7   0  -8  334.67   27.06
  -7   0   7 2258.78   45.45
  -7   0   7 2108.01   48.23
   7   0  -7 2163.39   58.63
  -7   0   7 2394.56   74.24
   7   0  -7 2294.53   69.25
  -7   0   6 1674.32   40.28
   7   0  -6 1719.57   46.24
  -7   0   6 1799.95   67.27
   7   0  -6 1802.31   57.54
  -7   0   6 1733.49   32.94
  -7   0   6 1752.36   40.15
  -7   0   5   37.24    5.90
  -7   0   5   40.11    5.37
   7   0  -5   34.80    7.67
  -7   0   5   36.41    5.56
   7   0  -5   44.97    6.62
  -7   0   5   48.49   11.83
   7   0  -5   46.86    5.83
  -7   0   5   33.72    4.32
  -7   0   4 1303.29   30.52
   7   0  -4 1324.01   31.79
   7   0  -4 1300.68   30.26
   7   0  -4 1326.56   42.05
  -7   0   4 1277.51   36.04
  -7   0   3 2424.05   44.60
   7   0  -3 2478.72   45.39
   7   0  -3 2369.53   37.68
   7   0  -3 2383.40   53.11
  -7   0   3 2497.93   54.53
  -7   0   2  396.41   17.34
   7   0  -2  357.06   16.28
  -7   0   2  380.30   34.92
   7   0  -2  375.43   18.55
  -7   0   2  383.14   21.99
  -7   0   1  249.26   14.46
   7   0  -1  248.27   13.67
  -7   0   1  233.60   26.29
   7   0  -1  259.38   14.51
  -7   0   1  247.78   10.41
  -7   0   1  255.73   19.19
  -7   0   0 1758.31   42.46
   7   0   0 1821.64   40.12
  -7   0   0 1724.30   64.67
   7   0   0 1761.96   37.65
  -7   0   0 1847.95   55.19
  -7   0  -1 1230.83   37.85
   7   0   1 1258.29   33.99
  -7   0  -1 1187.89   49.47
   7   0   1 1328.56   30.62
  -7   0  -1 1264.22   48.02
  -7   0  -2   24.61    7.54
  -7   0  -2   16.72    5.12
  -7   0  -2   13.02    5.34
   7   0   2   16.35    4.52
  -7   0  -3  306.22   22.14
   7   0   3  285.99   16.96
  -7   0  -3  286.72   21.45
  -7   0  -3  304.81   17.66
  -7   0  -3  287.37   24.56
  -7   0  -4  537.41   32.04
   7   0   4  534.28   24.99
  -7   0  -4  550.74   25.75
  -7   0  -4  589.42   36.69
  -7   0  -5  109.79   15.71
   7   0   5  110.06   11.89
  -7   0  -5  133.67   13.60
  -7   0  -5  133.37   17.34
  -7   0  -6   21.46    7.01
  -7   0  -6   27.40    7.47
   7   0   6   35.26    7.99
  -7   0  -7  372.68   30.98
   7   0   7  358.72   25.84
   7   0   7  359.76   27.65
  -7   0  -7  416.41   28.80
  -7   0  -8  227.50   24.40
   7   0   8  185.63   20.07
   7   0   8  208.10   22.48
  -7  -1  14  454.00   32.30
  -7  -1  14  528.28   39.45
   7   1 -14  516.55   34.67
  -7  -1  13  150.57   18.58
  -7  -1  13  197.82   22.15
   7   1 -13  173.30   20.58
   7   1 -13  159.41   15.92
  -7  -1  12  202.57   20.96
  -7  -1  12  229.16   21.77
   7   1 -12  211.88   22.77
   7   1 -12  236.38   21.37
  -7  -1  11  993.40   44.99
  -7  -1  11 1010.65   42.36
   7   1 -11  913.80   46.16
  -7  -1  11  969.76   41.19
   7   1 -11 1079.07   47.52
  -7  -1  10  696.26   34.58
  -7  -1  10  702.24   31.87
   7   1 -10  600.31   35.41
  -7  -1  10  689.19   35.52
   7   1 -10  700.31   39.43
   7   1  -9    0.56    5.24
  -7  -1   9    1.91    3.01
   7   1  -9    6.00    4.58
  -7  -1   9    3.33    4.81
  -7  -1   9    4.08    1.96
  -7  -1   8  993.47   27.23
  -7  -1   8  959.16   32.75
   7   1  -8  966.25   38.52
  -7  -1   8 1047.95   47.35
   7   1  -8  960.07   44.80
  -7  -1   8  959.39   27.06
  -7  -1   7 1891.70   44.38
   7   1  -7 1951.28   40.86
   7   1  -7 2005.68   50.90
  -7  -1   7 2082.87   71.30
   7   1  -7 1991.48   61.75
  -7  -1   7 1975.90   38.97
  -7  -1   7 2012.59   41.69
  -7  -1   6 1463.98   36.93
   7   1  -6 1480.80   34.77
   7   1  -6 1529.20   38.66
  -7  -1   6 1524.44   64.26
   7   1  -6 1562.80   50.92
  -7  -1   6 1524.67   33.09
  -7  -1   6 1526.41   37.24
  -7  -1   5  272.79   14.18
   7   1  -5  270.70   14.00
   7   1  -5  274.98   14.10
  -7  -1   5  265.29   27.57
   7   1  -5  272.25   19.58
  -7  -1   5  266.88   13.16
  -7  -1   5  283.66   16.37
  -7  -1   4 2571.11   47.19
   7   1  -4 2579.09   47.18
   7   1  -4 2588.92   42.26
   7   1  -4 2646.11   58.10
  -7  -1   4 2729.67   56.71
  -7  -1   3 1972.60   41.04
   7   1  -3 1987.59   40.74
   7   1  -3 1966.57   32.78
  -7  -1   3 1941.92   79.70
   7   1  -3 1926.15   46.10
  -7  -1   3 2039.06   51.00
  -7  -1   2   97.78    8.82
   7   1  -2  117.85    9.54
  -7  -1   2  109.09   19.22
  -7  -1   2  107.93    6.50
   7   1  -2  100.61    9.64
  -7  -1   2  113.49   12.81
  -7  -1   1 1198.55   33.34
   7   1  -1 1182.44   31.96
  -7  -1   1 1201.37   56.78
   7   1  -1 1164.10   31.34
  -7  -1   1 1173.23   42.78
  -7  -1   0 2091.52   47.32
   7   1   0 2106.38   45.24
  -7  -1   0 2028.62   68.57
   7   1   0 2161.87   42.49
  -7  -1   0 1969.45   60.40
  -7  -1  -1  185.06   14.30
   7   1   1  191.11   13.58
  -7  -1  -1  181.11   18.97
   7   1   1  216.33   12.07
  -7  -1  -1  212.03   20.07
  -7  -1  -2  387.03   22.50
   7   1   2  350.71   19.04
  -7  -1  -2  334.83   23.95
  -7  -1  -2  352.79   27.03
  -7  -1  -3  806.73   35.61
   7   1   3  824.98   31.12
  -7  -1  -3  761.20   34.75
  -7  -1  -3  871.95   29.43
  -7  -1  -3  861.36   44.14
  -7  -1  -4  388.21   26.61
   7   1   4  385.51   22.52
  -7  -1  -4  409.41   30.65
  -7  -1  -5    0.79    4.02
  -7  -1  -5    3.22    4.51
   7   1   5    0.84    4.91
  -7  -1  -6  521.10   36.38
   7   1   6  500.87   30.41
   7   1   6  507.48   29.83
  -7  -1  -6  534.50   33.17
  -7  -1  -7  273.83   26.87
   7   1   7  261.54   23.37
   7   1   7  276.59   23.68
  -7  -1  -7  327.70   24.95
   7   1   8   -3.84    6.36
   7   1   8  -10.56    9.00
  -7  -2  15  644.73   39.60
  -7  -2  14  242.37   24.75
  -7  -2  14  307.72   28.70
   7   2 -14  293.82   27.67
  -7  -2  13  113.07   16.87
  -7  -2  13   78.16   14.78
   7   2 -13   89.77   15.40
   7   2 -13   82.76   12.14
  -7  -2  12  830.32   44.74
  -7  -2  12  860.74   41.02
   7   2 -12  779.66   43.85
   7   2 -12  894.18   42.07
  -7  -2  11 1076.69   48.12
  -7  -2  11  974.34   39.93
   7   2 -11  944.87   45.48
  -7  -2  11  984.26   43.17
   7   2 -11  951.76   46.71
  -7  -2  11  949.73   33.98
  -7  -2  10  112.16   14.23
  -7  -2  10  101.23   12.14
   7   2 -10   93.33   14.22
   7   2 -10   99.97   13.70
  -7  -2  10  109.42   15.30
  -7  -2  10  102.44   10.34
  -7  -2   9  384.70   24.00
  -7  -2   9  365.81   20.68
   7   2  -9  353.47   17.45
   7   2  -9  350.14   23.84
  -7  -2   9  423.92   30.84
   7   2  -9  360.39   27.76
  -7  -2   9  360.97   17.87
  -7  -2   8 1820.86   44.77
   7   2  -8 1714.73   38.91
   7   2  -8 1762.16   49.12
  -7  -2   8 1937.52   70.58
   7   2  -8 1749.42   59.63
  -7  -2   8 1746.25   39.59
  -7  -2   8 1874.18   39.01
  -7  -2   7 1175.23   34.16
   7   2  -7 1174.59   30.95
   7   2  -7 1159.26   35.26
   7   2  -7 1216.96   47.20
  -7  -2   7 1188.78   31.20
  -7  -2   7 1293.95   33.01
  -7  -2   6    5.41    3.00
   7   2  -6    1.61    4.29
   7   2  -6    8.86    3.19
  -7  -2   6    9.44    6.70
   7   2  -6    3.13    2.06
  -7  -2   6   -0.42    5.22
  -7  -2   6    7.59    2.63
  -7  -2   5 1274.24   33.33
   7   2  -5 1233.00   31.53
   7   2  -5 1305.92   30.72
  -7  -2   5 1307.61   67.47
   7   2  -5 1350.75   42.61
  -7  -2   5 1325.04   32.49
  -7  -2   5 1340.49   37.71
  -7  -2   4 2272.28   45.71
   7   2  -4 2240.08   44.13
  -7  -2   4 2287.54   93.08
   7   2  -4 2316.86   53.43
  -7  -2   4 2373.55   45.41
  -7  -2   4 2242.21   53.27
  -7  -2   3  508.27   20.53
   7   2  -3  535.93   20.79
  -7  -2   3  548.86   44.76
   7   2  -3  524.14   23.03
  -7  -2   3  535.49   26.39
  -7  -2   2  132.95   10.74
   7   2  -2  128.78   10.48
  -7  -2   2  134.52   21.25
   7   2  -2  136.01   11.37
  -7  -2   2  143.17   14.31
  -7  -2   1 1378.65   36.82
   7   2  -1 1467.68   37.22
  -7  -2   1 1447.39   63.42
   7   2  -1 1410.94   35.60
  -7  -2   1 1455.55   50.82
  -7  -2   0 1232.55   36.21
   7   2   0 1315.29   36.68
  -7  -2   0 1283.57   54.16
   7   2   0 1340.87   33.45
  -7  -2   0 1348.32   51.60
  -7  -2  -1    7.90    6.21
  -7  -2  -1   10.37    3.99
   7   2   1   10.18    3.25
  -7  -2  -1   21.67    7.25
   7   2   1    5.06    2.81
  -7  -2  -2  663.31   29.30
   7   2   2  688.92   28.60
  -7  -2  -2  698.61   34.24
  -7  -2  -2  685.34   39.93
  -7  -2  -3 1127.89   41.62
   7   2   3 1118.13   39.19
  -7  -2  -3 1134.07   53.46
  -7  -2  -4   54.08   11.51
  -7  -2  -4   50.87    9.49
   7   2   4   49.79    8.74
  -7  -2  -5  514.15   33.21
   7   2   5  561.22   31.90
  -7  -2  -5  544.33   34.23
  -7  -2  -6  735.82   43.01
   7   2   6  728.13   39.37
   7   2   6  743.29   35.26
  -7  -2  -6  776.59   39.60
  -7  -2  -7   76.83   14.54
   7   2   7   71.38   13.39
  -7  -2  -7   83.01   12.80
  -7  -3  15  512.82   38.27
  -7  -3  14   81.58   14.44
  -7  -3  14   68.21   13.48
   7   3 -14   72.49   13.73
  -7  -3  13  292.41   28.91
  -7  -3  13  376.94   28.51
   7   3 -13  296.11   27.78
   7   3 -13  315.77   24.42
  -7  -3  12 1243.70   57.23
  -7  -3  12 1234.19   46.98
   7   3 -12 1104.88   51.29
   7   3 -12 1176.07   50.70
  -7  -3  12 1225.06   44.02
  -7  -3  11  662.65   38.52
  -7  -3  11  552.53   29.12
   7   3 -11  562.65   33.90
  -7  -3  11  575.06   35.71
   7   3 -11  544.75   34.32
  -7  -3  11  542.84   26.30
  -7  -3  10   93.38   13.22
  -7  -3  10   70.18    9.78
   7   3 -10   88.84   13.10
  -7  -3  10   80.93   14.91
   7   3 -10   84.95   13.86
  -7  -3  10   72.97    9.00
  -7  -3   9 1780.70   53.06
  -7  -3   9 1755.13   46.36
   7   3  -9 1820.25   41.09
   7   3  -9 1811.93   52.14
  -7  -3   9 1822.21   72.70
   7   3  -9 1754.84   60.57
  -7  -3   9 1675.00   42.04
   7   3  -8 1759.73   39.39
   7   3  -8 1718.25   45.82
  -7  -3   8 1878.91   79.76
   7   3  -8 1798.43   59.11
  -7  -3   8 1707.96   41.01
   7   3  -7   74.45   11.14
   7   3  -7   59.33    6.78
   7   3  -7   64.04    8.17
  -7  -3   7   63.27   15.76
  -7  -3   7   56.97    7.24
  -7  -3   7   65.24    7.74
   7   3  -6 1117.23   30.08
   7   3  -6 1099.06   30.55
  -7  -3   6 1221.84   72.48
  -7  -3   6 1237.83   50.09
   7   3  -6 1038.94   39.34
  -7  -3   6 1061.39   30.61
  -7  -3   6 1171.59   34.89
  -7  -3   5 1470.29   37.52
   7   3  -5 1537.19   36.30
  -7  -3   5 1631.45   88.52
   7   3  -5 1555.26   45.82
  -7  -3   5 1555.19   37.49
  -7  -3   5 1598.70   43.89
  -7  -3   4  317.48   16.68
   7   3  -4  337.23   16.52
  -7  -3   4  417.51   44.62
  -7  -3   4  383.53   28.62
   7   3  -4  357.74   20.02
  -7  -3   4  337.01   16.80
  -7  -3   4  320.22   21.27
  -7  -3   3   13.77    4.55
  -7  -3   3   11.29    3.43
   7   3  -3   19.42    5.18
  -7  -3   3   25.15   12.12
   7   3  -3   13.91    3.67
  -7  -3   3   13.47    6.37
  -7  -3   2  966.43   30.30
   7   3  -2  949.40   30.32
  -7  -3   2  987.94   60.90
  -7  -3   2 1008.05   47.70
   7   3  -2  990.83   31.20
  -7  -3   2  966.82   41.83
  -7  -3   1 1079.56   33.03
   7   3  -1 1066.53   33.45
  -7  -3   1 1156.58   60.11
   7   3  -1 1149.88   32.89
  -7  -3   1 1145.26   49.09
  -7  -3   0   67.12   13.42
  -7  -3   0   50.05    7.50
   7   3   0   60.92    8.41
  -7  -3   0   70.13   13.71
   7   3   0   64.93    7.65
  -7  -3  -1  340.24   19.87
   7   3   1  328.05   20.07
  -7  -3  -1  335.04   26.02
   7   3   1  358.51   16.97
  -7  -3  -1  371.47   30.71
  -7  -3  -2  654.56   29.62
  -7  -3  -2  661.31   33.78
   7   3   2  664.29   30.08
  -7  -3  -2  713.41   43.87
  -7  -3  -3  112.16   13.21
   7   3   3   92.89   11.71
  -7  -3  -4  114.16   14.16
   7   3   4  113.17   14.47
  -7  -3  -4  120.85   16.45
  -7  -3  -5  761.14   40.09
   7   3   5  775.93   41.14
  -7  -3  -5  812.37   41.88
  -7  -3  -6  332.97   28.57
   7   3   6  328.09   28.33
  -7  -3  -6  366.69   26.82
  -7  -3  -7   22.63    7.19
  -7  -4  14   41.79   10.69
  -7  -4  14   49.74   12.74
   7   4 -14   21.39    7.68
  -7  -4  13  771.68   47.77
  -7  -4  13  894.14   41.67
   7   4 -13  758.32   43.96
   7   4 -13  790.20   40.65
  -7  -4  13  837.43   40.14
  -7  -4  12 1121.00   55.28
  -7  -4  12 1073.39   42.71
   7   4 -12 1094.49   49.65
  -7  -4  12 1099.83   53.09
   7   4 -12 1072.43   49.68
  -7  -4  12 1076.02   41.75
  -7  -4  11  217.86   22.45
  -7  -4  11  210.60   17.30
   7   4 -11  196.34   19.87
  -7  -4  11  145.06   21.01
   7   4 -11  189.51   20.63
  -7  -4  11  191.05   16.02
  -7  -4  10  580.87   33.00
   7   4 -10  569.76   30.73
  -7  -4  10  580.97   43.02
   7   4 -10  560.89   35.12
  -7  -4  10  569.75   25.96
  -7  -4   9 1790.47   53.02
   7   4  -9 1856.82   51.12
  -7  -4   9 1777.90   82.41
   7   4  -9 1806.11   62.26
  -7  -4   9 1711.89   44.55
   7   4  -8  522.77   20.92
  -7  -4   8  555.28   49.69
   7   4  -8  518.22   31.00
  -7  -4   8  490.64   22.20
   7   4  -7  228.22   13.79
  -7  -4   7  259.61   36.10
  -7  -4   7  257.43   23.05
   7   4  -7  239.92   20.28
  -7  -4   7  224.55   14.66
  -7  -4   7  241.85   15.86
   7   4  -6 1213.87   33.01
  -7  -4   6 1525.97   97.83
  -7  -4   6 1433.74   55.91
   7   4  -6 1309.78   44.38
  -7  -4   6 1235.46   35.10
  -7  -4   6 1344.32   40.00
  -7  -4   5 1298.51   36.25
   7   4  -5 1326.65   35.11
  -7  -4   5 1550.48  102.74
  -7  -4   5 1473.26   56.83
   7   4  -5 1275.18   41.46
  -7  -4   5 1306.52   35.92
  -7  -4   5 1317.48   42.85
  -7  -4   4   39.42    8.18
  -7  -4   4   22.84    4.70
   7   4  -4   30.81    6.62
  -7  -4   4   47.63   21.37
   7   4  -4   32.74    5.90
  -7  -4   4   23.89    7.11
  -7  -4   4   21.49    4.29
  -7  -4   3  802.31   28.00
   7   4  -3  833.99   28.88
  -7  -4   3  955.62   74.91
  -7  -4   3  838.63   42.98
   7   4  -3  857.55   30.77
  -7  -4   3  872.39   41.41
  -7  -4   2 1131.86   34.31
   7   4  -2 1210.98   36.18
  -7  -4   2 1290.96   78.06
  -7  -4   2 1150.96   50.59
   7   4  -2 1225.52   36.17
  -7  -4   2 1271.35   53.17
  -7  -4   1   75.67    8.90
   7   4  -1   72.97    8.98
  -7  -4   1   73.51   16.94
  -7  -4   1   81.45   13.59
   7   4  -1   75.81    8.83
  -7  -4   1   90.11   15.82
  -7  -4   0  440.45   22.27
  -7  -4   0  462.62   36.30
   7   4   0  416.47   23.21
  -7  -4   0  428.67   35.80
   7   4   0  429.02   20.24
   7   4   1  717.04   25.81
  -7  -4  -1  683.33   29.16
  -7  -4  -1  678.86   39.50
   7   4   1  696.18   31.71
  -7  -4  -1  749.59   48.16
  -7  -4  -2  156.97   14.46
   7   4   2  175.81   17.09
  -7  -4  -2  170.64   22.53
  -7  -4  -3   25.57    7.23
  -7  -4  -3   41.47    8.07
   7   4   3   40.98    8.69
  -7  -4  -4  438.70   28.16
   7   4   4  460.49   31.91
  -7  -4  -4  453.88   33.68
  -7  -4  -5  261.19   23.22
   7   4   5  250.93   25.15
  -7  -4  -5  286.37   25.05
  -7  -4  -6   -5.78    5.54
  -7  -5  14  535.17   36.07
  -7  -5  13  896.57   52.65
   7   5 -13  909.72   44.70
  -7  -5  13  878.35   42.02
  -7  -5  12  265.14   27.59
  -7  -5  12  215.72   25.38
   7   5 -12  228.45   23.13
  -7  -5  12  215.12   18.99
  -7  -5  11  118.44   16.60
   7   5 -11   91.58   14.66
  -7  -5  11   85.05   18.12
  -7  -5  11  103.21   12.22
  -7  -5  10  797.20   37.98
  -7  -5  10  751.24   55.75
   7   5 -10  738.19   40.64
  -7  -5  10  757.76   31.36
  -7  -5   9 1018.45   39.55
   7   5  -9  984.30   45.28
  -7  -5   9  992.54   34.63
   7   5  -8   70.35   11.89
  -7  -5   8   68.46   19.84
  -7  -5   8   48.79    7.30
  -7  -5   7  403.79   55.95
  -7  -5   7  402.31   29.41
   7   5  -7  346.64   24.37
  -7  -5   7  349.35   19.25
  -7  -5   7  351.33   21.23
   7   5  -6 1109.37   33.38
  -7  -5   6 1151.73   50.30
   7   5  -6 1017.76   39.64
  -7  -5   6 1006.38   33.13
  -7  -5   6 1093.23   39.22
  -7  -5   5  430.16   21.31
   7   5  -5  432.83   20.77
  -7  -5   5  456.23   31.90
   7   5  -5  447.25   24.87
  -7  -5   5  434.84   21.29
  -7  -5   5  514.02   28.39
  -7  -5   4  165.82   13.11
   7   5  -4  190.30   14.08
  -7  -5   4  194.30   20.72
   7   5  -4  191.25   15.53
  -7  -5   4  179.13   13.60
  -7  -5   4  195.94   19.15
  -7  -5   3 1201.94   36.32
   7   5  -3 1301.41   38.66
  -7  -5   3 1270.35   54.01
   7   5  -3 1260.10   39.45
  -7  -5   3 1295.46   56.04
  -7  -5   2  641.39   26.23
  -7  -5   2  765.36   68.10
   7   5  -2  678.20   28.78
  -7  -5   2  681.25   39.73
   7   5  -2  622.42   26.78
  -7  -5   2  678.41   44.17
  -7  -5   1   36.44   13.08
  -7  -5   1   56.59    7.92
  -7  -5   1   56.21   15.47
   7   5  -1   63.69    9.61
  -7  -5   1   56.81   11.10
   7   5  -1   58.37    8.58
   7   5   0  789.25   29.17
  -7  -5   0  764.70   30.67
  -7  -5   0  805.99   51.52
   7   5   0  748.59   34.03
  -7  -5   0  798.37   44.25
  -7  -5   0  802.80   55.33
   7   5   1  627.28   25.44
  -7  -5  -1  558.78   27.05
  -7  -5  -1  536.11   37.32
   7   5   1  595.75   32.56
  -7  -5  -1  645.30   47.94
  -7  -5  -2   -1.15    6.83
  -7  -5  -2   -4.86    4.83
   7   5   2   -5.43    6.44
  -7  -5  -3  387.85   25.19
   7   5   3  361.80   28.96
  -7  -5  -3  434.89   36.07
  -7  -5  -4  703.08   36.20
   7   5   4  651.35   41.28
  -7  -5  -4  742.81   44.63
  -7  -5  -5   94.48   14.32
  -7  -6  13  223.61   21.50
   7   6 -13  226.80   23.40
  -7  -6  12   12.42    9.87
   7   6 -12   -2.77    6.90
  -7  -6  12    3.82    5.89
  -7  -6  12    0.77    3.67
  -7  -6  11  642.38   37.43
   7   6 -11  664.01   39.82
  -7  -6  11  654.61   31.70
  -7  -6  10  846.47   39.24
   7   6 -10  824.66   43.54
  -7  -6  10  815.54   34.16
  -7  -6   9   99.32   12.32
   7   6  -9  101.75   14.90
  -7  -6   9  117.67   12.56
  -7  -6   8  179.47   19.96
   7   6  -8  164.01   18.16
  -7  -6   8  158.06   13.92
  -7  -6   7  518.93   34.05
   7   6  -7  483.53   29.35
  -7  -6   7  495.20   24.30
  -7  -6   7  478.91   25.77
  -7  -6   6  462.39   23.53
  -7  -6   6  490.21   32.88
   7   6  -6  468.61   27.40
  -7  -6   6  506.40   24.25
  -7  -6   6  435.07   27.41
  -7  -6   5    8.55    5.86
  -7  -6   5    3.12    2.78
   7   6  -5    4.08    4.26
   7   6  -5    3.57    3.36
  -7  -6   5   -1.04    5.63
  -7  -6   5    2.33    3.49
  -7  -6   4  457.94   22.62
   7   6  -4  516.62   25.56
  -7  -6   4  486.23   33.94
  -7  -6   4  496.49   23.97
   7   6  -4  477.21   25.76
  -7  -6   4  475.97   35.27
  -7  -6   3  538.48   24.90
   7   6  -3  554.88   27.61
  -7  -6   3  508.41   34.93
  -7  -6   3  453.90   40.71
   7   6  -3  540.57   26.70
  -7  -6   2    7.05    9.60
  -7  -6   2    6.44    3.51
   7   6  -2    8.46    3.90
  -7  -6   2    0.62   10.90
   7   6  -2   18.15    4.30
  -7  -6   2   11.36    5.73
   7   6  -1  210.75   16.54
  -7  -6   1  230.55   16.73
  -7  -6   1  230.30   36.15
   7   6  -1  220.02   19.21
  -7  -6   1  226.86   24.19
  -7  -6   1  205.03   31.25
   7   6   0  896.56   33.10
  -7  -6   0  870.27   34.04
  -7  -6   0  745.91   55.24
   7   6   0  867.78   41.12
  -7  -6   0  834.62   46.42
  -7  -6   0  914.48   64.44
  -7  -6  -1  292.95   20.39
  -7  -6  -1  277.59   28.71
   7   6   1  285.58   25.17
  -7  -6  -1  235.94   32.39
  -7  -6  -2   91.95   20.34
  -7  -6  -2   94.44   12.22
   7   6   2   91.25   14.95
  -7  -6  -3  800.36   37.49
   7   6   3  729.36   45.16
  -7  -6  -3  876.31   52.59
   7   7 -13   88.24   15.58
  -7  -7  12  247.01   25.81
  -7  -7  12  209.71   19.75
   7   7 -12  194.42   22.32
  -7  -7  11  748.26   40.25
  -7  -7  11  698.13   33.94
   7   7 -11  725.60   42.71
  -7  -7  10  356.41   25.59
  -7  -7  10  356.35   23.25
   7   7 -10  344.24   28.71
  -7  -7   9   83.25   10.82
   7   7  -9   95.36   15.64
  -7  -7   8  769.25   42.29
  -7  -7   8  713.52   31.23
   7   7  -8  694.08   37.72
  -7  -7   7  404.33   30.67
  -7  -7   7  393.60   22.74
   7   7  -7  429.17   28.23
  -7  -7   6    6.06    7.14
  -7  -7   6   33.24    6.82
   7   7  -6   25.11    7.06
  -7  -7   6   25.98    8.11
  -7  -7   6   18.50    5.56
  -7  -7   5  453.82   23.76
  -7  -7   5  461.88   32.85
  -7  -7   5  489.28   24.72
   7   7  -5  462.50   27.59
  -7  -7   4  370.18   21.09
   7   7  -4  386.86   25.05
  -7  -7   4  326.26   28.69
  -7  -7   4  360.10   21.28
  -7  -7   4  344.38   34.03
   7   7  -4  368.85   23.78
  -7  -7   3   19.66   13.68
  -7  -7   3   41.11    7.42
   7   7  -3   33.62    7.38
   7   7  -3   33.23    7.31
  -7  -7   3   52.57   12.01
   7   7  -2  159.51   15.73
  -7  -7   2  174.17   14.84
   7   7  -2  172.90   18.52
  -7  -7   2  161.02   20.18
  -7  -7   2  138.03   27.76
  -7  -7   1  552.79   27.23
   7   7  -1  565.57   27.86
   7   7  -1  540.65   34.63
  -7  -7   1  570.88   38.94
  -7  -7   1  602.28   55.29
  -7  -7   0  323.05   21.32
  -7  -7   0  266.13   36.54
   7   7   0  265.99   25.28
  -7  -7   0  307.33   29.23
  -7  -7   0  213.93   36.99
  -7  -7  -1   12.80   11.23
  -7  -7  -1    3.67    4.56
   7   7   1    3.37    6.59
  -7  -7  -1    7.04    5.20
  -7  -7  -2  394.68   25.62
   7   7   2  337.27   31.59
  -7  -7  -2  339.62   37.23
  -7  -8  11  616.76   36.19
  -7  -8  11  567.32   31.36
   7   8 -11  528.06   37.67
  -7  -8  10   33.04    8.17
   7   8 -10   33.14   10.45
  -7  -8  10   22.39    6.52
  -7  -8   9  247.04   19.68
   7   8  -9  241.18   24.22
  -7  -8   8  490.98   34.44
  -7  -8   8  490.23   27.02
   7   8  -8  452.31   31.90
  -7  -8   7  237.33   18.64
  -7  -8   7  242.23   24.17
  -7  -8   7  248.81   19.03
   7   8  -7  251.17   22.78
   7   8  -6  179.53   18.49
  -7  -8   6  172.89   15.38
  -7  -8   6  170.73   20.18
  -7  -8   6  197.85   16.77
   7   8  -5  814.51   37.75
  -7  -8   5  799.24   32.89
  -7  -8   5  697.02   41.37
  -7  -8   5  814.85   33.63
   7   8  -4  353.80   24.28
  -7  -8   4  356.65   21.43
  -7  -8   4  317.97   28.55
  -7  -8   3   56.26   19.04
  -7  -8   3   79.33   10.59
   7   8  -3   97.46   13.11
  -7  -8   3   65.96   13.49
  -7  -8   2  466.35   25.27
   7   8  -2  465.78   27.22
   7   8  -2  483.77   35.16
  -7  -8   2  449.04   34.92
  -7  -8   1  509.85   27.25
   7   8  -1  446.50   35.21
  -7  -8   1  473.40   37.05
  -7  -8   1  427.35   51.81
  -7  -8   0   15.26   13.79
  -7  -8   0    4.47    4.14
  -7  -8   0    5.52    8.90
   7   8   0    4.70    7.68
  -7  -8   0   22.82    9.05
   7   8   1  383.03   35.09
   7   9  -8  223.71   23.33
  -7  -9   8  229.92   24.52
  -7  -9   8  258.53   20.76
  -7  -9   7    6.05    3.81
   7   9  -7   14.86    6.52
  -7  -9   7   17.31    6.14
  -7  -9   7   21.43    6.81
  -7  -9   6  573.47   29.29
   7   9  -6  538.53   33.63
  -7  -9   6  475.45   34.59
  -7  -9   6  570.90   29.70
  -7  -9   5  501.56   26.69
   7   9  -5  454.55   29.50
  -7  -9   5  501.54   27.45
  -7  -9   4   62.93    9.54
   7   9  -4   68.84   12.05
  -7  -9   4   54.10   12.39
  -7  -9   3  238.23   18.55
  -7  -9   3  220.24   24.85
  -7  -9   3  236.46   38.35
  -7  -9   2  854.48   35.71
  -7  -9   2  789.88   72.15
   7   9  -1  200.93   27.59
  -7 -10   5   56.75   21.26
   8 -10  -5  394.84   32.55
   8 -10  -4   88.94   15.46
   8 -10  -3   91.14   21.37
   8 -10  -3   57.11   13.01
  -8  10   3   64.03   17.36
  -8  10   3   54.55   10.07
   8 -10  -2  473.15   48.28
  -8  10   2  567.95   30.43
  -8  10   2  526.87   53.92
   8 -10  -1  389.36   41.75
  -8  10   1  434.27   50.57
   8 -10   0   -0.94    7.27
  -8  10   0   11.46   10.07
  -8  10  -1  687.75   62.88
   8 -10   2  825.15   35.65
   8 -10   3   83.13   12.00
  -8   9   8   36.16    9.40
   8  -9  -7  150.52   19.87
  -8   9   7  139.30   18.70
  -8   9   6  419.51   34.39
   8  -9  -6  411.12   32.54
   8  -9  -6  512.64   40.15
  -8   9   6  469.75   28.11
  -8   9   5  134.93   21.56
   8  -9  -5  143.65   19.56
   8  -9  -5  181.14   25.76
  -8   9   5  161.00   15.95
   8  -9  -4    1.28    7.80
   8  -9  -4    5.94    6.27
  -8   9   4    2.33    3.53
  -8   9   4   11.47    7.67
  -8   9   3  312.83   38.62
   8  -9  -3  255.63   26.38
   8  -9  -3  342.37   40.15
  -8   9   3  313.99   21.51
  -8   9   2  422.86   48.22
   8  -9  -2  403.34   41.94
  -8   9   2  442.27   25.24
   8  -9  -1   43.13   12.13
  -8   9   1   34.84   15.47
  -8   9   0  256.04   37.22
   8  -9   0  208.53   25.85
  -8   9  -1 1087.29   76.49
  -8   9  -2  301.75   36.79
   8  -9   2  268.35   19.98
   8  -9   3   14.13    5.91
  -8   9  -3   34.58   12.86
  -8   9  -4  430.04   37.92
   8  -9   4  397.39   28.27
   8  -9   4  352.25   35.61
  -8   8   9  470.43   37.33
   8  -8  -8   29.93    8.79
   8  -8  -8   33.03    9.78
  -8   8   8   36.83    9.45
   8  -8  -7  400.95   31.40
  -8   8   7  391.80   30.92
  -8   8   7  432.88   27.33
   8  -8  -6  610.36   39.22
  -8   8   6  602.86   41.42
  -8   8   6  646.53   31.77
  -8   8   5   49.46   13.38
   8  -8  -5   46.14   12.91
   8  -8  -5   51.03   12.01
  -8   8   5   44.13    8.44
  -8   8   4  411.01   40.56
   8  -8  -4  444.74   34.55
   8  -8  -4  540.39   48.53
  -8   8   4  435.85   24.96
  -8   8   3 1246.31   76.43
   8  -8  -3 1104.34   56.24
   8  -8  -3 1023.35   66.27
  -8   8   3 1103.81   38.79
   8  -8  -2  147.68   24.07
  -8   8   2  176.92   15.06
   8  -8  -1   99.24   17.90
  -8   8   1  106.58   11.77
  -8   8   1  123.98   26.01
  -8   8   0  967.53   71.24
   8  -8   0  886.24   29.14
   8  -8   0  788.42   45.12
  -8   8  -1  437.24   46.20
   8  -8   1  389.30   22.33
   8  -8   1  376.71   33.58
   8  -8   2   -0.65    7.58
  -8   8  -2   12.23    9.95
   8  -8   2    7.85    4.28
  -8   8  -3  265.65   29.92
   8  -8   3  225.06   19.62
   8  -8   3  194.36   25.06
  -8   8  -4  594.50   42.12
   8  -8   4  543.85   33.90
  -8   8  -4  588.55   31.98
   8  -8   5  333.08   29.19
   8  -8   5  285.93   30.47
  -8   7  10  460.34   37.96
   8  -7  -9   59.85   11.57
  -8   7   9   65.95   14.61
   8  -7  -9   59.83   12.24
  -8   7   8  260.57   24.29
   8  -7  -8  208.39   22.19
   8  -7  -8  251.07   24.66
  -8   7   8  214.98   21.54
  -8   7   7  858.32   38.11
   8  -7  -7  769.46   43.32
  -8   7   7  722.62   41.75
   8  -7  -6  441.68   33.06
  -8   7   6  425.98   34.68
   8  -7  -5  154.57   20.02
   8  -7  -5  183.18   26.94
  -8   7   5  151.28   22.41
  -8   7   5  140.91   13.97
   8  -7  -4 1509.95   64.64
  -8   7   4 1557.11   78.22
   8  -7  -4 1612.84   79.99
  -8   7   4 1423.56   43.48
   8  -7  -3 1264.56   60.48
  -8   7   3 1269.85   75.52
  -8   7   3 1170.88   38.25
   8  -7  -2    5.41    6.76
  -8   7   2   11.24    7.83
  -8   7   2    0.13    3.43
   8  -7  -1  735.60   26.19
  -8   7   1  805.06   62.90
  -8   7   1  723.01   29.07
   8  -7   0 1756.01   40.74
   8  -7   0 1592.37   58.31
   8  -7   0 1632.61   43.59
   8  -7   0 1622.21   58.59
  -8   7  -1  190.69   21.75
   8  -7   1  212.96   13.46
  -8   7  -1  208.40   30.16
   8  -7   1  204.50   16.03
   8  -7   1  210.12   21.33
  -8   7  -2  167.29   21.44
  -8   7  -2  171.87   24.38
   8  -7   2  134.14   17.78
  -8   7  -3  928.63   51.03
  -8   7  -3  875.00   51.47
   8  -7   3  831.37   46.72
  -8   7  -4  609.73   41.75
  -8   7  -4  618.33   40.76
  -8   7  -4  534.45   29.99
   8  -7   4  544.55   39.50
  -8   7  -5   10.19    7.39
   8  -7   5   -2.95    7.73
  -8   7  -5   11.60    6.15
  -8   6  11  342.78   33.10
   8  -6 -11  364.99   26.15
  -8   6  10  201.77   24.77
   8  -6 -10  171.22   19.74
   8  -6 -10  142.38   17.12
  -8   6   9  269.42   25.95
   8  -6  -9  215.35   22.58
   8  -6  -9  235.09   22.61
  -8   6   8  702.07   36.53
   8  -6  -8  588.28   37.09
   8  -6  -8  664.65   40.77
  -8   6   7  506.82   27.66
   8  -6  -7  466.81   33.50
   8  -6  -7  570.53   40.41
  -8   6   7  458.66   32.78
   8  -6  -6    2.48    7.83
  -8   6   6    0.40    3.42
   8  -6  -6    3.30    4.54
  -8   6   6   -3.96    7.88
  -8   6   6   13.63    6.99
  -8   6   5  729.40   27.66
   8  -6  -5  750.04   45.70
   8  -6  -5  816.09   54.09
  -8   6   5  753.66   50.73
  -8   6   5  757.70   49.84
   8  -6  -4 1462.74   65.74
   8  -6  -4 1343.18   69.07
  -8   6   4 1427.34   74.57
  -8   6   4 1498.50   74.65
  -8   6   4 1397.21   41.11
   8  -6  -3  314.95   31.36
  -8   6   3  343.78   38.20
  -8   6   3  263.16   32.21
  -8   6   3  319.93   18.91
  -8   6   2  148.74   16.18
   8  -6  -2  166.65   21.24
  -8   6   2  166.18   27.34
  -8   6   2  167.27   27.54
  -8   6   2  174.54   13.62
  -8   6   1 1768.70   58.07
   8  -6  -1 1790.77   41.05
   8  -6  -1 1712.61   61.23
  -8   6   1 2055.96   98.99
  -8   6   1 2035.13  101.06
  -8   6   1 1800.83   44.51
  -8   6   0 1475.13   54.86
   8  -6   0 1453.03   35.89
   8  -6   0 1374.05   48.90
  -8   6   0 1497.68   39.84
  -8   6  -1    5.00    5.45
  -8   6  -1   10.67    8.71
   8  -6   1   -0.74    3.12
  -8   6  -2  845.07   44.87
   8  -6   2  800.71   26.75
  -8   6  -2  896.99   52.05
   8  -6   2  801.89   40.32
  -8   6  -3 1399.77   59.83
  -8   6  -3 1391.85   46.30
   8  -6   3 1343.77   55.44
  -8   6  -3 1383.14   61.33
  -8   6  -4  237.15   25.30
  -8   6  -4  224.62   19.19
   8  -6   4  211.30   23.01
  -8   6  -5  293.44   28.06
  -8   6  -5  272.13   22.10
   8  -6   5  272.67   27.91
  -8   6  -6  879.30   42.55
   8  -6   6  778.43   49.20
   8  -5 -12  677.33   35.23
  -8   5  11  494.53   38.78
   8  -5 -11  418.95   29.83
   8  -5 -11  466.95   29.53
   8  -5 -10   12.86    5.43
  -8   5  10   33.42   11.21
   8  -5 -10   30.38    9.05
  -8   5   9  982.25   45.96
   8  -5  -9  882.44   44.83
   8  -5  -9  917.90   46.12
  -8   5   9  826.37   42.82
  -8   5   8  640.12   33.01
   8  -5  -8  698.45   40.76
   8  -5  -8  673.28   41.22
  -8   5   8  612.70   38.10
  -8   5   7   59.41    9.65
   8  -5  -7   53.19   11.89
   8  -5  -7   82.94   14.70
  -8   5   7   41.10   11.07
  -8   5   6  646.05   27.24
   8  -5  -6  679.05   43.25
   8  -5  -6  706.97   48.29
  -8   5   6  682.22   44.51
  -8   5   6  627.55   41.82
  -8   5   5 1403.81   38.45
   8  -5  -5 1491.06   67.27
   8  -5  -5 1421.27   67.95
  -8   5   5 1469.62   69.33
  -8   5   5 1408.59   68.38
  -8   5   4  601.00   29.67
  -8   5   4  703.82   25.11
   8  -5  -4  659.46   46.66
   8  -5  -4  667.58   44.90
  -8   5   4  664.71   48.12
  -8   5   4  652.70   26.55
  -8   5   4  740.39   52.76
  -8   5   3   28.85    6.75
   8  -5  -3   38.85   10.74
  -8   5   3   39.91    5.86
  -8   5   3   50.41   15.26
  -8   5   3   27.76   11.11
  -8   5   3   41.08    6.54
  -8   5   2  859.90   36.94
   8  -5  -2  882.71   27.92
   8  -5  -2  900.33   43.48
  -8   5   2  818.49   57.94
  -8   5   2  931.72   29.95
  -8   5   2  990.56   65.20
  -8   5   1 1654.56   53.50
   8  -5  -1 1597.34   37.86
   8  -5  -1 1632.82   53.51
  -8   5   1 1925.98   94.22
  -8   5   1 1705.45   40.66
  -8   5   1 1888.40   88.47
  -8   5   0  152.23   16.59
   8  -5   0  131.46   10.05
   8  -5   0  134.24   13.71
  -8   5   0  121.63   22.39
  -8   5   0  147.43   11.53
  -8   5   0  162.47   24.30
  -8   5  -1  220.45   20.97
   8  -5   1  199.45   12.63
  -8   5  -1  217.97   26.98
  -8   5  -1  241.55   27.78
  -8   5  -2 1225.25   52.05
   8  -5   2 1160.80   32.36
  -8   5  -2 1087.43   56.42
  -8   5  -3  828.00   44.66
   8  -5   3  831.78   28.12
  -8   5  -3  745.61   32.89
   8  -5   3  811.87   40.48
  -8   5  -4    2.35    5.05
   8  -5   4   11.50    6.36
   8  -5   4   -1.73    4.03
  -8   5  -4    3.17    3.23
  -8   5  -5  767.52   44.59
  -8   5  -5  672.99   34.33
   8  -5   5  717.65   42.81
  -8   5  -6  531.66   37.25
  -8   5  -6  461.72   30.54
   8  -5   6  446.14   36.17
  -8   5  -7   29.84    8.34
   8  -4 -13  380.73   25.59
  -8   4  12  809.39   50.83
   8  -4 -12  817.75   40.57
   8  -4 -12  776.24   37.44
  -8   4  11  133.07   20.31
   8  -4 -11   93.98   14.17
   8  -4 -11   87.78   13.14
  -8   4  10  684.15   40.42
   8  -4 -10  624.31   37.10
   8  -4 -10  643.31   36.82
  -8   4   9 1419.73   52.41
   8  -4  -9 1455.66   58.75
   8  -4  -9 1452.37   58.86
  -8   4   9 1311.81   53.14
  -8   4   8  766.93   34.19
   8  -4  -8  846.44   46.16
   8  -4  -8  893.54   48.77
  -8   4   8  789.07   42.91
  -8   4   7   77.75   10.55
   8  -4  -7   77.93   15.60
   8  -4  -7   69.38   14.20
  -8   4   7   85.07   15.39
  -8   4   6 1621.50   47.08
  -8   4   6 1639.15   43.59
   8  -4  -6 1867.91   76.33
   8  -4  -6 1836.11   74.57
  -8   4   6 1864.84   73.63
  -8   4   5 1604.46   46.98
  -8   4   5 1683.49   41.87
   8  -4  -5 1614.27   69.73
   8  -4  -5 1557.88   66.96
  -8   4   5 1786.96   75.81
  -8   4   4   24.23    5.83
   8  -4  -4   39.24   10.42
  -8   4   4   28.74    5.25
   8  -4  -4   29.31    9.53
  -8   4   4   23.87   11.21
  -8   4   3 1179.03   40.48
  -8   4   3 1161.39   30.31
   8  -4  -3 1251.79   50.98
  -8   4   3 1145.75   64.92
  -8   4   3 1205.28   33.59
  -8   4   2 1844.78   53.11
   8  -4  -2 1786.72   40.50
   8  -4  -2 1823.67   56.41
  -8   4   2 1968.91   88.43
  -8   4   2 1850.21   41.32
  -8   4   1  634.88   31.75
   8  -4  -1  578.67   21.84
   8  -4  -1  606.56   28.94
  -8   4   1  587.16   21.83
  -8   4   0  118.75   14.61
   8  -4   0  105.74    8.96
   8  -4   0  127.29   12.09
  -8   4   0  109.46   18.99
  -8   4   0  110.86    9.64
  -8   4  -1  753.51   38.27
   8  -4   1  712.34   24.56
  -8   4  -1  719.67   44.88
  -8   4  -2  860.80   43.20
   8  -4   2  840.33   27.53
  -8   4  -2  780.06   44.39
  -8   4  -3   42.73   10.51
  -8   4  -3   37.41    9.64
  -8   4  -3   34.01    9.82
   8  -4   3   46.75    6.47
  -8   4  -3   36.16    7.46
  -8   4  -4  217.92   23.14
  -8   4  -4  276.21   24.15
   8  -4   4  263.70   16.44
  -8   4  -4  259.83   24.30
  -8   4  -4  249.82   19.44
   8  -4   4  302.18   25.25
  -8   4  -5  527.93   37.34
  -8   4  -5  524.36   32.89
   8  -4   5  545.19   24.54
  -8   4  -5  506.55   29.61
   8  -4   5  565.29   36.78
  -8   4  -6   92.71   16.31
   8  -4   6  104.81   17.01
  -8   4  -6   87.48   13.53
  -8   4  -6   69.66   12.08
   8  -4   6   80.35   14.49
  -8   4  -7    9.51    5.07
  -8   4  -7   13.83    7.53
   8  -4   7    2.04    5.55
   8  -3 -13  800.80   37.12
  -8   3  12  122.83   20.30
   8  -3 -12  120.01   15.68
   8  -3 -12  113.31   14.48
  -8   3  11  131.93   19.46
   8  -3 -11   98.39   14.75
   8  -3 -11  104.43   14.25
  -8   3  10 1293.10   52.75
   8  -3 -10 1270.59   54.20
   8  -3 -10 1324.05   54.27
  -8   3  10 1186.46   48.65
  -8   3   9 1108.18   43.70
   8  -3  -9 1186.02   54.40
   8  -3  -9 1250.41   56.12
  -8   3   9 1100.67   48.49
  -8   3   8  112.19   12.77
   8  -3  -8   96.04   16.80
   8  -3  -8  118.63   18.07
  -8   3   8  106.50   15.87
  -8   3   7  846.15   31.48
  -8   3   7  884.78   32.63
   8  -3  -7  933.11   50.46
   8  -3  -7  970.57   51.99
  -8   3   7  998.61   51.17
  -8   3   6 2345.29   54.45
  -8   3   6 2454.96   53.44
   8  -3  -6 2354.41   79.37
   8  -3  -6 2405.12   82.19
  -8   3   5  933.95   33.34
  -8   3   5  958.56   30.62
   8  -3  -5  923.64   45.34
   8  -3  -5  944.71   47.92
  -8   3   5  984.35   56.23
  -8   3   4  182.09   14.82
  -8   3   4  198.66   12.85
   8  -3  -4  225.05   19.77
   8  -3  -4  222.86   21.24
  -8   3   4  191.05   25.82
  -8   3   3 1867.93   50.77
   8  -3  -3 1845.85   41.35
   8  -3  -3 1849.33   57.16
  -8   3   3 1898.26   40.90
  -8   3   2 1797.54   51.77
   8  -3  -2 1765.97   40.01
   8  -3  -2 1788.35   50.98
  -8   3   2 1813.96   85.87
  -8   3   2 1764.68   38.26
  -8   3   1    7.36    4.16
   8  -3  -1    4.74    2.92
  -8   3   1   -0.09    7.42
   8  -3  -1    4.23    3.32
  -8   3   1    1.35    2.23
  -8   3   0  949.04   40.46
  -8   3   0  970.73   39.29
   8  -3   0  903.57   27.77
  -8   3   0  925.28   53.85
   8  -3   0  916.18   30.52
  -8   3   0  960.24   27.18
  -8   3  -1 1571.67   55.45
   8  -3   1 1554.20   37.80
  -8   3  -1 1537.61   63.70
  -8   3  -1 1590.92   56.01
  -8   3  -2  266.58   23.52
   8  -3   2  269.09   15.68
  -8   3  -2  274.74   25.16
  -8   3  -2  287.83   24.66
  -8   3  -3  187.26   20.26
   8  -3   3  196.52   13.92
  -8   3  -3  187.55   20.02
  -8   3  -3  178.75   15.85
  -8   3  -3  170.79   20.04
  -8   3  -4  600.58   36.68
   8  -3   4  648.98   26.52
  -8   3  -4  636.98   30.94
   8  -3   4  687.80   36.01
  -8   3  -4  649.67   39.72
  -8   3  -5  198.72   20.99
   8  -3   5  189.97   14.98
  -8   3  -5  189.60   18.08
   8  -3   5  238.48   23.19
  -8   3  -5  218.70   24.40
  -8   3  -6   11.63    6.87
   8  -3   6    5.68    5.62
  -8   3  -6   14.17    7.44
   8  -3   6   15.29    4.32
  -8   3  -6   24.35    8.62
  -8   3  -7  195.19   20.19
   8  -3   7  198.73   23.55
   8  -2 -14  586.24   31.16
  -8   2  13  380.68   35.13
   8  -2 -13  336.64   26.67
   8  -2 -13  343.37   24.42
   8  -2 -12   29.31    8.09
  -8   2  12   49.64   13.11
   8  -2 -12   31.19    8.27
  -8   2  11 1003.74   48.65
   8  -2 -11  947.95   47.14
   8  -2 -11 1016.84   46.04
  -8   2  10 1033.75   44.46
   8  -2 -10 1027.77   51.19
  -8   2  10  984.58   44.30
   8  -2 -10 1086.92   50.73
  -8   2   9  209.09   18.16
   8  -2  -9  194.08   22.75
  -8   2   9  183.14   20.24
   8  -2  -9  218.12   24.09
  -8   2   8  312.54   17.97
  -8   2   8  314.06   20.39
   8  -2  -8  314.58   27.82
  -8   2   8  319.63   27.90
   8  -2  -8  330.33   29.83
  -8   2   7 1571.60   41.80
  -8   2   7 1535.33   42.65
   8  -2  -7 1440.86   57.80
   8  -2  -7 1535.91   63.65
  -8   2   6 1299.15   38.30
  -8   2   6 1295.02   37.15
   8  -2  -6 1289.58   49.80
  -8   2   6 1429.33   65.92
   8  -2  -6 1305.58   55.46
  -8   2   5   85.69    9.87
  -8   2   5   86.06    9.05
   8  -2  -5   94.02   11.89
   8  -2  -5   96.20   14.25
  -8   2   5   92.86   17.94
  -8   2   4 1032.20   35.17
  -8   2   4 1012.18   29.24
   8  -2  -4 1032.13   30.44
   8  -2  -4 1064.00   34.42
  -8   2   4  942.24   57.98
   8  -2  -4 1009.27   42.20
  -8   2   3 1416.58   34.48
   8  -2  -3 1412.66   35.89
  -8   2   3 1454.61   74.61
   8  -2  -3 1463.69   46.38
  -8   2   3 1488.34   44.30
  -8   2   2  561.26   22.56
   8  -2  -2  564.46   21.86
  -8   2   2  626.60   49.78
   8  -2  -2  591.28   26.66
  -8   2   2  578.84   19.94
  -8   2   2  628.55   29.88
  -8   2   1  136.60   11.89
   8  -2  -1  142.76   10.76
  -8   2   1  152.33   23.33
   8  -2  -1  149.52   12.47
  -8   2   1  136.74    9.44
  -8   2   1  131.71   14.46
  -8   2   0 1244.82   40.57
   8  -2   0 1237.59   33.43
  -8   2   0 1257.31   61.04
   8  -2   0 1269.71   34.50
  -8   2   0 1340.85   30.95
  -8   2   0 1308.43   48.32
  -8   2  -1  870.98   36.88
   8  -2   1  907.52   29.03
  -8   2  -1  907.55   47.47
  -8   2  -1  906.59   42.27
  -8   2  -2   11.55    5.75
  -8   2  -2    5.52    3.70
  -8   2  -2    9.71    5.15
   8  -2   2    2.32    3.24
  -8   2  -3  810.94   42.46
   8  -2   3  829.15   29.59
  -8   2  -3  774.64   39.11
  -8   2  -3  792.11   32.74
  -8   2  -3  780.94   42.74
  -8   2  -4  815.57   43.46
   8  -2   4  847.35   31.02
  -8   2  -4  809.62   35.15
  -8   2  -4  856.04   46.25
  -8   2  -5   17.50    8.21
   8  -2   5   26.77    8.77
  -8   2  -5   20.89    7.83
   8  -2   5   19.50    5.45
  -8   2  -5   22.56    6.91
  -8   2  -6  243.26   24.37
   8  -2   6  246.28   18.85
  -8   2  -6  284.96   24.10
   8  -2   6  274.08   25.64
  -8   2  -6  265.12   26.10
  -8   2  -7  572.36   36.50
   8  -2   7  601.76   31.89
  -8   2  -7  673.71   40.83
   8  -2   7  655.96   41.41
   8  -1 -14  714.58   34.48
   8  -1 -13   22.87    6.34
  -8   1  13   36.08   11.42
   8  -1 -13   23.45    7.80
  -8   1  12  388.58   31.84
   8  -1 -12  330.12   28.39
   8  -1 -12  338.77   25.85
  -8   1  11 1350.46   53.84
   8  -1 -11 1429.44   61.70
  -8   1  11 1282.76   50.41
   8  -1 -11 1428.10   56.95
  -8   1  10  747.85   35.84
   8  -1 -10  740.16   43.34
  -8   1  10  726.52   39.66
   8  -1 -10  853.33   46.43
   8  -1  -9   38.24   10.70
  -8   1   9   36.70    8.10
   8  -1  -9   36.82   10.37
  -8   1   9   32.94    9.51
  -8   1   8 1218.80   34.43
  -8   1   8 1137.59   37.88
   8  -1  -8 1091.49   48.14
  -8   1   8 1222.95   55.85
   8  -1  -8 1207.06   55.60
  -8   1   7 1623.82   41.44
  -8   1   7 1619.55   43.44
   8  -1  -7 1617.04   54.06
  -8   1   7 1759.65   70.69
   8  -1  -7 1663.98   63.11
  -8   1   6  151.07   12.51
  -8   1   6  144.80   10.16
  -8   1   6  161.54   12.73
   8  -1  -6  152.06   14.79
  -8   1   6  160.13   22.46
   8  -1  -6  160.11   18.25
  -8   1   5  463.13   18.53
  -8   1   5  459.34   20.28
   8  -1  -5  443.85   19.82
   8  -1  -5  508.39   23.02
  -8   1   5  444.17   38.61
   8  -1  -5  486.36   29.38
  -8   1   5  430.88   22.35
  -8   1   4 1099.19   29.63
   8  -1  -4 1048.97   30.87
   8  -1  -4 1061.48   29.10
  -8   1   4  971.66   59.67
   8  -1  -4 1076.77   40.91
  -8   1   4 1103.24   36.56
  -8   1   3  636.86   23.22
   8  -1  -3  634.20   23.36
  -8   1   3  603.61   48.43
   8  -1  -3  645.55   28.86
  -8   1   3  666.91   29.38
  -8   1   2    6.45    3.26
  -8   1   2    5.85    2.55
   8  -1  -2    4.88    2.91
  -8   1   2    9.42    6.97
   8  -1  -2    0.72    2.86
  -8   1   2   10.96    2.87
  -8   1   1  380.80   19.62
   8  -1  -1  364.53   17.87
  -8   1   1  383.80   35.63
   8  -1  -1  390.01   19.02
  -8   1   1  390.68   15.03
  -8   1   1  372.53   24.29
  -8   1   0  782.38   30.54
   8  -1   0  818.98   27.35
  -8   1   0  804.89   47.34
   8  -1   0  789.55   25.97
  -8   1   0  761.09   37.00
  -8   1  -1   96.50   11.49
   8  -1   1   96.40    9.63
  -8   1  -1  100.76   15.89
  -8   1  -1  106.07   14.70
  -8   1  -2  299.50   22.44
   8  -1   2  292.31   17.47
  -8   1  -2  315.63   25.53
  -8   1  -2  312.41   26.23
  -8   1  -3  698.59   37.41
   8  -1   3  678.34   27.54
  -8   1  -3  683.55   35.79
  -8   1  -3  674.80   30.08
  -8   1  -3  634.13   39.00
  -8   1  -4  268.00   25.18
   8  -1   4  280.23   18.29
  -8   1  -4  300.94   20.66
  -8   1  -4  269.52   26.28
  -8   1  -5  109.39   16.67
   8  -1   5  116.63   12.74
  -8   1  -5  126.78   15.12
   8  -1   5  136.51   16.69
  -8   1  -5  130.17   18.49
  -8   1  -6  562.51   38.56
   8  -1   6  549.77   29.56
   8  -1   6  631.58   36.98
  -8   1  -6  548.60   36.42
  -8   1  -7  428.65   33.33
   8  -1   7  372.66   26.29
   8  -1   7  381.60   30.67
   8   0 -14  488.22   29.24
   8   0 -13    5.75    5.28
  -8   0  13    8.17    7.49
   8   0 -13   -2.51    5.86
  -8   0  12  800.64   42.90
   8   0 -12  704.24   43.06
   8   0 -12  770.29   39.94
  -8   0  11 1429.27   52.86
   8   0 -11 1409.45   60.62
  -8   0  11 1346.50   52.89
   8   0 -11 1493.62   60.37
  -8   0  10  237.38   19.40
   8   0 -10  222.49   22.84
  -8   0  10  229.70   22.54
   8   0 -10  237.86   24.53
  -8   0   9  559.87   27.59
   8   0  -9  576.20   34.47
  -8   0   9  618.56   37.89
   8   0  -9  636.92   40.27
  -8   0   8 2060.74   46.33
  -8   0   8 1929.18   49.70
   8   0  -8 2111.17   61.50
  -8   0   8 2119.97   73.92
   8   0  -8 2005.56   70.29
  -8   0   7  994.44   32.38
  -8   0   7 1021.12   33.41
   8   0  -7 1011.22   31.03
   8   0  -7 1065.43   38.28
  -8   0   7 1086.12   54.92
   8   0  -7 1043.30   47.83
  -8   0   6   11.07    4.48
  -8   0   6   18.08    4.09
   8   0  -6   29.49    8.41
  -8   0   6   23.89    5.30
   8   0  -6   27.98    5.83
  -8   0   6   13.77    7.58
   8   0  -6   18.67    4.36
  -8   0   5 1493.90   35.94
   8   0  -5 1466.72   37.13
   8   0  -5 1485.19   35.65
  -8   0   5 1365.44   67.27
   8   0  -5 1540.77   50.73
  -8   0   5 1444.09   41.22
  -8   0   4  944.90   28.33
   8   0  -4  965.41   29.32
   8   0  -4  935.48   35.74
  -8   0   4  892.46   33.08
  -8   0   3   78.25    8.24
   8   0  -3   81.45    8.35
  -8   0   3   74.16   16.97
   8   0  -3   86.04   10.11
  -8   0   3   77.30   10.38
  -8   0   2  335.29   17.71
   8   0  -2  326.03   17.10
  -8   0   2  327.34   34.67
   8   0  -2  336.71   18.28
  -8   0   2  314.90   21.60
  -8   0   1 1268.13   37.08
   8   0  -1 1248.73   34.82
  -8   0   1 1261.02   62.62
   8   0  -1 1225.06   34.42
  -8   0   1 1270.67   47.08
  -8   0   0  174.72   14.16
   8   0   0  194.85   13.84
  -8   0   0  209.58   23.56
   8   0   0  188.34   12.42
  -8   0   0  193.13   19.54
  -8   0  -1  205.01   16.60
   8   0   1  210.97   14.88
  -8   0  -1  188.15   20.73
  -8   0  -1  223.37   22.04
  -8   0  -2  519.11   28.54
   8   0   2  513.64   23.98
  -8   0  -2  485.92   31.31
  -8   0  -2  536.27   35.47
  -8   0  -3  216.74   19.99
   8   0   3  191.08   15.16
  -8   0  -3  227.41   23.91
  -8   0  -4   18.32    7.43
  -8   0  -4   19.94    6.46
   8   0   4    9.66    4.01
  -8   0  -5  337.47   29.59
   8   0   5  348.99   23.20
  -8   0  -5  341.25   29.47
  -8   0  -6  510.25   37.86
   8   0   6  529.67   30.74
   8   0   6  630.43   36.22
  -8   0  -6  583.30   36.55
   8   0   7   80.88   14.21
   8   0   7   45.60   10.22
   8   1 -14   20.87    6.57
  -8  -1  14   27.69    9.47
  -8  -1  13  415.96   32.16
   8   1 -13  385.94   32.64
   8   1 -13  346.70   26.83
  -8  -1  12 1251.72   51.54
   8   1 -12 1111.82   54.44
   8   1 -12 1206.73   52.31
  -8  -1  11  717.72   35.87
   8   1 -11  696.51   40.89
  -8  -1  11  754.53   39.88
   8   1 -10   15.94    6.55
  -8  -1  10   19.80    6.28
   8   1 -10   36.60    9.28
  -8  -1  10   17.30    6.78
  -8  -1   9  922.05   34.64
   8   1  -9  919.89   40.30
  -8  -1   9  946.55   47.56
   8   1  -9  885.97   46.06
  -8  -1   8 1374.70   40.29
   8   1  -8 1242.21   35.41
   8   1  -8 1276.84   43.36
  -8  -1   8 1339.93   59.36
   8   1  -8 1425.35   56.54
  -8  -1   8 1350.97   35.85
  -8  -1   7  162.91   13.11
   8   1  -7  173.22   12.33
   8   1  -7  167.90   13.72
  -8  -1   7  172.32   22.65
   8   1  -7  197.39   19.80
  -8  -1   7  165.78   13.01
  -8  -1   6  569.27   22.62
   8   1  -6  596.27   23.24
   8   1  -6  593.97   23.25
  -8  -1   6  621.16   43.82
  -8  -1   6  612.31   21.72
  -8  -1   6  596.44   25.50
  -8  -1   5 1712.06   40.29
   8   1  -5 1747.36   40.65
   8   1  -5 1730.04   37.00
  -8  -1   5 1585.78   73.45
   8   1  -5 1730.33   51.54
  -8  -1   5 1762.36   46.36
  -8  -1   4  893.95   28.75
   8   1  -4  913.99   28.90
  -8  -1   4  826.99   54.63
   8   1  -4  947.06   34.95
  -8  -1   4  949.80   35.30
  -8  -1   3   84.63    8.83
   8   1  -3   99.04    9.53
  -8  -1   3   84.14   17.87
   8   1  -3  104.90   10.92
  -8  -1   3  111.94   13.04
  -8  -1   2 1621.64   41.44
   8   1  -2 1645.31   40.44
   8   1  -2 1570.60   40.81
  -8  -1   2 1625.22   52.62
  -8  -1   1  875.92   31.24
   8   1  -1  898.75   30.27
  -8  -1   1  845.20   49.48
   8   1  -1  912.38   29.13
  -8  -1   1  929.50   41.44
  -8  -1   0   95.78   10.65
   8   1   0   99.27   10.25
  -8  -1   0   99.37   15.91
   8   1   0  108.27    9.62
  -8  -1   0   99.97   14.56
  -8  -1  -1  974.55   36.38
   8   1   1  981.83   33.58
  -8  -1  -1  917.76   44.67
  -8  -1  -1  998.78   47.65
  -8  -1  -2  580.69   30.01
   8   1   2  555.60   26.03
  -8  -1  -2  569.20   33.38
  -8  -1  -2  579.00   37.62
  -8  -1  -3   49.74   11.26
  -8  -1  -3   34.53    7.93
   8   1   3   40.36    7.21
  -8  -1  -4  369.19   27.84
   8   1   4  388.94   24.28
  -8  -1  -4  364.11   30.86
  -8  -1  -5  773.38   44.07
   8   1   5  790.79   37.26
  -8  -1  -5  746.07   43.04
  -8  -1  -6  142.95   20.12
   8   1   6  164.19   18.06
   8   1   6  180.29   18.75
  -8  -1  -6  171.88   19.81
  -8  -2  14  159.65   21.12
  -8  -2  14  184.94   22.72
   8   2 -14  158.79   17.07
  -8  -2  13  999.66   51.22
  -8  -2  13 1056.98   49.86
   8   2 -13  950.40   51.05
   8   2 -13 1010.33   46.27
  -8  -2  12  788.19   39.33
   8   2 -12  728.23   43.03
   8   2 -12  736.72   42.85
   8   2 -11   -4.41    7.57
  -8  -2  11    1.28    4.45
   8   2 -11   -1.40    5.86
  -8  -2  11    1.49    4.18
  -8  -2  10  556.79   28.01
   8   2 -10  594.36   25.57
   8   2 -10  574.42   32.99
  -8  -2  10  556.28   36.56
   8   2 -10  498.20   34.66
  -8  -2   9  797.50   31.68
   8   2  -9  778.39   28.28
   8   2  -9  768.10   34.71
  -8  -2   9  854.39   47.21
   8   2  -9  765.74   42.65
   8   2  -8  496.51   21.71
   8   2  -8  441.36   23.43
  -8  -2   8  430.13   35.07
   8   2  -8  409.74   29.41
  -8  -2   8  436.74   19.82
  -8  -2   8  449.32   20.27
   8   2  -7   91.33    9.04
   8   2  -7   90.98    9.67
  -8  -2   7   99.83   18.35
   8   2  -7  106.90   14.40
  -8  -2   7  101.00    9.35
  -8  -2   7   85.96    9.47
  -8  -2   6 1012.35   31.88
   8   2  -6 1047.34   31.09
   8   2  -6 1006.33   29.33
  -8  -2   6 1008.24   59.53
   8   2  -6 1067.01   42.05
  -8  -2   6 1034.29   30.47
  -8  -2   6 1109.01   36.14
  -8  -2   5  566.98   23.43
   8   2  -5  573.17   22.70
  -8  -2   5  549.79   45.47
   8   2  -5  575.92   28.66
  -8  -2   5  612.90   28.00
  -8  -2   4    7.66    4.48
  -8  -2   4    4.90    2.84
   8   2  -4   11.80    4.92
   8   2  -4    1.59    3.12
  -8  -2   3  721.60   27.13
   8   2  -3  690.55   26.04
  -8  -2   3  709.54   52.52
   8   2  -3  729.36   28.35
  -8  -2   3  726.85   34.19
  -8  -2   2 1351.51   38.55
   8   2  -2 1376.59   38.29
  -8  -2   2 1295.75   65.43
   8   2  -2 1372.79   38.27
  -8  -2   2 1443.22   51.02
  -8  -2   1   63.83    8.50
   8   2  -1   73.89    8.88
  -8  -2   1   76.80   15.48
   8   2  -1   78.99    8.79
  -8  -2   1   88.07   13.48
  -8  -2   0  491.09   24.53
   8   2   0  485.86   23.69
  -8  -2   0  487.22   33.89
   8   2   0  489.52   20.91
  -8  -2   0  494.14   33.43
  -8  -2  -1  922.46   35.72
   8   2   1  976.79   35.11
  -8  -2  -1  921.89   43.99
  -8  -2  -1  956.20   48.95
  -8  -2  -2  432.68   25.77
   8   2   2  445.33   24.66
  -8  -2  -2  435.31   28.70
  -8  -2  -2  412.32   33.23
  -8  -2  -3  101.39   13.68
   8   2   3  110.88   13.33
  -8  -2  -3  123.40   18.60
  -8  -2  -4 1205.22   50.64
   8   2   4 1306.75   48.37
  -8  -2  -4 1196.93   55.64
  -8  -2  -5  723.96   42.21
   8   2   5  762.15   39.36
  -8  -2  -5  802.95   43.94
  -8  -2  -6    5.16    3.96
   8   2   6    8.75    6.21
  -8  -3  14  492.27   38.15
  -8  -3  14  540.68   36.70
   8   3 -14  491.77   31.12
  -8  -3  13  836.95   48.86
  -8  -3  13  934.73   44.68
   8   3 -13  747.42   44.85
   8   3 -13  823.96   43.42
  -8  -3  12  197.30   23.12
  -8  -3  12  185.38   18.82
   8   3 -12  152.59   19.16
  -8  -3  12  173.14   19.76
   8   3 -12  158.42   19.63
  -8  -3  11  197.56   17.60
   8   3 -11  186.04   19.97
  -8  -3  11  186.73   21.51
   8   3 -11  184.93   21.30
   8   3 -10 1209.53   45.89
  -8  -3  10 1235.26   58.49
   8   3 -10 1099.16   51.57
  -8  -3  10 1103.20   35.94
   8   3  -9  551.15   23.71
   8   3  -9  587.93   28.75
  -8  -3   9  596.62   42.65
   8   3  -9  551.65   35.08
  -8  -3   9  558.48   24.23
   8   3  -8   38.43    9.69
   8   3  -8   33.36    6.53
  -8  -3   8   33.26   12.17
   8   3  -8   43.65    6.57
  -8  -3   8   49.91    7.05
   8   3  -7  838.83   28.31
   8   3  -7  864.50   29.33
  -8  -3   7  991.13   61.81
   8   3  -7  863.91   39.75
  -8  -3   7  861.56   29.23
  -8  -3   7  970.15   33.43
  -8  -3   6  395.45   20.43
   8   3  -6  406.83   19.32
  -8  -3   6  472.07   45.63
   8   3  -6  440.59   26.54
  -8  -3   6  400.36   19.64
  -8  -3   6  424.16   22.86
  -8  -3   5    7.53    3.83
  -8  -3   5    9.02    3.55
   8   3  -5    4.06    3.60
  -8  -3   5    4.85    8.42
   8   3  -5    3.76    2.50
  -8  -3   5   10.20    6.72
  -8  -3   5    0.77    3.52
  -8  -3   4  449.64   21.67
   8   3  -4  447.77   21.13
  -8  -3   4  485.65   47.40
   8   3  -4  444.99   23.72
  -8  -3   4  435.91   26.19
  -8  -3   3  668.75   27.06
   8   3  -3  710.15   27.36
  -8  -3   3  670.86   52.53
   8   3  -3  704.88   28.54
  -8  -3   3  759.95   36.73
  -8  -3   2  131.49   12.08
   8   3  -2  133.75   12.23
  -8  -3   2  149.91   22.88
   8   3  -2  142.64   12.35
  -8  -3   2  154.02   17.89
  -8  -3   1  301.16   18.84
   8   3  -1  305.86   18.86
  -8  -3   1  317.03   30.07
   8   3  -1  306.59   17.67
  -8  -3   1  300.91   26.62
  -8  -3   0  662.40   29.19
   8   3   0  665.64   29.23
  -8  -3   0  661.84   40.27
   8   3   0  728.76   26.63
  -8  -3   0  717.35   43.08
  -8  -3  -1  595.37   29.05
   8   3   1  610.61   29.50
  -8  -3  -1  585.57   35.12
  -8  -3  -1  638.04   42.36
  -8  -3  -2    6.09    3.52
   8   3   2   11.96    4.97
  -8  -3  -3  650.66   34.04
   8   3   3  669.08   34.90
  -8  -3  -3  616.89   41.40
  -8  -3  -4  951.34   45.00
   8   3   4 1019.57   46.05
  -8  -3  -4 1008.17   51.05
  -8  -3  -5   66.19   12.58
   8   4 -14  565.65   34.57
  -8  -4  13  620.54   43.50
  -8  -4  13  673.14   36.66
   8   4 -13  631.49   40.65
   8   4 -13  536.69   36.13
   8   4 -12    1.13    5.67
  -8  -4  12   10.91    6.56
   8   4 -12   10.69    6.64
  -8  -4  12   10.62    7.92
  -8  -4  12    6.80    4.32
   8   4 -11  751.07   38.58
  -8  -4  11  746.10   46.87
   8   4 -11  718.36   42.85
  -8  -4  11  729.95   31.68
   8   4 -10  746.40   34.86
  -8  -4  10  727.93   49.09
   8   4 -10  700.97   41.15
  -8  -4  10  670.01   28.80
  -8  -4   9   86.45   18.95
   8   4  -9   93.55   14.27
  -8  -4   9   98.40   10.63
   8   4  -8  570.41   24.12
  -8  -4   8  610.40   52.02
   8   4  -8  541.90   33.64
  -8  -4   8  531.11   24.10
   8   4  -7  875.82   29.97
   8   4  -7  888.43   40.56
  -8  -4   7  853.77   30.72
  -8  -4   7  909.73   33.59
  -8  -4   6  131.86   12.35
   8   4  -6  152.25   12.31
  -8  -4   6  154.32   31.23
   8   4  -6  141.43   15.07
  -8  -4   6  133.69   11.90
  -8  -4   6  155.76   14.39
  -8  -4   5  153.38   13.13
   8   4  -5  180.79   13.50
  -8  -4   5  180.22   32.10
  -8  -4   5  169.97   21.98
   8   4  -5  160.20   15.31
  -8  -4   5  162.44   13.07
  -8  -4   5  179.88   16.63
  -8  -4   4  841.95   30.96
   8   4  -4  846.73   30.68
  -8  -4   4 1051.45   78.14
  -8  -4   4 1003.53   52.55
   8   4  -4  891.58   34.23
  -8  -4   4  877.07   39.38
  -8  -4   3  386.29   21.03
   8   4  -3  388.03   20.93
  -8  -4   3  393.58   43.41
  -8  -4   3  441.97   34.33
   8   4  -3  405.59   21.97
  -8  -4   3  419.88   29.82
  -8  -4   2   94.43   10.73
   8   4  -2  100.18   11.06
  -8  -4   2  102.07   20.74
   8   4  -2   90.31   10.28
  -8  -4   2   95.00   16.15
  -8  -4   1 1038.73   36.72
   8   4  -1 1070.92   38.18
  -8  -4   1 1131.32   59.75
   8   4  -1 1085.98   34.83
  -8  -4   1 1134.39   56.05
  -8  -4   0  624.79   28.97
  -8  -4   0  689.74   41.97
   8   4   0  661.61   31.27
  -8  -4   0  655.04   45.15
   8   4   0  720.25   27.56
  -8  -4  -1   40.60   11.63
  -8  -4  -1   45.23    8.19
  -8  -4  -1   36.60    9.03
   8   4   1   36.97    7.96
  -8  -4  -2  310.23   22.34
   8   4   2  327.63   24.87
  -8  -4  -2  282.34   30.48
  -8  -4  -3  707.81   35.97
   8   4   3  708.21   39.20
  -8  -4  -3  731.56   45.86
  -8  -4  -4  247.00   22.69
   8   4   4  289.91   26.50
  -8  -4  -4  281.50   27.13
   8   5 -13   -4.15    7.97
  -8  -5  13    8.22    5.26
  -8  -5  12  176.25   21.45
  -8  -5  12  165.40   23.51
   8   5 -12  173.23   21.53
  -8  -5  12  171.36   17.16
  -8  -5  11  713.06   49.76
   8   5 -11  689.13   42.24
  -8  -5  11  736.87   33.20
  -8  -5  10  150.02   25.66
   8   5 -10  143.23   19.14
  -8  -5  10  134.44   13.35
   8   5  -9   47.18   11.16
  -8  -5   9   37.88   15.38
  -8  -5   9   39.29    7.26
   8   5  -8  492.13   31.94
  -8  -5   8  482.91   24.15
  -8  -5   7  437.17   23.58
  -8  -5   7  542.78   61.61
   8   5  -7  485.72   30.02
  -8  -5   7  456.75   23.28
  -8  -5   7  479.84   25.65
  -8  -5   6   18.10    6.83
  -8  -5   6   21.31    5.77
   8   5  -6   23.34    7.13
  -8  -5   6   -1.64   12.59
   8   5  -6   19.11    4.62
  -8  -5   6   15.75    7.93
  -8  -5   6   22.69    5.78
  -8  -5   5  674.49   28.60
   8   5  -5  651.25   27.76
  -8  -5   5  749.24   46.09
   8   5  -5  680.86   31.98
  -8  -5   5  696.22   28.80
  -8  -5   5  748.26   36.17
  -8  -5   4 1146.56   37.63
   8   5  -4 1113.50   37.36
  -8  -5   4 1240.21   59.07
   8   5  -4 1166.30   40.57
  -8  -5   4 1206.71   50.19
  -8  -5   3  157.36   13.78
   8   5  -3  145.66   13.46
  -8  -5   3  188.79   32.85
  -8  -5   3  170.61   21.45
   8   5  -3  140.65   13.69
  -8  -5   3  162.00   20.60
  -8  -5   2  670.35   29.38
  -8  -5   2  821.12   60.25
   8   5  -2  669.30   30.82
  -8  -5   2  737.98   44.60
   8   5  -2  708.10   29.91
  -8  -5   2  774.68   47.46
  -8  -5   1  887.09   34.78
  -8  -5   1  914.58   56.89
   8   5  -1  856.58   37.06
  -8  -5   1  997.35   57.67
   8   5  -1  924.14   33.72
   8   5   0  411.13   22.07
  -8  -5   0  384.27   23.39
  -8  -5   0  376.34   33.07
   8   5   0  418.56   26.77
  -8  -5  -1   39.31   13.89
  -8  -5  -1   73.21   10.26
   8   5   1   56.62   11.02
  -8  -5  -2  902.88   39.09
   8   5   2  969.61   47.20
  -8  -5  -2  961.03   56.18
  -8  -5  -3  688.86   36.07
   8   5   3  670.30   41.27
  -8  -5  -3  785.48   48.21
  -8  -6  13   89.75   13.67
  -8  -6  12  376.08   37.78
   8   6 -12  409.90   33.75
  -8  -6  12  442.37   27.99
   8   6 -11   80.76   15.30
  -8  -6  11   68.06   18.94
  -8  -6  11   97.81   12.88
   8   6 -10   12.27    6.70
  -8  -6  10    2.89    7.96
  -8  -6  10   18.19    5.34
  -8  -6   9  418.91   50.63
   8   6  -9  389.65   30.28
  -8  -6   9  386.35   23.06
  -8  -6   8  574.62   65.61
   8   6  -8  523.28   33.30
  -8  -6   8  507.52   25.87
  -8  -6   7   54.86   10.24
  -8  -6   7   45.06    8.11
   8   6  -7   69.11   11.87
  -8  -6   7   61.99   14.57
  -8  -6   7   60.81    9.26
  -8  -6   6  205.67   16.70
  -8  -6   6  255.97   28.87
   8   6  -6  231.89   20.15
  -8  -6   6  212.90   16.53
  -8  -6   6  229.94   20.52
  -8  -6   5  981.53   35.74
   8   6  -5 1027.33   37.91
  -8  -6   5 1054.88   56.07
  -8  -6   5 1022.42   36.87
   8   6  -5  998.62   40.06
  -8  -6   5 1029.90   46.88
  -8  -6   4  214.37   16.77
   8   6  -4  221.44   17.72
  -8  -6   4  228.60   25.90
   8   6  -4  228.27   18.37
  -8  -6   4  240.70   24.84
  -8  -6   3   28.99   11.46
  -8  -6   3   36.22    7.19
   8   6  -3   40.92    8.03
  -8  -6   3   55.05   22.40
   8   6  -3   28.64    6.98
  -8  -6   3   28.27    9.51
  -8  -6   2  811.03   33.19
  -8  -6   2  934.77   71.04
   8   6  -2  775.47   36.34
  -8  -6   2  890.77   49.99
  -8  -6   2  849.96   55.72
   8   6  -2  870.94   34.73
   8   6  -1  847.37   33.88
  -8  -6   1  844.48   34.97
  -8  -6   1  851.81   59.74
   8   6  -1  817.98   39.39
  -8  -6   1  891.33   50.43
  -8  -6   1  933.19   62.12
  -8  -6   0   91.77   22.32
  -8  -6   0   95.11   11.94
  -8  -6   0  122.68   20.67
   8   6   0  100.18   14.37
  -8  -6  -1  365.90   24.53
   8   6   1  317.15   27.92
  -8  -6  -1  340.31   36.87
   8   7 -11   11.18    6.83
  -8  -7  11    5.63    9.49
  -8  -7  11   11.60    6.50
  -8  -7  10  271.31   41.89
  -8  -7  10  314.28   22.33
   8   7 -10  304.09   28.54
  -8  -7   9  566.28   67.35
  -8  -7   9  621.14   30.71
   8   7  -9  592.22   37.90
  -8  -7   8   91.79   12.08
  -8  -7   8  104.72   38.14
  -8  -7   8   96.89   11.91
   8   7  -8  115.28   16.28
  -8  -7   7  178.04   16.34
  -8  -7   7  173.19   23.81
  -8  -7   7  197.06   16.93
   8   7  -7  203.26   20.32
  -8  -7   6 1038.60   38.74
  -8  -7   6 1152.27   60.51
  -8  -7   6 1027.42   38.73
  -8  -7   6 1106.90   48.01
   8   7  -6 1048.37   44.19
  -8  -7   5  358.53   22.35
  -8  -7   5  406.06   35.33
  -8  -7   5  404.07   31.50
   8   7  -5  367.20   25.49
  -8  -7   4   -1.99    5.62
  -8  -7   4   -1.22    3.69
   8   7  -4   -1.36    3.83
   8   7  -4   -8.80    6.51
  -8  -7   4  -14.25   11.13
   8   7  -3  497.35   28.53
  -8  -7   3  501.87   26.60
  -8  -7   3  621.24   70.23
   8   7  -3  522.22   32.13
  -8  -7   3  514.30   39.03
  -8  -7   3  530.49   43.95
   8   7  -2  565.06   29.35
  -8  -7   2  581.67   29.03
  -8  -7   2  501.23   56.38
   8   7  -2  510.54   33.29
  -8  -7   2  580.66   41.49
  -8  -7   2  618.58   51.50
  -8  -7   1  263.11   20.02
   8   7  -1  247.11   19.32
  -8  -7   1  202.42   31.50
   8   7  -1  249.36   24.31
  -8  -7   1  262.44   27.89
  -8  -7   1  257.58   37.08
  -8  -7   0   55.01    9.09
   8   7   0   48.81   11.27
  -8  -8   9  445.27   27.17
  -8  -8   8    2.85    4.51
   8   8  -8   15.05    7.82
  -8  -8   8   18.37   24.24
  -8  -8   8   13.85    5.62
  -8  -8   7  562.13   29.90
  -8  -8   7  621.58   45.42
  -8  -8   7  616.93   31.26
   8   8  -7  566.83   35.46
   8   8  -6  996.16   44.71
  -8  -8   6  999.85   39.02
  -8  -8   6  939.08   55.33
  -8  -8   6 1048.06   40.44
  -8  -8   6  948.17   49.01
  -8  -8   5   39.76   12.75
  -8  -8   5   35.20    7.56
   8   8  -5   29.61    8.18
  -8  -8   5   52.73   39.85
  -8  -8   5   29.73   10.45
   8   8  -4  190.81   18.52
  -8  -8   4  177.81   16.45
  -8  -8   4  175.65   23.94
  -8  -8   4  188.09   27.57
  -8  -8   3  969.19   38.26
   8   8  -3  886.95   39.38
  -8  -8   3 1004.31   92.99
  -8  -8   3  898.26   52.66
  -8  -8   3 1003.32   66.52
   8   8  -2  492.63   28.83
  -8  -8   2  469.80   56.53
   8   8  -2  475.99   35.91
  -8  -8   1   -5.48    8.92
   8   8  -1   -3.41    8.04
  -8  -9   7  738.94   49.52
  -8  -9   5   -0.09    6.59
   9 -10  -1   68.81   17.42
   9  -9  -6   59.24   13.31
   9  -9  -4  509.91   49.63
  -9   9   4  494.56   47.32
   9  -9  -3  457.74   45.23
  -9   9   3  535.81   52.83
  -9   9   3  551.96   29.53
   9  -9  -2    7.11    6.35
  -9   9   2    8.56    9.56
  -9   9   2    6.67    4.21
  -9   9   1  320.60   43.30
   9  -9  -1  310.23   32.37
  -9   9   0  863.19   71.28
   9  -8  -8  666.08   42.32
  -9   8   8  596.65   38.22
   9  -8  -7  331.72   30.62
  -9   8   7  272.69   27.59
   9  -8  -6   23.05   11.24
   9  -8  -6   30.22   12.32
  -9   8   6   15.07    9.39
  -9   8   6   20.52    6.33
  -9   8   5  825.38   56.53
  -9   8   5  824.37   36.45
   9  -8  -4 1099.98   69.89
  -9   8   4 1148.02   72.29
  -9   8   4 1090.39   40.84
   9  -8  -3  162.96   25.80
  -9   8   3  201.45   33.04
  -9   8   3  194.26   17.03
   9  -8  -2  334.09   33.76
  -9   8   2  284.34   40.66
  -9   8   2  324.06   21.52
   9  -8  -1  833.60   31.26
   9  -8  -1  725.31   44.56
  -9   8   1  843.96   68.28
  -9   8   0  424.42   47.77
   9  -8   1   13.31    7.06
  -9   8  -1    0.15    7.13
   9  -8   2  198.53   18.38
  -9   8  -2  260.30   31.67
   9  -8   2  198.96   25.17
   9  -8   3  433.03   29.25
  -9   8  -3  478.33   39.55
   9  -8   3  413.51   36.92
  -9   8  -4   92.26   16.55
  -9   7   9  741.37   42.47
   9  -7  -9  710.03   42.50
  -9   7   8  882.56   41.03
   9  -7  -8  842.85   47.47
   9  -7  -8  882.07   51.30
   9  -7  -7  280.89   28.20
   9  -7  -7  336.68   33.87
   9  -7  -6  415.73   35.95
  -9   7   6  403.74   24.83
  -9   7   6  407.35   36.46
   9  -7  -5 1714.68   84.77
  -9   7   5 1586.36   78.38
  -9   7   5 1570.36   48.88
   9  -7  -4  738.29   53.58
  -9   7   4  799.11   59.81
  -9   7   4  737.26   31.91
   9  -7  -3  137.79   22.50
  -9   7   3  132.37   26.74
  -9   7   3  140.07   13.79
   9  -7  -2 1368.82   39.77
   9  -7  -2 1252.45   59.87
  -9   7   2 1281.66   82.32
  -9   7   2 1324.37   41.72
   9  -7  -1 1059.52   33.92
   9  -7  -1  942.35   46.42
  -9   7   1 1145.90   78.17
  -9   7   1 1037.31   36.34
  -9   7   0   55.88   17.38
  -9   7   0   41.70   10.87
   9  -7   0   43.96   11.61
   9  -7   0   40.46    6.50
  -9   7  -1  303.49   28.61
   9  -7   1  293.83   17.14
   9  -7   1  241.05   24.31
  -9   7  -1  292.80   35.05
  -9   7  -2  722.81   46.15
   9  -7   2  669.85   41.64
  -9   7  -2  743.86   50.31
  -9   7  -3  261.62   28.22
   9  -7   3  213.30   24.50
  -9   7  -4   72.05   16.09
   9  -7   4   78.86   15.82
  -9   7  -5  452.40   38.37
  -9   6  10  435.16   34.86
   9  -6 -10  392.52   30.62
  -9   6   9 1008.00   47.27
   9  -6  -9  982.40   50.21
   9  -6  -9 1070.15   53.14
  -9   6   8  422.78   27.44
   9  -6  -8  485.58   36.22
   9  -6  -8  465.62   37.49
  -9   6   8  397.52   33.39
   9  -6  -7   42.45   12.27
  -9   6   7   35.44    7.55
   9  -6  -7   33.02   10.63
  -9   6   7   30.17   10.58
  -9   6   6 1222.84   39.37
   9  -6  -6 1350.30   66.83
   9  -6  -6 1414.50   73.59
  -9   6   6 1285.53   67.29
   9  -6  -5  904.94   57.80
  -9   6   5 1024.67   62.99
  -9   6   5  901.02   35.13
  -9   6   5  998.21   61.84
   9  -6  -4   46.94   13.12
  -9   6   4   42.24   14.11
  -9   6   4   60.06    9.09
  -9   6   4   63.84   16.93
  -9   6   3  413.86   28.00
   9  -6  -3  458.17   36.43
  -9   6   3  421.50   43.30
  -9   6   3  447.87   23.13
  -9   6   3  458.19   46.43
  -9   6   2 1091.37   47.02
   9  -6  -2 1186.40   35.85
   9  -6  -2 1151.19   51.96
  -9   6   2 1166.36   75.05
  -9   6   2 1170.64   37.19
  -9   6   2 1249.29   79.59
  -9   6   1  534.99   34.05
   9  -6  -1  499.18   22.30
   9  -6  -1  470.01   29.54
  -9   6   1  599.97   56.39
  -9   6   1  487.27   23.41
  -9   6   1  521.47   50.21
  -9   6   0  125.91   17.26
   9  -6   0  125.32   10.78
  -9   6   0  116.10   23.36
  -9   6   0  156.16   25.67
  -9   6  -1  963.19   49.19
   9  -6   1  880.77   29.70
  -9   6  -2  915.43   49.67
   9  -6   2  879.04   30.28
   9  -6   2  841.61   43.56
  -9   6  -3    5.84    5.93
   9  -6   3    3.75    5.38
  -9   6  -4  600.39   42.24
   9  -6   4  578.73   39.82
  -9   6  -5  475.22   37.85
  -9   5  11  333.27   32.34
   9  -5 -11  293.02   25.94
   9  -5 -11  281.45   24.95
  -9   5  10 1312.63   57.45
   9  -5 -10 1290.12   56.31
   9  -5 -10 1360.94   57.72
  -9   5   9  649.12   35.65
   9  -5  -9  657.71   41.41
   9  -5  -9  685.15   43.44
  -9   5   9  632.52   39.98
   9  -5  -8   -2.54    7.38
  -9   5   8    3.33    4.31
   9  -5  -8    2.28    4.49
  -9   5   8    0.03    5.85
  -9   5   7  805.80   33.44
   9  -5  -7  954.40   54.96
   9  -5  -7  921.34   57.13
  -9   5   7  831.91   50.73
  -9   5   6  956.27   33.99
   9  -5  -6 1047.56   60.85
   9  -5  -6  917.66   56.52
  -9   5   6 1058.70   59.70
  -9   5   5  177.97   17.73
  -9   5   5  210.60   15.06
   9  -5  -5  197.27   25.21
  -9   5   5  226.69   28.89
  -9   5   5  219.04   16.31
  -9   5   4   59.88   10.48
   9  -5  -4   80.37   15.14
  -9   5   4   67.94   17.29
  -9   5   4   59.49    8.27
  -9   5   3  695.22   34.52
   9  -5  -3  739.39   27.91
   9  -5  -3  709.09   41.05
  -9   5   3  665.55   52.98
  -9   5   3  742.63   28.48
  -9   5   2  531.23   31.03
   9  -5  -2  551.10   23.41
   9  -5  -2  534.50   31.88
  -9   5   2  541.64   49.46
  -9   5   2  536.94   23.53
  -9   5   1    9.46    5.70
   9  -5  -1    7.61    4.80
  -9   5   1   11.97    7.97
   9  -5  -1    0.67    2.71
  -9   5   1    3.30    3.11
  -9   5   0  467.28   31.44
   9  -5   0  412.47   19.79
  -9   5   0  387.26   38.66
  -9   5  -1  671.81   39.82
   9  -5   1  611.89   24.54
  -9   5  -1  592.41   44.80
  -9   5  -2  124.71   17.71
   9  -5   2  113.07   10.66
  -9   5  -2   98.63   17.81
  -9   5  -3  301.34   28.90
   9  -5   3  316.26   18.63
   9  -5   3  314.15   26.41
  -9   5  -4  624.05   42.45
  -9   5  -4  573.03   32.08
   9  -5   4  622.20   39.21
  -9   5  -5  156.06   21.81
  -9   5  -5  165.79   18.43
  -9   4  11  938.55   51.16
   9  -4 -11  893.25   45.94
   9  -4 -11  882.90   44.51
  -9   4  10 1330.31   54.32
   9  -4 -10 1414.79   59.98
   9  -4 -10 1369.85   59.11
  -9   4  10 1229.01   52.87
  -9   4   9  264.18   21.77
   9  -4  -9  270.82   27.12
   9  -4  -9  284.93   28.56
  -9   4   9  252.77   25.33
  -9   4   8  246.97   19.18
   9  -4  -8  263.39   28.51
   9  -4  -8  288.29   30.55
  -9   4   8  256.16   26.27
  -9   4   7 1581.48   46.29
   9  -4  -7 1643.70   71.80
   9  -4  -7 1638.92   73.76
  -9   4   7 1812.77   74.72
  -9   4   6  726.81   33.01
  -9   4   6  755.35   29.68
   9  -4  -6  728.35   45.90
   9  -4  -6  779.62   49.50
  -9   4   6  802.46   51.85
  -9   4   5   12.35    5.04
   9  -4  -5   20.62    9.19
  -9   4   5   12.91    4.37
  -9   4   5   26.06   11.23
  -9   4   4  724.47   33.35
  -9   4   4  765.58   26.74
   9  -4  -4  766.48   28.58
   9  -4  -4  744.92   41.88
  -9   4   4  686.06   52.08
  -9   4   4  740.26   28.07
  -9   4   3  879.76   37.83
   9  -4  -3  897.21   30.50
   9  -4  -3  849.37   41.10
  -9   4   3  835.11   59.18
  -9   4   3  894.28   29.97
  -9   4   2   41.72    9.33
   9  -4  -2   52.51    9.50
  -9   4   2   52.52   15.80
   9  -4  -2   37.30    6.07
  -9   4   2   39.84    6.03
  -9   4   1  394.01   27.51
   9  -4  -1  362.59   18.49
   9  -4  -1  379.88   22.71
  -9   4   1  443.18   43.34
  -9   4   1  384.60   18.72
  -9   4   0  390.68   28.67
   9  -4   0  367.54   18.70
  -9   4   0  395.03   37.02
  -9   4  -1  167.50   19.47
   9  -4   1  149.77   12.31
  -9   4  -1  181.30   23.16
  -9   4  -2  100.50   15.56
   9  -4   2   91.84    9.93
  -9   4  -2   90.94   15.63
  -9   4  -3  527.02   37.73
   9  -4   3  523.59   24.28
  -9   4  -3  473.48   34.41
  -9   4  -4  276.30   27.97
   9  -4   4  271.83   18.24
  -9   4  -4  247.38   21.34
   9  -4   4  279.12   25.45
  -9   4  -5   -7.74    8.25
   9  -4   5    2.54    6.16
  -9   4  -5    5.45    4.83
  -9   4  -6  171.90   22.53
  -9   3  12  306.04   30.70
   9  -3 -12  279.06   25.91
   9  -3 -12  260.37   23.41
  -9   3  11  923.05   47.77
   9  -3 -11  838.20   46.05
   9  -3 -11  824.40   44.21
  -9   3  10  546.71   33.42
   9  -3 -10  566.87   39.15
  -9   3  10  520.31   34.70
   9  -3 -10  561.09   38.50
   9  -3  -9    8.25    7.31
  -9   3   9    5.47    3.85
   9  -3  -9   13.48    7.05
  -9   3   9    7.89    5.38
  -9   3   8 1040.55   37.53
  -9   3   8 1102.05   39.74
   9  -3  -8 1111.99   55.67
   9  -3  -8 1096.78   58.61
  -9   3   8 1122.19   56.36
  -9   3   7 1494.22   45.59
  -9   3   7 1533.33   44.61
   9  -3  -7 1466.42   61.84
   9  -3  -7 1534.29   68.37
  -9   3   7 1576.84   70.81
  -9   3   6  183.07   15.56
  -9   3   6  191.35   14.64
   9  -3  -6  164.52   19.29
   9  -3  -6  198.08   23.43
  -9   3   6  192.06   25.93
  -9   3   5  325.03   21.19
  -9   3   5  344.16   18.70
  -9   3   5  339.61   35.70
   9  -3  -5  352.32   28.69
  -9   3   4 1354.07   45.06
   9  -3  -4 1358.25   38.44
  -9   3   4 1387.04   74.60
   9  -3  -4 1434.36   53.86
  -9   3   4 1416.33   37.79
  -9   3   3  329.62   22.94
   9  -3  -3  345.30   18.41
  -9   3   3  364.90   39.36
   9  -3  -3  343.43   23.78
  -9   3   3  365.27   17.94
  -9   3   2  129.95   15.03
   9  -3  -2  137.00   11.30
  -9   3   2  179.45   28.46
   9  -3  -2  151.56   14.65
  -9   3   2  150.48   11.20
  -9   3   1  957.17   42.44
   9  -3  -1  908.75   30.04
  -9   3   1 1055.83   64.35
   9  -3  -1  959.97   34.28
  -9   3   1  941.82   28.46
  -9   3   0  534.33   33.18
   9  -3   0  493.94   22.08
  -9   3   0  548.69   42.49
  -9   3  -1   -4.36    6.54
  -9   3  -1    4.65    5.43
   9  -3   1    3.12    2.85
  -9   3  -2  728.26   41.63
   9  -3   2  756.15   28.74
  -9   3  -2  699.06   41.75
  -9   3  -2  790.26   44.18
  -9   3  -3  517.17   35.44
   9  -3   3  547.76   25.55
  -9   3  -3  499.21   33.64
  -9   3  -3  571.89   39.47
  -9   3  -4    6.12    5.35
   9  -3   4   23.65    8.66
  -9   3  -4   12.58    6.71
   9  -3   4   12.54    4.65
  -9   3  -5  197.08   23.59
  -9   3  -5  187.79   21.63
   9  -3   5  193.11   16.53
  -9   3  -5  187.85   20.29
   9  -3   5  197.50   22.24
  -9   3  -6  538.15   38.66
  -9   3  -6  515.96   34.50
  -9   3  -6  564.50   37.35
   9  -2 -13   72.43   12.17
  -9   2  12  587.65   40.70
   9  -2 -12  539.35   37.50
   9  -2 -12  559.96   35.46
  -9   2  11  698.53   39.46
   9  -2 -11  664.31   43.27
  -9   2  11  608.09   36.56
   9  -2 -11  667.47   40.92
  -9   2  10  117.31   15.42
   9  -2 -10  117.46   18.38
   9  -2 -10   91.94   16.04
  -9   2  10   97.29   15.76
  -9   2   9  251.44   19.81
   9  -2  -9  303.99   28.18
  -9   2   9  278.80   27.07
   9  -2  -9  316.24   30.35
  -9   2   8  947.04   33.79
  -9   2   8  881.24   34.95
   9  -2  -8  821.79   44.51
  -9   2   8  922.40   51.18
   9  -2  -8  913.41   52.30
  -9   2   7  284.91   18.43
  -9   2   7  276.32   18.22
   9  -2  -7  288.29   23.82
  -9   2   7  292.17   30.34
   9  -2  -7  252.69   26.14
  -9   2   6   89.93   11.05
  -9   2   6   93.04   10.39
   9  -2  -6   87.50    9.59
   9  -2  -6  105.14   12.85
   9  -2  -6  104.28   16.13
  -9   2   6  105.51   20.15
  -9   2   5  697.98   30.58
   9  -2  -5  688.39   27.08
  -9   2   5  669.22   51.30
   9  -2  -5  728.52   38.70
  -9   2   4  871.03   35.34
   9  -2  -4  804.92   29.07
  -9   2   4  831.61   58.95
   9  -2  -4  868.86   39.09
  -9   2   3   35.34    7.43
   9  -2  -3   47.89    8.89
  -9   2   3   52.78   15.95
   9  -2  -3   51.95    6.95
  -9   2   3   44.63    6.19
   9  -2  -2  582.72   23.97
  -9   2   2  637.47   52.30
   9  -2  -2  596.19   27.49
  -9   2   2  586.98   21.14
  -9   2   2  590.92   31.51
  -9   2   1  878.06   34.67
   9  -2  -1  871.08   29.52
  -9   2   1  973.53   59.95
   9  -2  -1  920.89   32.07
  -9   2   1  888.40   26.00
  -9   2   1  852.91   40.46
  -9   2   0  148.92   15.16
   9  -2   0  163.67   12.88
  -9   2   0  194.95   24.65
  -9   2   0  169.32   19.00
  -9   2  -1  426.67   28.04
   9  -2   1  434.34   21.39
  -9   2  -1  401.50   32.86
  -9   2  -1  486.17   33.40
  -9   2  -2 1303.55   53.87
   9  -2   2 1290.70   39.21
  -9   2  -2 1229.24   54.43
  -9   2  -2 1282.20   57.35
  -9   2  -3  306.40   27.47
   9  -2   3  311.02   19.50
  -9   2  -3  330.92   30.45
  -9   2  -4   42.74   12.40
  -9   2  -4   55.52   12.14
   9  -2   4   58.05    8.77
  -9   2  -5  684.21   42.62
   9  -2   5  798.46   34.78
  -9   2  -5  779.00   39.75
   9  -2   5  826.11   43.46
  -9   2  -5  827.02   49.23
   9  -2   6  662.17   33.68
  -9   2  -6  646.78   42.44
   9  -1 -13  341.28   30.33
   9  -1 -13  342.53   27.11
  -9   1  12 1062.81   51.55
   9  -1 -12 1014.81   54.01
   9  -1 -12 1042.84   49.95
  -9   1  11  370.98   27.68
   9  -1 -11  341.19   30.63
  -9   1  11  356.33   28.91
   9  -1 -11  368.52   31.80
  -9   1  10   95.02   13.09
   9  -1 -10   91.54   17.01
   9  -1 -10   85.09   15.34
  -9   1  10   76.37   14.21
  -9   1   9  828.67   35.15
   9  -1  -9  766.24   42.09
  -9   1   9  853.24   48.27
  -9   1   8  382.62   21.68
  -9   1   8  399.80   22.81
   9  -1  -8  402.53   27.80
  -9   1   8  450.00   37.31
   9  -1  -8  371.16   32.13
  -9   1   7    3.39    2.92
   9  -1  -7   10.34    6.38
  -9   1   7    6.32    3.81
   9  -1  -7   18.96    6.11
  -9   1   7    7.58    7.24
   9  -1  -7    4.19    3.22
  -9   1   6  443.73   23.72
   9  -1  -6  444.99   21.85
   9  -1  -6  482.98   23.83
  -9   1   6  457.90   41.30
   9  -1  -6  469.19   31.97
   9  -1  -5  615.26   25.20
  -9   1   5  538.35   46.54
   9  -1  -5  623.26   33.93
  -9   1   5  550.95   27.64
  -9   1   4   40.12    7.65
  -9   1   4   35.11    5.86
   9  -1  -4   46.26    8.72
  -9   1   4   43.90   15.41
   9  -1  -4   42.59    6.91
  -9   1   3  326.82   18.25
   9  -1  -3  309.68   17.51
  -9   1   3  337.26   39.61
   9  -1  -3  323.76   20.73
  -9   1   3  324.90   15.07
  -9   1   3  303.13   21.49
  -9   1   2  805.22   30.33
   9  -1  -2  800.05   28.59
  -9   1   2  833.51   58.80
   9  -1  -2  795.26   30.58
  -9   1   2  790.09   37.08
  -9   1   1  399.03   22.39
   9  -1  -1  374.37   19.78
  -9   1   1  416.98   38.79
   9  -1  -1  403.90   20.60
  -9   1   1  406.27   27.88
  -9   1   0   43.68   10.63
  -9   1   0   44.18    7.96
  -9   1   0   48.08   12.16
   9  -1   0   38.04    6.53
  -9   1  -1  721.83   35.25
   9  -1   1  767.33   29.66
  -9   1  -1  725.43   43.04
  -9   1  -1  805.72   43.35
  -9   1  -2  687.04   37.46
   9  -1   2  737.30   30.24
  -9   1  -2  740.06   41.15
  -9   1  -2  772.63   44.36
  -9   1  -3    8.80    4.53
   9  -1   3   10.63    3.87
  -9   1  -4  396.51   32.50
   9  -1   4  412.59   24.43
  -9   1  -4  410.98   34.37
  -9   1  -5  973.58   52.14
   9  -1   5  989.50   40.33
   9  -1   5 1047.65   48.03
  -9   1  -5 1025.01   53.39
  -9   1  -6  294.67   27.62
  -9   0  13  907.09   49.96
   9   0 -13  863.06   50.46
   9   0 -13  817.08   42.80
  -9   0  12  784.17   42.56
   9   0 -12  736.57   46.15
   9   0 -12  776.25   44.32
   9   0 -11   29.30    8.56
  -9   0  11   34.74    9.26
   9   0 -11   37.24    9.91
  -9   0  11   23.90    8.72
  -9   0  10  661.09   32.50
   9   0 -10  583.23   36.81
  -9   0  10  631.92   40.89
   9   0 -10  669.43   43.88
  -9   0   9 1074.71   39.44
   9   0  -9 1081.07   36.34
   9   0  -9 1064.18   46.21
  -9   0   9 1169.69   57.75
   9   0  -9 1079.53   54.96
  -9   0   8  136.08   12.13
  -9   0   8  125.65   12.72
   9   0  -8  127.35   12.03
   9   0  -8  125.32   14.74
  -9   0   8  135.40   21.09
   9   0  -8  124.75   17.94
  -9   0   7  458.99   23.21
  -9   0   7  428.20   20.33
   9   0  -7  435.96   21.68
   9   0  -7  452.96   23.74
  -9   0   7  452.22   39.32
   9   0  -7  478.38   33.08
  -9   0   6  957.62   30.81
   9   0  -6 1016.98   33.10
  -9   0   6  921.17   58.46
   9   0  -6  981.15   44.45
  -9   0   6  952.59   35.01
  -9   0   5  222.58   14.60
   9   0  -5  207.41   14.46
  -9   0   5  178.80   27.16
   9   0  -5  240.70   19.83
  -9   0   5  209.64   17.06
  -9   0   4  204.20   14.26
   9   0  -4  205.64   14.38
  -9   0   4  205.81   29.61
   9   0  -4  206.67   17.25
  -9   0   4  186.77   16.62
  -9   0   3 1288.12   37.94
   9   0  -3 1276.53   37.15
  -9   0   3 1275.25   75.33
   9   0  -3 1218.93   39.47
  -9   0   3 1261.92   45.71
  -9   0   2  669.89   27.81
   9   0  -2  595.16   25.23
  -9   0   2  668.67   50.74
   9   0  -2  630.81   26.52
  -9   0   2  654.22   34.40
  -9   0   1    9.09    5.60
  -9   0   1    8.91    3.69
   9   0  -1   14.82    4.32
  -9   0   1    2.52    6.40
   9   0  -1    8.40    4.22
  -9   0   0  819.71   34.32
   9   0   0  813.78   30.94
  -9   0   0  794.39   47.22
  -9   0   0  777.07   42.16
  -9   0  -1  862.44   37.76
   9   0   1  942.00   34.22
  -9   0  -1  868.38   46.59
  -9   0  -1  940.86   48.55
  -9   0  -2  150.43   16.65
   9   0   2  156.58   14.26
  -9   0  -2  172.53   19.62
  -9   0  -2  198.07   22.96
  -9   0  -3  105.40   15.55
   9   0   3  109.29   12.48
  -9   0  -3  117.97   18.87
  -9   0  -4  629.02   40.73
   9   0   4  672.54   32.94
  -9   0  -4  641.38   43.23
  -9   0  -5  468.05   36.52
   9   0   5  479.92   29.28
   9   0   5  501.62   32.67
  -9   0  -5  461.46   35.05
   9   1 -13  640.32   43.54
   9   1 -13  712.96   41.64
  -9  -1  12  168.27   19.18
   9   1 -12  121.08   18.08
   9   1 -12  111.49   17.57
  -9  -1  12  142.23   18.84
  -9  -1  11  254.70   21.11
   9   1 -11  247.78   18.59
   9   1 -11  208.84   22.44
  -9  -1  11  215.13   23.52
   9   1 -11  249.83   27.25
  -9  -1  10  923.45   37.70
   9   1 -10  856.97   33.21
   9   1 -10  833.61   41.54
  -9  -1  10  884.65   49.09
   9   1 -10  897.99   49.78
  -9  -1   9  281.41   19.98
   9   1  -9  279.52   18.19
   9   1  -9  281.24   21.92
  -9  -1   9  257.59   27.46
   9   1  -9  279.09   27.43
  -9  -1   8   19.58    5.53
  -9  -1   8   30.41    6.07
   9   1  -8   42.95   10.39
   9   1  -8   40.06    8.00
  -9  -1   8   34.95   11.45
   9   1  -8   36.54    6.55
  -9  -1   7 1059.31   33.98
   9   1  -7 1001.62   33.30
   9   1  -7 1072.68   34.46
  -9  -1   7 1089.69   61.62
   9   1  -7 1109.96   49.26
  -9  -1   7 1058.46   36.15
  -9  -1   6  747.84   27.93
   9   1  -6  711.42   27.67
  -9  -1   6  721.50   51.80
   9   1  -6  720.95   36.82
  -9  -1   6  789.67   32.43
  -9  -1   5    8.05    4.23
  -9  -1   5    8.49    3.34
   9   1  -5    8.96    4.42
  -9  -1   5    6.35    5.62
   9   1  -5    5.86    3.11
  -9  -1   4 1067.56   34.47
   9   1  -4 1067.34   33.81
   9   1  -4 1029.22   37.81
  -9  -1   4 1116.46   42.05
  -9  -1   3 1581.50   43.38
   9   1  -3 1520.49   41.41
  -9  -1   3 1468.56   77.65
   9   1  -3 1480.22   43.30
  -9  -1   3 1594.92   53.53
  -9  -1   2  138.43   12.64
   9   1  -2  159.07   13.26
  -9  -1   2  135.97   22.38
   9   1  -2  152.69   13.09
  -9  -1   2  164.95   18.34
  -9  -1   1  750.55   31.71
   9   1  -1  782.72   30.52
  -9  -1   1  770.47   48.90
   9   1  -1  793.51   28.64
  -9  -1   1  798.36   42.09
  -9  -1   0 1597.88   49.22
   9   1   0 1618.06   46.01
  -9  -1   0 1536.69   64.74
  -9  -1   0 1736.72   66.06
  -9  -1  -1  587.41   30.83
   9   1   1  580.95   27.74
  -9  -1  -1  580.11   37.27
  -9  -1  -1  618.48   41.08
  -9  -1  -2   21.42    5.55
   9   1   2   17.64    5.28
  -9  -1  -3  701.00   38.90
   9   1   3  702.68   33.37
  -9  -1  -3  663.01   44.95
  -9  -1  -4  730.83   42.65
   9   1   4  723.84   35.99
  -9  -1  -4  676.72   43.67
   9   1   5  113.15   15.47
   9   2 -13   66.27   12.75
   9   2 -13   50.41   11.73
  -9  -2  12  204.66   20.16
   9   2 -12  197.06   22.83
  -9  -2  12  177.66   21.37
   9   2 -12  185.85   23.38
  -9  -2  11  548.66   30.26
   9   2 -11  520.95   34.19
  -9  -2  11  518.85   37.04
   9   2 -11  537.94   38.82
   9   2 -10  362.79   21.19
   9   2 -10  337.67   24.80
  -9  -2  10  351.52   31.28
   9   2 -10  326.36   29.92
   9   2  -9    1.22    5.63
   9   2  -9    7.04    4.51
  -9  -2   9   -0.73    6.53
   9   2  -9    8.21    3.50
  -9  -2   8  432.54   22.61
   9   2  -8  482.84   23.07
   9   2  -8  442.79   23.11
  -9  -2   8  471.54   39.66
   9   2  -8  484.13   33.20
  -9  -2   8  434.75   23.03
  -9  -2   7  605.08   26.23
   9   2  -7  615.31   25.87
   9   2  -7  664.34   25.76
  -9  -2   7  655.24   49.50
   9   2  -7  638.60   36.12
  -9  -2   7  632.54   28.00
  -9  -2   6   62.71    8.36
   9   2  -6   79.89   11.52
   9   2  -6   67.34    8.66
  -9  -2   6   64.62   16.67
  -9  -2   6   81.41   10.63
  -9  -2   5  296.25   18.22
   9   2  -5  292.27   17.69
  -9  -2   5  248.17   33.03
   9   2  -5  287.83   21.16
  -9  -2   5  319.68   22.11
  -9  -2   4 1476.13   41.99
   9   2  -4 1449.72   40.79
   9   2  -4 1428.92   44.41
  -9  -2   4 1563.27   51.97
  -9  -2   3  633.78   27.53
   9   2  -3  623.35   26.81
  -9  -2   3  573.50   47.49
   9   2  -3  638.52   28.04
  -9  -2   3  689.24   36.11
  -9  -2   2   81.85   10.40
   9   2  -2   90.43   10.78
  -9  -2   2   58.90   14.27
   9   2  -2   81.32    9.73
  -9  -2   2   97.38   14.76
  -9  -2   1 1167.32   40.44
   9   2  -1 1203.99   39.81
   9   2  -1 1235.52   36.84
  -9  -2   1 1282.15   55.58
  -9  -2   0  880.43   36.37
   9   2   0  933.69   35.51
  -9  -2   0  790.10   45.27
  -9  -2   0  919.86   49.85
  -9  -2  -1  175.90   16.84
   9   2   1  167.41   15.44
  -9  -2  -1  146.07   18.79
  -9  -2  -1  197.17   23.97
  -9  -2  -2  445.55   29.10
   9   2   2  484.60   27.83
  -9  -2  -2  485.71   38.58
  -9  -2  -3 1243.62   51.78
   9   2   3 1242.92   47.60
  -9  -2  -3 1235.31   61.77
  -9  -2  -4  504.04   37.88
   9   3 -13   -4.29    8.67
   9   3 -13   15.53    9.18
   9   3 -12  372.17   30.37
  -9  -3  12  369.06   31.10
   9   3 -12  426.07   34.75
   9   3 -11  446.58   30.09
  -9  -3  11  414.14   34.33
   9   3 -11  436.83   35.03
   9   3 -10    5.61    5.87
   9   3 -10    5.41    4.87
  -9  -3  10   13.59    7.62
   9   3  -9  314.57   19.26
   9   3  -9  306.04   20.44
  -9  -3   9  295.24   31.52
   9   3  -9  308.05   27.74
  -9  -3   8 1080.68   37.44
   9   3  -8 1166.31   37.12
  -9  -3   8 1308.41   70.99
   9   3  -8 1253.57   52.85
  -9  -3   8 1196.88   37.38
  -9  -3   7  150.63   13.60
   9   3  -7  143.90   12.67
  -9  -3   7  169.22   27.08
   9   3  -7  179.50   19.04
  -9  -3   7  165.52   13.35
  -9  -3   7  181.37   15.65
  -9  -3   6  106.40   11.40
   9   3  -6  138.65   12.33
  -9  -3   6  129.00   24.88
   9   3  -6  132.55   15.15
  -9  -3   6  150.32   15.17
  -9  -3   5  884.13   33.08
   9   3  -5  890.44   31.98
  -9  -3   5  857.32   63.87
   9   3  -5  824.19   35.33
  -9  -3   5  947.64   39.57
  -9  -3   4  606.20   27.34
   9   3  -4  609.47   26.83
  -9  -3   4  588.31   52.87
   9   3  -4  588.73   28.43
  -9  -3   4  682.40   35.42
  -9  -3   3    1.75    3.85
  -9  -3   3    0.73    3.45
   9   3  -3    3.74    2.85
  -9  -3   3    3.42    5.85
   9   3  -3   -2.97    4.81
  -9  -3   2  425.99   23.88
   9   3  -2  409.39   23.07
  -9  -3   2  421.27   37.97
   9   3  -2  399.73   21.90
  -9  -3   2  428.30   32.13
  -9  -3   1  791.67   33.52
   9   3  -1  765.75   32.61
  -9  -3   1  784.39   47.60
   9   3  -1  836.62   30.89
  -9  -3   1  841.43   47.20
  -9  -3   0  429.80   25.40
   9   3   0  438.61   25.51
  -9  -3   0  421.44   32.63
  -9  -3   0  463.46   37.05
  -9  -3  -1    8.60    7.02
  -9  -3  -1    2.38    3.40
  -9  -3  -1   13.34    5.83
   9   3   1    3.57    5.62
  -9  -3  -2  798.51   38.73
   9   3   2  798.28   38.49
  -9  -3  -2  817.82   51.87
  -9  -3  -3  608.50   36.27
  -9  -3  -3  633.63   43.83
   9   4 -12  394.56   30.54
  -9  -4  12  397.20   34.38
   9   4 -12  349.68   32.11
  -9  -4  11  339.83   32.93
   9   4 -11  295.00   28.89
  -9  -4  10  109.34   20.07
   9   4 -10  104.34   17.21
  -9  -4   9 1068.09   65.76
   9   4  -9  961.20   48.68
  -9  -4   9  922.82   34.64
  -9  -4   8  665.47   30.03
   9   4  -8  722.46   29.66
  -9  -4   8  766.81   59.38
   9   4  -8  764.22   41.10
  -9  -4   8  706.54   29.84
  -9  -4   7   11.26    5.12
  -9  -4   7    8.30    3.63
   9   4  -7    9.51    5.67
  -9  -4   7    0.93   11.60
   9   4  -7   15.20    4.02
  -9  -4   7    7.08    3.19
  -9  -4   6  645.93   29.02
   9   4  -6  653.21   28.02
  -9  -4   6  666.47   61.02
   9   4  -6  665.61   34.04
  -9  -4   6  700.62   33.47
  -9  -4   5 1287.97   41.35
   9   4  -5 1261.92   40.17
  -9  -4   5 1282.55   86.71
   9   4  -5 1220.85   44.25
  -9  -4   5 1343.73   49.29
  -9  -4   4  245.58   17.89
   9   4  -4  254.51   18.09
  -9  -4   4  241.46   34.33
   9   4  -4  262.46   19.27
  -9  -4   4  265.11   23.58
  -9  -4   3  127.33   12.99
   9   4  -3  136.94   13.58
  -9  -4   3  136.77   23.63
   9   4  -3  145.71   14.09
  -9  -4   3  182.22   20.47
  -9  -4   2  951.30   36.74
   9   4  -2  963.23   37.12
  -9  -4   2  963.07   58.90
   9   4  -2  943.94   34.73
  -9  -4   2  973.61   51.20
  -9  -4   1  374.30   23.62
   9   4  -1  395.30   24.63
  -9  -4   1  374.08   33.24
   9   4  -1  416.19   22.47
  -9  -4   1  417.29   35.94
  -9  -4   0   61.39   15.19
  -9  -4   0   43.85    8.04
  -9  -4   0   54.61   12.19
   9   4   0   44.52    8.30
  -9  -4  -1  488.79   28.89
   9   4   1  480.03   30.17
  -9  -4  -1  521.42   43.49
  -9  -4  -2  568.46   33.00
   9   4   2  556.80   34.30
  -9  -4  -2  553.73   43.13
  -9  -5  12  390.15   36.07
   9   5 -11   11.92    7.26
  -9  -5  11    6.67    8.93
  -9  -5  11    1.27    3.54
  -9  -5  10  279.41   36.36
   9   5 -10  267.47   27.12
  -9  -5  10  286.25   20.25
   9   5  -9  884.04   46.60
  -9  -5   9  814.28   33.65
  -9  -5   8  156.00   15.18
  -9  -5   8  174.87   32.01
   9   5  -8  165.49   19.51
  -9  -5   8  158.38   14.54
  -9  -5   7  134.12   13.61
  -9  -5   7  188.45   35.51
   9   5  -7  143.75   16.89
  -9  -5   7  140.34   13.62
  -9  -5   7  169.39   16.60
  -9  -5   6 1114.29   39.43
   9   5  -6 1132.60   39.35
   9   5  -6 1124.56   45.00
  -9  -5   6 1174.59   45.64
  -9  -5   5 1192.22   41.53
   9   5  -5 1279.70   42.40
  -9  -5   5 1531.72  104.81
  -9  -5   5 1522.00   73.99
   9   5  -5 1217.54   44.84
  -9  -5   5 1288.06   51.17
  -9  -5   4   17.34    7.94
  -9  -5   4   -5.30    4.97
   9   5  -4    4.92    4.15
  -9  -5   4   -0.49   11.21
   9   5  -4   -1.63    4.54
  -9  -5   4   -1.61    7.45
  -9  -5   3  685.94   31.60
  -9  -5   3  709.92   58.78
   9   5  -3  671.46   31.79
   9   5  -3  742.87   32.38
  -9  -5   3  783.42   45.95
  -9  -5   2 1273.10   43.84
  -9  -5   2 1357.28   73.11
   9   5  -2 1244.85   45.65
   9   5  -2 1281.90   42.48
  -9  -5   2 1426.03   66.72
  -9  -5   1  251.50   19.81
  -9  -5   1  262.52   29.13
   9   5  -1  265.21   21.88
  -9  -5   1  313.16   33.21
   9   5  -1  256.98   18.94
  -9  -5   0  152.07   15.75
  -9  -5   0  167.66   21.37
   9   5   0  150.92   17.63
  -9  -5   0  188.22   26.98
  -9  -6  12   36.52    9.40
  -9  -6  11  235.61   19.77
  -9  -6  10  516.33   51.98
   9   6 -10  612.22   40.87
  -9  -6  10  542.59   28.98
  -9  -6   9  333.50   23.10
  -9  -6   9  350.21   46.38
   9   6  -9  360.12   30.22
  -9  -6   9  350.73   22.90
  -9  -6   8    6.61    3.90
   9   6  -8   11.05    6.08
  -9  -6   8   19.24   12.80
  -9  -6   8   10.82    5.29
  -9  -6   7  473.61   26.74
  -9  -6   7  574.46   70.35
   9   6  -7  520.13   32.52
  -9  -6   7  491.57   26.77
  -9  -6   6 1069.18   40.11
   9   6  -6 1099.10   45.21
  -9  -6   6 1166.81   48.29
  -9  -6   5  112.66   13.17
   9   6  -5  122.42   13.95
  -9  -6   5  116.62   31.64
  -9  -6   5  141.94   22.29
   9   6  -5  124.33   14.79
  -9  -6   5  128.03   17.77
  -9  -6   4  229.62   18.49
  -9  -6   4  298.09   44.17
   9   6  -4  231.77   19.86
  -9  -6   4  241.91   28.72
   9   6  -4  252.60   20.15
  -9  -6   4  250.54   26.31
  -9  -6   3 1139.35   41.76
  -9  -6   3 1246.36   82.10
   9   6  -3 1064.59   43.93
  -9  -6   3 1192.05   61.35
   9   6  -3 1100.03   41.39
   9   6  -2  478.61   26.89
  -9  -6   2  473.57   27.38
  -9  -6   2  495.38   46.57
   9   6  -2  479.29   30.53
  -9  -6   2  545.81   44.69
  -9  -6   1   31.21   12.37
  -9  -6   1   22.20   10.48
   9   6  -1   15.66    6.24
  -9  -7   9   31.74    7.54
  -9  -7   8  468.43   27.20
  -9  -7   7  795.79   36.08
  -9  -7   7  810.76   36.15
   9   7  -7  851.68   42.71
  -9  -7   6  252.20   20.08
  -9  -7   6  311.69   34.68
  -9  -7   6  278.75   24.61
   9   7  -6  256.18   22.41
  -9  -7   5  108.38   13.35
  -9  -7   5  161.82   39.80
  -9  -7   5  117.44   20.46
  -9  -7   5  132.68   19.33
   9   7  -5  108.59   14.35
   9   7  -4  351.50   25.20
  -9  -7   4  407.06   54.55
  -9  -7   4  373.63   36.44
  -9  -7   4  394.47   34.69
   9   7  -3  425.84   26.89
  -9  -7   3  506.33   54.94
   9   7  -3  425.00   30.48
  -9  -7   3  449.39   39.20
  -9  -7   3  506.29   42.81
   9   7  -2   40.51    8.91
  -9  -7   2   44.16   15.27
   9   7  -2   22.55    6.78
  -9  -8   6   -0.41    4.13
  -9  -8   6  -16.80   12.62
  10  -8  -4    8.22    7.87
  10  -8  -3  476.27   26.06
  10  -8  -3  455.08   40.53
  10  -8  -2  467.92   25.21
  10  -8  -2  413.35   34.84
  10  -8  -1   73.23    9.76
  10  -7  -8   10.70    8.42
  10  -7  -6 1204.33   72.83
 -10   7   6 1048.07   41.82
  10  -7  -5  149.14   24.79
 -10   7   5  140.69   14.70
  10  -7  -4  387.86   38.00
 -10   7   4  422.51   24.84
  10  -7  -3  955.72   35.75
  10  -7  -3  831.80   50.33
 -10   7   3  932.27   36.63
  10  -7  -2  191.60   15.53
  10  -7  -2  166.35   20.31
 -10   7   2  184.05   16.18
 -10   7   1  114.39   17.84
  10  -7  -1   98.80   11.03
 -10   7   0  685.10   43.88
  10  -7   0  672.90   28.39
  10  -7   0  592.96   38.95
  10  -7   1  292.62   27.82
  10  -7   2   10.94    7.14
 -10   6   9   94.86   14.16
  10  -6  -9   99.75   17.31
 -10   6   8  170.18   17.09
  10  -6  -8  192.29   25.28
  10  -6  -8  217.29   28.96
 -10   6   8  164.45   23.78
  10  -6  -7 1094.54   67.06
 -10   6   7  962.93   59.27
  10  -6  -6  331.84   36.24
 -10   6   6  357.37   38.03
 -10   6   6  357.41   23.46
  10  -6  -5   30.87   11.07
 -10   6   5   31.40   11.12
 -10   6   5   31.72    7.35
 -10   6   4  528.84   32.71
  10  -6  -4  595.02   27.69
  10  -6  -4  575.03   42.59
 -10   6   4  477.10   47.43
 -10   6   4  584.39   28.35
 -10   6   3  334.40   26.94
  10  -6  -3  396.45   22.20
  10  -6  -3  399.95   32.21
 -10   6   3  372.46   42.61
 -10   6   3  420.87   23.29
 -10   6   2   -2.50    4.55
  10  -6  -2    5.82    5.37
 -10   6   2   -1.88    7.55
  10  -6  -2    0.79    3.22
 -10   6   2    3.58    4.09
 -10   6   1  383.37   30.49
  10  -6  -1  377.14   20.96
 -10   6   1  434.85   48.29
 -10   6   0  851.67   47.03
  10  -6   0  841.35   31.11
 -10   6   0  872.78   62.11
 -10   6  -1  117.92   18.32
  10  -6   1   93.33   10.13
  10  -6   1  124.55   17.25
 -10   6  -2  321.07   31.08
  10  -6   2  298.61   18.75
  10  -6   2  314.09   27.87
 -10   5  10  291.48   25.84
  10  -5 -10  298.35   28.99
 -10   5  10  268.70   26.96
  10  -5  -9   79.19   16.19
 -10   5   9   49.57   10.13
  10  -5  -9   63.09   13.90
 -10   5   9   62.20   14.20
 -10   5   8  556.53   29.94
  10  -5  -8  647.35   47.39
  10  -5  -8  701.46   51.22
 -10   5   8  634.10   44.97
 -10   5   7  316.57   20.89
  10  -5  -7  327.81   34.85
 -10   5   7  295.35   32.76
  10  -5  -6   22.35    9.56
 -10   5   6   13.49    5.30
 -10   5   6   31.91   12.64
 -10   5   6    5.11    4.05
 -10   5   5  287.85   22.68
  10  -5  -5  340.30   32.89
 -10   5   5  318.35   36.45
 -10   5   5  293.16   19.61
 -10   5   4  342.71   25.40
  10  -5  -4  404.88   22.39
  10  -5  -4  406.45   32.79
 -10   5   4  333.15   38.60
 -10   5   4  379.81   21.83
 -10   5   3  125.06   15.78
  10  -5  -3  129.36   12.39
  10  -5  -3  141.73   17.91
 -10   5   3  117.79   23.96
 -10   5   3  122.66   12.14
 -10   5   2   82.69   12.99
  10  -5  -2   66.75    8.75
  10  -5  -2   88.34   12.76
 -10   5   2   82.07   20.65
 -10   5   2   64.47    9.10
 -10   5   1  628.36   37.97
  10  -5  -1  590.74   25.70
 -10   5   1  629.29   53.92
 -10   5   1  590.36   25.85
 -10   5   0  331.25   28.88
  10  -5   0  314.28   18.55
 -10   5   0  377.03   38.67
 -10   5  -1   38.82   10.26
 -10   5  -1   32.70   12.18
  10  -5   1   19.07    5.16
 -10   5  -2  810.89   48.34
  10  -5   2  722.13   29.51
 -10   5  -2  694.01   47.26
  10  -5   2  731.39   40.45
 -10   5  -3  563.19   41.55
  10  -5   3  540.85   26.52
  10  -4 -11  513.17   37.92
  10  -4 -10    2.26    5.88
 -10   4  10   17.93    8.44
  10  -4 -10    7.31    5.33
 -10   4  10   10.97    7.13
 -10   4   9  464.05   28.66
  10  -4  -9  517.51   40.93
  10  -4  -9  555.71   44.16
 -10   4   9  462.49   36.57
 -10   4   8  612.14   30.72
  10  -4  -8  712.02   47.00
  10  -4  -8  672.14   48.91
 -10   4   8  673.35   46.51
 -10   4   7   18.83    6.57
  10  -4  -7   26.83    8.39
 -10   4   7   28.68    7.01
 -10   4   7   29.87   11.77
 -10   4   6  216.93   19.55
 -10   4   6  242.38   17.19
  10  -4  -6  211.77   25.99
 -10   4   6  233.46   30.43
 -10   4   5  682.55   34.38
  10  -4  -5  751.76   30.70
  10  -4  -5  757.44   45.11
 -10   4   5  677.72   52.93
 -10   4   5  737.13   30.30
 -10   4   4  328.91   24.20
  10  -4  -4  327.56   19.73
  10  -4  -4  334.12   27.31
 -10   4   4  282.01   35.81
 -10   4   4  331.65   19.47
 -10   4   3   91.79   13.10
  10  -4  -3  127.59   12.26
  10  -4  -3  127.35   15.85
 -10   4   3  141.12   25.74
 -10   4   3  116.09   11.21
 -10   4   2  774.05   39.75
  10  -4  -2  749.57   29.32
 -10   4   2  862.35   64.94
  10  -4  -2  786.57   35.80
 -10   4   2  761.49   28.14
 -10   4   1  612.38   36.33
  10  -4  -1  548.01   24.54
 -10   4   1  623.63   51.20
 -10   4   1  593.68   24.57
 -10   4   0    8.87    6.39
 -10   4   0    6.09    6.55
  10  -4   0    4.78    3.14
 -10   4  -1  371.98   31.40
  10  -4   1  340.80   19.80
 -10   4  -1  337.04   32.52
 -10   4  -2  542.46   39.52
  10  -4   2  540.53   25.72
 -10   4  -2  503.50   37.89
 -10   4  -3  153.78   21.45
  10  -4   3  146.49   13.87
  10  -4   3  194.83   21.33
  10  -4   4   14.47    4.86
 -10   3  11  138.57   18.22
  10  -3 -11  153.10   21.44
  10  -3 -11  145.48   20.27
  10  -3 -10   82.82   16.37
 -10   3  10   59.83   11.38
  10  -3 -10   73.45   15.43
 -10   3  10   70.73   14.45
 -10   3   9  709.70   34.42
  10  -3  -9  683.59   44.74
 -10   3   9  703.20   45.42
  10  -3  -9  830.12   53.07
 -10   3   8  336.18   22.67
 -10   3   8  340.63   22.43
  10  -3  -8  321.95   28.98
 -10   3   8  370.58   34.68
  10  -3  -8  364.33   34.85
 -10   3   7   22.39    6.98
  10  -3  -7   40.37   11.93
 -10   3   7   44.46    8.38
 -10   3   7   42.12   13.34
 -10   3   6  870.40   36.79
 -10   3   6  887.48   32.84
  10  -3  -6  841.22   32.51
 -10   3   6  917.94   60.60
  10  -3  -6  872.19   48.84
 -10   3   5  844.69   37.57
  10  -3  -5  856.13   32.69
 -10   3   5  758.20   57.73
  10  -3  -5  920.64   46.35
 -10   3   5  878.57   31.77
 -10   3   4    5.72    3.76
  10  -3  -4   12.37    6.68
  10  -3  -4    3.96    3.59
 -10   3   4    1.53    2.64
 -10   3   3 1028.37   44.04
  10  -3  -3 1002.01   34.42
 -10   3   3 1084.42   72.84
  10  -3  -3 1014.79   41.52
 -10   3   3 1007.13   31.73
 -10   3   2 1326.98   51.80
  10  -3  -2 1263.05   38.78
 -10   3   2 1420.31   81.71
  10  -3  -2 1285.00   43.75
 -10   3   2 1314.08   35.57
 -10   3   1  197.90   20.96
  10  -3  -1  206.82   15.10
 -10   3   1  248.16   32.24
 -10   3   0  249.38   24.29
  10  -3   0  241.39   16.56
 -10   3   0  228.54   27.93
 -10   3  -1 1093.27   54.16
  10  -3   1 1030.18   35.65
 -10   3  -1 1098.09   57.56
 -10   3  -2  533.30   39.32
  10  -3   2  525.96   25.98
 -10   3  -2  511.83   37.57
 -10   3  -3   -6.50    7.56
  10  -3   3    9.11    4.92
  10  -3   4  337.62   22.28
  10  -2 -12  184.13   23.38
  10  -2 -11   -4.36    8.50
 -10   2  11    6.70    6.08
  10  -2 -11    5.77    4.73
 -10   2  11  -11.17    7.80
 -10   2  10  450.94   29.12
  10  -2 -10  420.15   34.75
 -10   2  10  448.65   35.53
  10  -2 -10  497.29   40.32
 -10   2   9  432.43   26.07
  10  -2  -9  411.32   32.52
 -10   2   9  467.51   37.63
  10  -2  -9  433.45   38.09
 -10   2   8    3.42    3.43
  10  -2  -8    5.63    5.09
 -10   2   8    3.57    3.46
 -10   2   8    7.47    8.11
 -10   2   7  355.04   22.44
 -10   2   7  363.36   21.71
  10  -2  -7  353.93   21.18
 -10   2   7  384.10   37.55
  10  -2  -7  378.34   32.70
 -10   2   6  827.70   35.58
  10  -2  -6  818.95   32.38
 -10   2   6  881.29   60.25
  10  -2  -6  918.14   47.46
 -10   2   5  210.69   18.02
  10  -2  -5  192.42   15.28
 -10   2   5  175.70   28.33
  10  -2  -5  202.20   20.54
 -10   2   4  270.93   21.49
  10  -2  -4  287.24   18.36
 -10   2   4  296.38   37.34
  10  -2  -4  302.31   23.33
 -10   2   4  265.14   15.72
 -10   2   3 1318.45   49.61
  10  -2  -3 1336.30   40.06
 -10   2   3 1355.65   81.52
  10  -2  -3 1302.87   45.08
  10  -2  -2  739.86   29.35
 -10   2   2  769.17   59.15
  10  -2  -2  720.60   31.06
 -10   2   2  747.76   39.28
 -10   2   1    0.46    4.39
 -10   2   1    8.17    7.35
  10  -2  -1    0.09    4.24
  10  -2   0 1091.26   36.61
 -10   2   0 1149.71   61.55
 -10   2   0 1151.65   53.05
  10  -2   1 1344.53   41.76
 -10   2  -1 1308.58   61.99
 -10   2  -1 1379.97   62.06
 -10   2  -2  197.62   22.61
  10  -2   2  183.65   15.62
 -10   2  -2  177.73   21.87
 -10   2  -2  188.98   24.31
 -10   2  -3  182.04   22.67
  10  -2   3  200.30   16.77
 -10   2  -3  234.67   27.46
 -10   2  -4  796.24   47.23
  10  -1 -12   -0.10    5.59
 -10   1  11  479.88   31.11
  10  -1 -11  407.50   34.82
 -10   1  11  435.44   34.39
  10  -1 -11  487.52   39.88
 -10   1  10  859.76   38.57
  10  -1 -10  738.14   43.51
 -10   1  10  932.91   52.61
  10  -1 -10  885.60   53.87
  10  -1  -9   57.12   14.01
 -10   1   9   44.29    9.43
  10  -1  -9   56.88   11.57
 -10   1   9   41.79   13.12
  10  -1  -9   40.33    7.47
 -10   1   8  275.85   19.84
 -10   1   8  306.94   20.54
  10  -1  -8  291.88   19.48
 -10   1   8  323.93   34.61
  10  -1  -8  318.08   30.55
 -10   1   7  690.81   31.35
  10  -1  -7  687.31   29.61
 -10   1   7  729.42   54.17
  10  -1  -7  735.23   43.57
 -10   1   6  278.22   20.94
  10  -1  -6  291.23   19.03
 -10   1   6  311.78   37.06
  10  -1  -6  324.37   26.98
 -10   1   5   48.03    8.42
  10  -1  -5   56.23   10.79
 -10   1   5   41.62   13.22
  10  -1  -5   43.58    7.79
  10  -1  -4  980.25   34.35
 -10   1   4  899.90   66.76
  10  -1  -4  883.86   38.15
 -10   1   4  931.62   40.15
  10  -1  -3  924.84   33.36
 -10   1   3  945.96   68.58
  10  -1  -3 1000.40   37.92
 -10   1   3  880.91   41.31
 -10   1   2  123.79   13.03
  10  -1  -2  132.87   12.62
 -10   1   2  130.86   23.16
  10  -1  -2  146.21   13.59
 -10   1   2  148.37   17.63
 -10   1   1  294.72   21.40
  10  -1  -1  301.04   18.97
 -10   1   1  287.75   32.53
 -10   1   1  328.84   27.61
 -10   1   0 1232.54   47.26
  10  -1   0 1209.19   39.52
 -10   1   0 1177.58   61.02
 -10   1   0 1238.40   56.00
 -10   1  -1  468.67   31.15
  10  -1   1  512.44   26.07
 -10   1  -1  488.78   36.87
 -10   1  -1  503.07   37.62
 -10   1  -2    5.96    6.34
 -10   1  -2    1.61    4.26
  10  -1   2   -2.98    4.89
 -10   1  -3  539.90   38.83
  10  -1   3  578.39   29.62
 -10   1  -3  592.69   43.14
  10   0 -12  213.40   24.98
 -10   0  12  188.75   22.82
  10   0 -12  255.46   28.32
 -10   0  11 1047.06   44.85
  10   0 -11  990.94   40.54
  10   0 -11  963.62   50.22
 -10   0  11 1069.91   55.48
  10   0 -11 1103.27   59.03
 -10   0  10  316.91   22.80
  10   0 -10  311.11   21.34
  10   0 -10  315.06   26.50
 -10   0  10  336.25   32.96
  10   0 -10  328.23   32.11
 -10   0   9  209.83   17.73
  10   0  -9  183.05   15.60
  10   0  -9  193.78   18.96
 -10   0   9  215.12   27.46
  10   0  -9  197.59   24.75
 -10   0   8  858.82   34.96
  10   0  -8  887.93   34.04
 -10   0   8  960.04   59.69
  10   0  -8  951.46   51.07
 -10   0   7 1122.01   41.40
  10   0  -7 1252.03   40.04
 -10   0   7 1224.95   71.27
  10   0  -7 1317.67   56.13
 -10   0   6   30.36    7.35
  10   0  -6   37.87    9.26
 -10   0   6   28.07   12.62
  10   0  -6   23.52    5.81
 -10   0   5  653.38   27.69
  10   0  -5  675.59   28.78
 -10   0   5  587.58   53.03
  10   0  -5  667.95   34.45
 -10   0   5  657.77   32.65
 -10   0   4 1419.92   42.45
  10   0  -4 1475.85   42.96
 -10   0   4 1463.16   85.48
  10   0  -4 1389.99   47.05
 -10   0   4 1514.62   52.09
 -10   0   3  212.57   16.36
  10   0  -3  232.40   16.68
 -10   0   3  205.36   31.28
  10   0  -3  227.58   17.33
 -10   0   3  217.01   20.62
 -10   0   2  105.08   12.18
  10   0  -2  111.71   11.63
 -10   0   2   83.83   18.62
  10   0  -2  113.11   11.72
 -10   0   2  103.25   14.92
 -10   0   1  989.44   39.71
  10   0  -1 1032.64   36.71
 -10   0   1 1047.33   60.82
 -10   0   1 1052.14   49.93
 -10   0   0  676.42   34.56
  10   0   0  696.67   30.94
 -10   0   0  689.78   46.16
 -10   0   0  717.97   43.76
 -10   0  -1   49.34   12.65
 -10   0  -1   31.04    7.78
 -10   0  -1   41.07   11.70
  10   0   1   44.02    7.94
 -10   0  -2  193.99   20.89
  10   0   2  180.29   16.36
 -10   0  -2  159.17   22.37
 -10   0  -3  528.47   37.54
  10   1 -12  489.11   36.59
 -10  -1  12  539.13   38.88
  10   1 -12  582.61   43.27
 -10  -1  11  506.10   30.28
  10   1 -11  497.09   28.24
  10   1 -11  452.61   32.59
 -10  -1  11  443.00   36.75
  10   1 -11  472.18   39.71
  10   1 -10    9.26    5.49
  10   1 -10    8.21    4.93
 -10  -1  10   19.31    9.27
  10   1 -10    6.71    4.21
  10   1  -9  617.94   28.94
  10   1  -9  639.16   32.09
 -10  -1   9  703.64   49.58
  10   1  -9  676.36   44.53
  10   1  -8 1234.50   40.27
 -10  -1   8 1267.42   69.41
  10   1  -8 1288.80   58.35
 -10  -1   8 1229.85   40.93
 -10  -1   7  466.82   23.94
  10   1  -7  454.76   23.76
 -10  -1   7  499.01   45.89
  10   1  -7  451.12   31.97
 -10  -1   7  520.35   27.39
 -10  -1   6  185.80   15.04
  10   1  -6  176.83   14.53
 -10  -1   6  168.33   28.40
  10   1  -6  184.54   19.17
 -10  -1   6  191.29   17.78
 -10  -1   5 1636.33   46.32
  10   1  -5 1605.42   45.64
 -10  -1   5 1499.16   85.14
  10   1  -5 1591.99   52.57
 -10  -1   5 1639.97   53.26
 -10  -1   4 1179.76   39.55
  10   1  -4 1178.40   38.81
 -10  -1   4 1090.32   73.88
  10   1  -4 1149.35   41.44
 -10  -1   4 1098.80   45.27
 -10  -1   3   11.72    5.77
 -10  -1   3   12.94    3.11
  10   1  -3   18.16    5.66
 -10  -1   3    6.72    8.63
  10   1  -3    6.40    3.53
 -10  -1   2  657.87   30.84
  10   1  -2  698.07   30.45
 -10  -1   2  658.65   50.66
  10   1  -2  659.89   28.62
 -10  -1   2  688.54   40.01
 -10  -1   1 1192.06   43.95
  10   1  -1 1213.63   41.54
 -10  -1   1 1134.36   61.32
 -10  -1   1 1221.43   56.36
 -10  -1   0  116.99   14.28
  10   1   0  123.44   13.57
 -10  -1   0  137.32   20.14
 -10  -1   0  134.96   19.84
 -10  -1  -1   75.38   15.89
 -10  -1  -1   85.98   13.43
 -10  -1  -1   75.31   14.62
  10   1   1   83.22   10.98
 -10  -1  -2  749.07   41.38
  10   1   2  735.15   35.01
 -10  -1  -2  630.92   46.25
  10   2 -12  469.56   34.70
 -10  -2  12  459.68   36.51
  10   2 -11   41.38   12.02
  10   2 -11   40.56    9.76
 -10  -2  11   48.63   12.75
  10   2 -10  329.91   21.70
  10   2 -10  297.70   23.11
 -10  -2  10  294.46   31.87
  10   2 -10  302.95   30.11
 -10  -2   9  543.10   27.57
  10   2  -9  602.05   28.51
 -10  -2   9  589.04   45.73
  10   2  -9  556.79   39.15
 -10  -2   8  644.46   29.37
  10   2  -8  676.03   29.61
 -10  -2   8  708.80   52.91
  10   2  -8  718.69   41.84
 -10  -2   7    5.58    4.08
 -10  -2   7    2.68    3.00
  10   2  -7    0.04    5.22
 -10  -2   7   -1.24    8.11
  10   2  -7    5.16    3.61
 -10  -2   6  594.99   28.19
  10   2  -6  596.00   27.57
 -10  -2   6  520.93   49.36
  10   2  -6  600.05   33.43
 -10  -2   6  582.33   30.67
 -10  -2   5 1396.33   43.59
  10   2  -5 1394.91   42.78
  10   2  -5 1405.83   48.37
 -10  -2   5 1476.65   51.84
 -10  -2   4  311.56   20.59
  10   2  -4  291.61   19.27
 -10  -2   4  281.03   36.58
  10   2  -4  295.40   20.76
 -10  -2   4  340.57   26.10
 -10  -2   3  124.52   13.42
  10   2  -3  139.34   13.74
 -10  -2   3  133.06   24.45
  10   2  -3  121.18   12.94
 -10  -2   3  132.96   17.51
 -10  -2   2  865.33   36.31
  10   2  -2  862.66   35.14
 -10  -2   2  811.76   54.57
  10   2  -2  884.86   33.38
 -10  -2   2  960.27   49.34
 -10  -2   1  719.67   34.16
  10   2  -1  693.55   32.30
 -10  -2   1  653.87   45.32
 -10  -2   1  722.22   45.28
 -10  -2   0   10.03    7.89
 -10  -2   0    3.89    3.86
 -10  -2   0    9.47    6.65
  10   2   0    2.99    4.65
 -10  -2  -1  420.00   28.95
  10   2   1  439.05   27.17
 -10  -2  -1  431.63   38.35
  10   3 -12  168.09   20.16
 -10  -3  12  179.91   23.86
  10   3 -11   13.01    6.99
  10   3 -11   23.89    7.78
 -10  -3  11   13.09    8.04
 -10  -3  10  662.83   32.07
  10   3 -10  738.69   34.82
 -10  -3  10  772.75   51.97
  10   3 -10  777.97   47.68
 -10  -3   9  649.75   30.88
  10   3  -9  741.84   32.21
 -10  -3   9  799.10   55.54
  10   3  -9  731.77   43.97
 -10  -3   8   78.55   10.70
  10   3  -8   86.85   10.93
 -10  -3   8  108.68   22.68
  10   3  -8  114.24   16.53
 -10  -3   7  276.43   19.77
  10   3  -7  286.35   19.19
 -10  -3   7  267.88   35.43
  10   3  -7  322.69   25.65
 -10  -3   7  308.67   21.75
 -10  -3   6  860.53   34.89
  10   3  -6  837.73   33.25
  10   3  -6  903.00   40.64
 -10  -3   6  930.14   40.28
 -10  -3   5  446.43   25.11
  10   3  -5  455.45   24.49
 -10  -3   5  404.41   45.64
  10   3  -5  436.16   26.58
 -10  -3   5  506.92   31.12
 -10  -3   4   11.02    5.76
 -10  -3   4    1.35    3.21
  10   3  -4   10.64    5.13
 -10  -3   4    3.16    8.40
  10   3  -4    8.68    3.49
 -10  -3   3  339.82   22.75
  10   3  -3  347.25   22.32
 -10  -3   3  309.38   35.48
  10   3  -3  337.67   21.59
 -10  -3   3  317.44   27.92
 -10  -3   2  756.20   34.37
  10   3  -2  708.35   32.61
 -10  -3   2  634.16   46.97
  10   3  -2  658.88   29.59
 -10  -3   2  761.70   45.83
 -10  -3   1  125.13   14.52
  10   3  -1  112.70   13.43
 -10  -3   1  109.07   18.19
 -10  -3   1  141.81   21.55
 -10  -3   0   30.77   10.96
 -10  -3   0   21.25    6.48
 -10  -3   0   25.19    9.69
  10   3   0   27.88    7.34
 -10  -4  11  258.77   30.49
 -10  -4  10  776.23   35.46
 -10  -4  10  925.11   60.51
  10   4 -10  921.77   51.42
 -10  -4   9  535.04   28.68
 -10  -4   9  625.60   53.02
  10   4  -9  553.74   38.37
 -10  -4   8   60.26    9.72
  10   4  -8   74.07   13.48
 -10  -4   8   81.62   20.59
 -10  -4   7  820.57   35.14
  10   4  -7  847.86   34.76
 -10  -4   7  893.32   69.94
  10   4  -7  877.76   42.57
 -10  -4   7  960.14   40.34
 -10  -4   6  912.77   37.10
  10   4  -6  911.80   36.03
 -10  -4   6  903.76   72.46
  10   4  -6  845.76   39.62
 -10  -4   6  912.73   41.55
 -10  -4   5   53.34   10.95
 -10  -4   5   35.51    7.33
  10   4  -5   46.25    9.19
 -10  -4   5   34.39   15.34
  10   4  -5   35.78    7.48
 -10  -4   4  295.00   21.05
  10   4  -4  284.61   20.51
 -10  -4   4  283.29   37.08
  10   4  -4  295.13   21.39
 -10  -4   4  306.14   26.89
 -10  -4   3  487.74   27.81
  10   4  -3  459.37   26.85
 -10  -4   3  482.58   44.96
  10   4  -3  505.63   27.11
 -10  -4   3  571.73   39.06
 -10  -4   2  285.15   21.84
  10   4  -2  312.99   22.79
 -10  -4   2  276.77   31.35
  10   4  -2  322.04   21.13
 -10  -4   2  354.09   32.90
 -10  -4   1   25.59   11.13
 -10  -4   1    6.45    4.11
 -10  -4   1   21.05    8.25
  10   4  -1   13.68    5.83
 -10  -5  10  730.83   35.34
 -10  -5   9   65.78   10.64
 -10  -5   8  290.04   21.51
 -10  -5   8  332.03   44.40
  10   5  -8  357.84   28.85
 -10  -5   8  314.87   21.66
 -10  -5   7  819.65   36.13
 -10  -5   7  936.53   77.23
  10   5  -7  804.84   41.13
 -10  -5   7  819.33   38.90
 -10  -5   6  409.86   25.46
  10   5  -6  399.67   24.64
 -10  -5   6  404.37   53.20
  10   5  -6  426.09   28.49
 -10  -5   6  436.62   29.58
 -10  -5   5   77.69   11.32
  10   5  -5   83.59   11.58
 -10  -5   5   83.05   21.78
  10   5  -5   83.53   12.41
 -10  -5   5   98.20   15.23
 -10  -5   4  684.21   33.34
  10   5  -4  647.48   32.80
 -10  -5   4  694.23   60.46
  10   5  -4  688.92   33.41
 -10  -5   4  722.20   43.51
 -10  -5   3  716.76   34.60
  10   5  -3  659.54   34.19
 -10  -5   3  675.39   54.58
  10   5  -3  703.28   32.97
 -10  -5   3  750.64   47.51
 -10  -5   2    2.54    7.80
  10   5  -2   -6.93    5.67
 -10  -5   1  353.60   33.27
 -10  -6   9   43.54    8.51
 -10  -6   8  438.40   26.62
 -10  -6   6   12.66    6.35
  10   6  -5  338.10   24.78
 -10  -6   5  362.58   30.30
  10   6  -4  356.06   26.38
  11  -7  -3   34.47   10.75
  11  -6  -5  654.41   47.80
 -11   6   5  682.31   32.44
  11  -6  -4  152.61   15.06
  11  -6  -4  142.97   20.48
 -11   6   4  138.78   14.44
  11  -6  -3   79.66   10.56
  11  -6  -3   88.79   15.01
 -11   6   3   88.89   11.44
  11  -6  -2  886.13   35.19
 -11   6   2  886.67   35.66
  11  -6  -1  631.91   28.91
 -11   5   9  503.12   30.39
 -11   5   8   70.26   10.96
  11  -5  -7  234.91   29.95
 -11   5   7  227.83   30.73
 -11   5   7  217.13   18.80
 -11   5   6  565.17   33.38
  11  -5  -6  557.51   28.74
  11  -5  -6  624.02   47.16
 -11   5   6  622.64   52.21
 -11   5   6  563.38   29.25
 -11   5   5  258.51   23.45
  11  -5  -5  293.45   20.46
  11  -5  -5  300.46   29.73
 -11   5   5  281.81   36.91
 -11   5   5  287.04   20.40
 -11   5   4   -4.36    6.19
  11  -5  -4    1.59    5.14
 -11   5   4    1.88    8.29
  11  -5  -4    2.19    3.39
 -11   5   4    1.14    3.24
 -11   5   3  346.83   28.03
  11  -5  -3  376.23   22.83
 -11   5   3  357.27   42.88
  11  -5  -3  365.75   27.98
 -11   5   3  383.03   22.20
 -11   5   2  859.26   45.95
  11  -5  -2  864.99   34.36
 -11   5   2  937.80   71.08
 -11   5   2  910.40   33.96
  11  -5  -1  233.57   17.24
 -11   5   1  249.63   34.67
  11  -5   0   80.77   10.30
 -11   5   0   95.99   20.95
 -11   4   9  402.93   26.70
 -11   4   9  440.69   38.41
  11  -4  -8   47.07   13.89
 -11   4   8   61.47   10.67
 -11   4   8   58.34   14.92
 -11   4   7  601.36   33.36
 -11   4   7  609.02   29.43
  11  -4  -7  589.18   29.45
 -11   4   7  686.50   52.93
  11  -4  -7  660.69   48.59
 -11   4   6  684.26   35.80
  11  -4  -6  682.90   31.73
 -11   4   6  729.67   56.68
  11  -4  -6  719.69   47.15
 -11   4   6  682.30   31.09
 -11   4   5   54.28   10.74
  11  -4  -5   52.29   11.84
 -11   4   5   45.60   15.40
  11  -4  -5   60.39    9.91
 -11   4   5   39.64    7.54
 -11   4   4  277.54   24.03
  11  -4  -4  299.03   20.23
 -11   4   4  247.11   35.27
  11  -4  -4  323.05   26.89
 -11   4   4  276.65   18.37
 -11   4   3 1226.88   52.09
  11  -4  -3 1254.14   41.57
 -11   4   3 1316.70   83.25
  11  -4  -3 1196.51   47.79
 -11   4   3 1238.48   38.42
 -11   4   2  548.32   35.75
  11  -4  -2  561.42   27.04
 -11   4   2  631.74   56.87
 -11   4   1    7.92    5.27
 -11   4   1   10.87    7.63
  11  -4  -1    9.62    3.48
  11  -4   0  513.32   25.74
 -11   4   0  518.33   44.91
 -11   4  -1  516.39   41.99
 -11   3  10  699.78   46.81
 -11   3   9   33.19    8.68
 -11   3   9   25.28   10.51
 -11   3   8  360.07   25.65
 -11   3   8  382.81   24.22
  11  -3  -8  371.70   23.45
 -11   3   8  410.45   39.65
  11  -3  -8  362.52   35.74
 -11   3   7 1208.47   46.06
  11  -3  -7 1073.99   40.38
 -11   3   7 1250.58   71.87
  11  -3  -7 1252.13   63.20
 -11   3   6  747.80   37.07
  11  -3  -6  732.90   32.72
 -11   3   6  760.55   58.49
  11  -3  -6  798.49   46.92
 -11   3   6  703.66   30.70
 -11   3   5   76.29   12.41
  11  -3  -5   80.91   14.26
 -11   3   5   73.84   19.42
  11  -3  -5   73.68   10.21
 -11   3   5   76.37    9.67
 -11   3   4 1184.59   49.33
  11  -3  -4 1288.14   42.38
 -11   3   4 1209.42   79.25
  11  -3  -4 1206.12   49.24
 -11   3   3 1068.83   48.94
  11  -3  -3 1166.23   39.98
  11  -3  -3 1087.98   43.71
 -11   3   2    0.96    4.62
 -11   3   2    9.60    9.58
  11  -3  -2    5.50    4.38
 -11   3   1  560.15   37.92
  11  -3  -1  522.68   25.91
 -11   3   1  627.24   50.91
 -11   3   0  884.83   50.28
  11  -3   0  846.56   33.85
 -11   3   0  908.37   57.03
 -11   3  -1  249.14   28.29
  11  -2 -11  512.84   39.49
 -11   2  11  541.40   40.63
 -11   2  10  227.23   20.59
  11  -2 -10  217.05   18.96
 -11   2  10  206.48   26.60
 -11   2   9  118.02   14.28
  11  -2  -9  105.90   13.17
 -11   2   9  112.80   20.02
  11  -2  -9  137.95   22.32
 -11   2   8  791.49   36.38
  11  -2  -8  801.42   34.88
 -11   2   8  918.53   60.33
  11  -2  -8  852.52   52.79
 -11   2   7  972.94   41.34
  11  -2  -7 1058.98   39.33
 -11   2   7 1047.39   67.56
  11  -2  -7 1015.59   54.57
 -11   2   6   39.09    8.52
  11  -2  -6   44.87   11.18
 -11   2   6   35.61   14.83
  11  -2  -6   38.28    7.53
 -11   2   5  552.97   32.63
  11  -2  -5  566.40   28.05
 -11   2   5  542.20   52.62
  11  -2  -5  599.60   35.45
 -11   2   4 1231.80   50.25
  11  -2  -4 1191.82   41.01
 -11   2   4 1252.23   81.59
  11  -2  -4 1161.28   46.44
 -11   2   3  340.78   27.39
  11  -2  -3  334.77   21.25
 -11   2   3  366.59   44.02
  11  -2  -3  362.11   23.75
 -11   2   2   73.74   13.43
 -11   2   2   67.98   18.27
  11  -2  -2   58.85    8.82
  11  -2  -1  820.70   33.70
 -11   2   1  866.06   58.88
 -11   2   1  874.90   47.70
  11  -2   0  584.47   28.37
 -11   2   0  574.58   44.70
 -11   2   0  572.53   41.02
 -11   2  -1    5.64    5.16
 -11   1  11  525.20   40.55
 -11   1  10   44.11   10.31
 -11   1  10   49.43   13.51
  11  -1 -10   27.24    7.24
  11  -1  -9  678.99   32.72
  11  -1  -9  707.01   48.80
 -11   1   8  790.63   35.27
  11  -1  -8  862.56   35.86
 -11   1   8  871.91   60.24
  11  -1  -8  798.17   48.78
 -11   1   7  244.78   20.94
  11  -1  -7  262.61   19.46
 -11   1   7  250.22   34.55
  11  -1  -7  268.07   26.49
 -11   1   6  232.54   20.23
  11  -1  -6  265.09   19.23
 -11   1   6  194.25   31.55
  11  -1  -6  263.81   24.59
 -11   1   5  643.31   35.12
  11  -1  -5  686.63   31.06
 -11   1   5  619.37   57.67
  11  -1  -4  619.92   29.45
 -11   1   4  662.09   61.00
  11  -1  -4  604.33   32.25
 -11   1   4  603.69   35.31
 -11   1   3   15.66    7.07
  11  -1  -3   15.66    4.80
 -11   1   3   11.23    9.95
  11  -1  -3    9.40    3.80
  11  -1  -2  221.08   17.70
 -11   1   2  221.15   31.88
 -11   1   2  255.80   25.08
  11  -1  -1  693.93   31.35
 -11   1   1  684.84   51.15
 -11   1   1  693.81   43.27
  11  -1   0  133.33   14.15
 -11   1   0  121.04   20.32
 -11   1   0  125.90   20.21
 -11   1  -1   66.39   14.18
 -11   1  -2  495.54   37.83
 -11   0  11   72.87   16.46
  11   0 -11   62.89   11.03
  11   0 -10  396.39   25.71
 -11   0  10  405.89   38.28
  11   0  -9 1065.77   40.94
 -11   0   9 1167.38   68.37
  11   0  -9 1097.39   58.82
 -11   0   8  601.76   30.60
  11   0  -8  609.40   30.02
 -11   0   8  611.32   52.66
  11   0  -8  649.53   43.39
 -11   0   7    4.24    3.50
  11   0  -7   12.30    5.95
 -11   0   7   19.48   12.48
  11   0  -7    6.36    4.59
  11   0  -6  826.16   34.35
 -11   0   6  754.55   62.83
  11   0  -6  778.06   41.07
 -11   0   6  790.13   37.88
  11   0  -5  771.54   33.17
 -11   0   5  754.42   65.40
  11   0  -5  766.20   37.50
 -11   0   5  755.51   38.55
  11   0  -4   88.95   11.43
 -11   0   4   99.24   24.32
  11   0  -4   93.04   12.25
 -11   0   4   98.47   15.06
  11   0  -3  147.52   14.50
 -11   0   3  174.07   29.39
  11   0  -3  166.97   15.45
 -11   0   3  161.92   19.39
 -11   0   2  594.38   31.76
  11   0  -2  590.51   29.45
 -11   0   2  566.26   49.24
 -11   0   2  674.36   41.41
 -11   0   1  202.57   19.33
  11   0  -1  206.31   17.52
 -11   0   1  224.97   28.84
 -11   0   1  237.43   25.94
 -11   0   0    8.32    3.69
 -11   0   0   20.24    8.98
 -11   0  -1  133.12   17.78
  11   1 -11   17.97    6.64
  11   1 -10  530.89   29.34
 -11  -1  10  494.82   43.99
  11   1  -9  743.30   34.06
 -11  -1   9  687.17   53.86
  11   1  -9  709.33   45.83
  11   1  -8  231.31   18.44
 -11  -1   8  184.98   29.50
  11   1  -8  230.73   25.29
  11   1  -7  499.30   26.87
 -11  -1   7  444.78   47.37
  11   1  -7  544.58   35.75
 -11  -1   7  477.46   29.19
  11   1  -6 1028.08   38.79
  11   1  -6 1056.77   45.92
 -11  -1   6  995.90   43.44
 -11  -1   5  490.85   26.95
  11   1  -5  483.66   26.59
 -11  -1   5  460.80   50.78
  11   1  -5  519.84   30.17
 -11  -1   5  481.58   31.21
 -11  -1   4   53.59   11.56
 -11  -1   4   43.93    8.25
  11   1  -4   47.44    9.09
 -11  -1   4   41.23   16.41
  11   1  -4   44.33    8.56
 -11  -1   3  574.71   30.48
  11   1  -3  643.59   30.87
 -11  -1   3  572.84   51.43
  11   1  -3  585.25   29.05
 -11  -1   3  626.29   38.87
 -11  -1   2  446.39   27.75
  11   1  -2  476.91   27.24
 -11  -1   2  492.76   44.82
 -11  -1   2  507.89   36.54
 -11  -1   1    8.94    7.47
 -11  -1   1   -3.36    5.09
 -11  -1   1   -0.94    6.07
 -11  -1   0  250.83   23.15
 -11  -1   0  245.49   27.63
  11   2 -10  660.25   33.07
  11   2  -9  383.09   24.37
 -11  -2   9  410.32   42.65
  11   2  -8   15.27    8.51
 -11  -2   8    8.61    9.87
  11   2  -8   10.50    3.77
 -11  -2   7  526.13   28.18
  11   2  -7  525.16   27.92
 -11  -2   7  535.99   52.83
  11   2  -7  594.36   36.12
 -11  -2   7  589.35   32.07
 -11  -2   6  413.99   25.12
  11   2  -6  394.08   24.05
 -11  -2   6  337.13   43.40
  11   2  -6  366.57   26.82
 -11  -2   6  397.51   27.37
 -11  -2   5   30.30    8.88
 -11  -2   5   30.74    7.35
  11   2  -5   25.91    7.30
 -11  -2   5   30.63   16.12
  11   2  -5   30.91    6.76
 -11  -2   4  284.96   21.64
  11   2  -4  269.65   20.30
 -11  -2   4  240.14   34.80
  11   2  -4  269.71   20.56
 -11  -2   4  294.24   25.95
 -11  -2   3  639.74   32.99
  11   2  -3  651.52   32.29
 -11  -2   3  657.95   54.77
  11   2  -3  617.86   30.22
 -11  -2   3  702.94   42.81
 -11  -2   2  179.88   18.06
  11   2  -2  171.80   16.64
 -11  -2   2  169.17   25.62
 -11  -2   2  204.16   24.50
 -11  -2   1  139.58   16.31
 -11  -2   1  152.14   22.64
 -11  -3   9   27.54    7.19
 -11  -3   8  342.52   23.42
  11   3  -8  350.26   23.21
 -11  -3   7  382.82   24.69
  11   3  -7  395.17   24.81
 -11  -3   7  353.58   43.69
  11   3  -7  394.29   29.80
 -11  -3   7  401.08   27.12
 -11  -3   6   72.30   11.01
  11   3  -6   67.38   11.59
  11   3  -6   74.93   11.12
 -11  -3   6   72.54   20.60
 -11  -3   6   85.38   13.46
 -11  -3   5   66.94   12.42
 -11  -3   5   59.75    9.91
  11   3  -5   63.55   10.67
 -11  -3   5   65.10   19.45
  11   3  -5   58.80    9.79
 -11  -3   4  343.52   24.34
  11   3  -4  324.31   23.00
 -11  -3   4  331.25   40.52
  11   3  -4  322.74   22.94
 -11  -3   4  340.36   30.27
 -11  -3   3  174.14   17.73
 -11  -3   3  162.42   26.32
  11   3  -3  181.02   16.63
 -11  -3   2    0.02    6.43
 -11  -4   8  679.06   33.84
 -11  -4   7  175.55   17.20
  11   4  -7  153.82   16.00
 -11  -4   7  190.14   18.99
 -11  -4   6   24.30    7.60
 -11  -4   6    8.01    4.48
  11   4  -6   18.02    6.45
  11   4  -5  400.20   25.90
  11   4  -5  368.08   25.84
 -11  -4   5  438.70   32.81
  11   4  -4  249.71   20.53
 -12   4   6   10.32    5.01
  12  -4  -4  678.62   38.64
 -12   3   7  190.28   16.75
  12  -3  -5  939.59   46.69
  12  -3  -4  421.52   28.98
 -12   2   8  353.32   25.73
 -12   2   7    1.35    4.32
 -12   2   6  689.59   37.73
  12  -2  -6  736.91   42.57
  12  -2  -5  502.92   32.90
  12  -2  -4   28.27    8.20
 -12   1   8    9.42    5.35
 -12   1   7  228.50   21.28
 -12   1   6  310.65   26.73
  12  -1  -6  347.88   28.46
  12  -1  -5   61.92   11.41
  12  -1  -4   50.93   10.08
 -12   0   7  482.19   30.85
 -12   0   6  128.20   16.60
  12   0  -5   -0.38    4.73
  12   0  -4  361.63   24.96
 -12  -1   7  415.98   28.99
  12   1  -4  691.92   34.02
   0   0   0    0.00    0.00


TITL LBX-062abs in P-1
REM P-1 (#2 in standard setting)
CELL 0.71073   8.248585   8.863589  10.612050  99.2278 109.6505  96.0166
ZERR    1.00   0.000196   0.000265   0.000272   0.0024   0.0023   0.0022
LATT  1
SFAC C H Cl Ir
UNIT 28.00 42.00 4.00 2.00
TREF
HKLF 4
END
_computing_structure_solution     'SHELXT 2014/5 (Sheldrick, 2014)'
;
_shelx_hkl_checksum              10326
_shelx_shelxl_version_number     2014/7
_olex2_submission_special_instructions 'No special instructions were received'
_oxdiff_exptl_absorpt_empirical_details
;
Empirical correction (ABSPACK) includes:
- Absorption correction using spherical harmonics
- Frame scaling
;
_oxdiff_exptl_absorpt_empirical_full_max 3.156
_oxdiff_exptl_absorpt_empirical_full_min 0.627
loop_
_space_group_symop_operation_xyz
'x, y, z'
'-x, -y, -z'
loop_
_atom_site_label
_atom_site_type_symbol
_atom_site_fract_x
_atom_site_fract_y
_atom_site_fract_z
_atom_site_U_iso_or_equiv
_atom_site_adp_type
_atom_site_occupancy
_atom_site_site_symmetry_order
_atom_site_calc_flag
_atom_site_refinement_flags_posn
Ir1 Ir 0.79177(2) 0.40754(2) 0.85420(2) 0.01005(3) Uani 1 1 d .
Cl1 Cl 0.74773(8) 0.66009(6) 0.81043(7) 0.02091(11) Uani 1 1 d .
Cl2 Cl 1.10239(6) 0.48533(6) 0.89680(5) 0.01499(9) Uani 1 1 d .
C1 C 0.7826(3) 0.1721(2) 0.7576(2) 0.0128(4) Uani 1 1 d .
C2 C 0.7247(3) 0.1713(2) 0.8708(2) 0.0130(4) Uani 1 1 d .
C3 C 0.5721(3) 0.2482(2) 0.8457(2) 0.0134(4) Uani 1 1 d .
C4 C 0.5360(3) 0.2932(3) 0.7158(2) 0.0141(4) Uani 1 1 d .
C5 C 0.6694(3) 0.2517(2) 0.6618(2) 0.0132(4) Uani 1 1 d .
C6 C 0.9335(3) 0.0972(3) 0.7455(3) 0.0184(4) Uani 1 1 d .
H6A H 0.9657 0.1286 0.6714 0.028 Uiso 1 1 calc GR
H6B H 0.8998 -0.0159 0.7253 0.028 Uiso 1 1 calc GR
H6C H 1.0335 0.1300 0.8318 0.028 Uiso 1 1 calc GR
C7 C 0.8030(3) 0.0982(3) 0.9901(2) 0.0182(4) Uani 1 1 d .
H7A H 0.9307 0.1233 1.0219 0.027 Uiso 1 1 calc GR
H7B H 0.7663 -0.0146 0.9621 0.027 Uiso 1 1 calc GR
H7C H 0.7634 0.1380 1.0643 0.027 Uiso 1 1 calc GR
C8 C 0.4718(3) 0.2708(3) 0.9398(3) 0.0198(4) Uani 1 1 d .
H8A H 0.5536 0.3043 1.0345 0.030 Uiso 1 1 calc GR
H8B H 0.3972 0.1727 0.9301 0.030 Uiso 1 1 calc GR
H8C H 0.3989 0.3500 0.9163 0.030 Uiso 1 1 calc GR
C9 C 0.3855(3) 0.3684(3) 0.6480(3) 0.0220(5) Uani 1 1 d .
H9A H 0.3427 0.4190 0.7168 0.033 Uiso 1 1 calc GR
H9B H 0.2915 0.2895 0.5797 0.033 Uiso 1 1 calc GR
H9C H 0.4234 0.4459 0.6029 0.033 Uiso 1 1 calc GR
C10 C 0.6724(3) 0.2707(3) 0.5236(2) 0.0171(4) Uani 1 1 d .
H10 H 0.5867 0.3398 0.4886 0.021 Uiso 1 1 calc R
C11 C 0.8524(3) 0.3433(3) 0.5193(2) 0.0178(4) Uani 1 1 d .
H11A H 0.8493 0.4495 0.5017 0.021 Uiso 1 1 calc R
H11B H 0.9483 0.3478 0.6070 0.021 Uiso 1 1 calc R
C12 C 0.8781(4) 0.2351(4) 0.4018(3) 0.0342(7) Uani 1 1 d .
H12A H 0.9264 0.2958 0.3480 0.041 Uiso 1 1 calc R
H12B H 0.9590 0.1641 0.4377 0.041 Uiso 1 1 calc R
C13 C 0.6969(4) 0.1441(4) 0.3136(3) 0.0349(7) Uani 1 1 d .
H13A H 0.7047 0.0451 0.2594 0.042 Uiso 1 1 calc R
H13B H 0.6292 0.2052 0.2507 0.042 Uiso 1 1 calc R
C14 C 0.6142(4) 0.1153(3) 0.4183(3) 0.0291(6) Uani 1 1 d .
H14A H 0.6578 0.0294 0.4617 0.035 Uiso 1 1 calc R
H14B H 0.4853 0.0902 0.3752 0.035 Uiso 1 1 calc R
loop_
_atom_site_aniso_label
_atom_site_aniso_U_11
_atom_site_aniso_U_22
_atom_site_aniso_U_33
_atom_site_aniso_U_23
_atom_site_aniso_U_13
_atom_site_aniso_U_12
Ir1 0.00905(4) 0.01042(4) 0.01161(4) 0.00165(3) 0.00495(3) 0.00243(3)
Cl1 0.0210(3) 0.0131(2) 0.0285(3) 0.0064(2) 0.0074(2) 0.00462(19)
Cl2 0.0112(2) 0.0197(2) 0.0135(2) -0.00190(18) 0.00674(17) 0.00051(17)
C1 0.0143(9) 0.0125(9) 0.0130(9) 0.0020(7) 0.0070(8) 0.0026(7)
C2 0.0142(9) 0.0109(8) 0.0145(9) 0.0020(7) 0.0063(8) 0.0021(7)
C3 0.0119(9) 0.0127(9) 0.0163(9) 0.0019(7) 0.0070(8) 0.0005(7)
C4 0.0123(9) 0.0146(9) 0.0146(9) 0.0020(7) 0.0046(8) 0.0019(7)
C5 0.0148(9) 0.0129(9) 0.0117(9) 0.0015(7) 0.0053(7) 0.0014(7)
C6 0.0208(10) 0.0182(10) 0.0218(11) 0.0053(8) 0.0124(9) 0.0099(8)
C7 0.0223(11) 0.0182(10) 0.0178(10) 0.0084(8) 0.0090(9) 0.0058(8)
C8 0.0178(10) 0.0197(10) 0.0258(12) 0.0029(9) 0.0141(9) 0.0021(8)
C9 0.0129(10) 0.0245(11) 0.0271(12) 0.0086(10) 0.0033(9) 0.0060(9)
C10 0.0172(10) 0.0193(10) 0.0130(9) 0.0038(8) 0.0043(8) -0.0010(8)
C11 0.0184(10) 0.0189(10) 0.0163(10) 0.0033(8) 0.0072(8) 0.0017(8)
C12 0.0372(15) 0.0371(15) 0.0297(14) -0.0046(12) 0.0227(13) -0.0054(13)
C13 0.0454(17) 0.0392(16) 0.0164(11) -0.0040(11) 0.0176(12) -0.0149(13)
C14 0.0363(14) 0.0296(13) 0.0152(10) -0.0028(10) 0.0103(10) -0.0128(11)
loop_
_atom_type_symbol
_atom_type_description
_atom_type_scat_dispersion_real
_atom_type_scat_dispersion_imag
_atom_type_scat_source
C C 0.0033 0.0016 'International Tables Vol C Tables 4.2.6.8 and 6.1.1.4'
H H 0.0000 0.0000 'International Tables Vol C Tables 4.2.6.8 and 6.1.1.4'
Cl Cl 0.1484 0.1585 'International Tables Vol C Tables 4.2.6.8 and 6.1.1.4'
Ir Ir -1.4442 7.9887 'International Tables Vol C Tables 4.2.6.8 and 6.1.1.4'
loop_
_exptl_crystal_face_index_h
_exptl_crystal_face_index_k
_exptl_crystal_face_index_l
_exptl_crystal_face_perp_dist
0 -1 -5 0.0967
-5 4 -2 0.2465
4 -2 5 0.2040
0 -5 3 0.1705
-5 3 1 0.2581
1 -1 0 0.2934
-5 -2 4 0.3392
-4 5 3 0.2384
1 1 5 0.0827
5 0 -3 0.2944
0 5 -4 0.2056
0 -2 5 0.1554
1 0 1 0.1764
-1 1 5 0.0639
2 0 -5 0.2156
0 -5 -2 0.1444
loop_
_geom_angle_atom_site_label_1
_geom_angle_atom_site_label_2
_geom_angle_atom_site_label_3
_geom_angle
_geom_angle_site_symmetry_3
Cl1 Ir1 Cl2 88.32(2) .
Cl1 Ir1 Cl2 90.06(2) 2_767
Cl2 Ir1 Cl2 80.516(18) 2_767
C1 Ir1 Cl1 143.53(6) .
C1 Ir1 Cl2 126.25(6) 2_767
C1 Ir1 Cl2 94.04(6) .
C1 Ir1 C2 38.88(8) .
C2 Ir1 Cl1 158.05(6) .
C2 Ir1 Cl2 113.58(6) .
C2 Ir1 Cl2 94.92(6) 2_767
C3 Ir1 Cl1 118.54(6) .
C3 Ir1 Cl2 96.52(6) 2_767
C3 Ir1 Cl2 153.07(6) .
C3 Ir1 C1 65.99(8) .
C3 Ir1 C2 39.67(8) .
C3 Ir1 C4 39.18(8) .
C4 Ir1 Cl1 94.68(6) .
C4 Ir1 Cl2 130.08(6) 2_767
C4 Ir1 Cl2 149.15(6) .
C4 Ir1 C1 65.94(8) .
C4 Ir1 C2 65.91(8) .
C5 Ir1 Cl1 105.60(6) .
C5 Ir1 Cl2 161.04(6) 2_767
C5 Ir1 Cl2 110.01(6) .
C5 Ir1 C1 39.91(8) .
C5 Ir1 C2 66.60(8) .
C5 Ir1 C3 66.80(8) .
C5 Ir1 C4 39.76(8) .
Ir1 Cl2 Ir1 99.483(18) 2_767
C2 C1 Ir1 70.77(12) .
C2 C1 C5 108.62(18) .
C2 C1 C6 122.89(19) .
C5 C1 Ir1 68.94(12) .
C5 C1 C6 128.47(19) .
C6 C1 Ir1 127.31(16) .
C1 C2 Ir1 70.36(12) .
C1 C2 C3 107.86(18) .
C1 C2 C7 125.7(2) .
C3 C2 Ir1 69.62(11) .
C3 C2 C7 126.38(19) .
C7 C2 Ir1 127.49(16) .
C2 C3 Ir1 70.71(11) .
C2 C3 C8 124.7(2) .
C4 C3 Ir1 70.63(12) .
C4 C3 C2 107.85(18) .
C4 C3 C8 127.5(2) .
C8 C3 Ir1 125.23(16) .
C3 C4 Ir1 70.19(12) .
C3 C4 C5 108.57(18) .
C3 C4 C9 125.4(2) .
C5 C4 Ir1 69.14(12) .
C5 C4 C9 126.1(2) .
C9 C4 Ir1 127.00(16) .
C1 C5 Ir1 71.15(12) .
C1 C5 C10 127.5(2) .
C4 C5 Ir1 71.10(12) .
C4 C5 C1 107.00(18) .
C4 C5 C10 125.10(19) .
C10 C5 Ir1 128.73(15) .
C1 C6 H6A 109.5 .
C1 C6 H6B 109.5 .
C1 C6 H6C 109.5 .
H6A C6 H6B 109.5 .
H6A C6 H6C 109.5 .
H6B C6 H6C 109.5 .
C2 C7 H7A 109.5 .
C2 C7 H7B 109.5 .
C2 C7 H7C 109.5 .
H7A C7 H7B 109.5 .
H7A C7 H7C 109.5 .
H7B C7 H7C 109.5 .
C3 C8 H8A 109.5 .
C3 C8 H8B 109.5 .
C3 C8 H8C 109.5 .
H8A C8 H8B 109.5 .
H8A C8 H8C 109.5 .
H8B C8 H8C 109.5 .
C4 C9 H9A 109.5 .
C4 C9 H9B 109.5 .
C4 C9 H9C 109.5 .
H9A C9 H9B 109.5 .
H9A C9 H9C 109.5 .
H9B C9 H9C 109.5 .
C5 C10 H10 107.3 .
C5 C10 C11 116.74(18) .
C5 C10 C14 112.35(19) .
C11 C10 H10 107.3 .
C14 C10 H10 107.3 .
C14 C10 C11 105.4(2) .
C10 C11 H11A 110.7 .
C10 C11 H11B 110.7 .
H11A C11 H11B 108.8 .
C12 C11 C10 105.32(19) .
C12 C11 H11A 110.7 .
C12 C11 H11B 110.7 .
C11 C12 H12A 110.6 .
C11 C12 H12B 110.6 .
H12A C12 H12B 108.8 .
C13 C12 C11 105.5(2) .
C13 C12 H12A 110.6 .
C13 C12 H12B 110.6 .
C12 C13 H13A 111.1 .
C12 C13 H13B 111.1 .
C12 C13 C14 103.4(2) .
H13A C13 H13B 109.1 .
C14 C13 H13A 111.1 .
C14 C13 H13B 111.1 .
C10 C14 H14A 111.0 .
C10 C14 H14B 111.0 .
C13 C14 C10 103.6(2) .
C13 C14 H14A 111.0 .
C13 C14 H14B 111.0 .
H14A C14 H14B 109.0 .
loop_
_geom_bond_atom_site_label_1
_geom_bond_atom_site_label_2
_geom_bond_distance
_geom_bond_site_symmetry_2
Ir1 Cl1 2.3977(5) .
Ir1 Cl2 2.4731(5) 2_767
Ir1 Cl2 2.4484(5) .
Ir1 C1 2.154(2) .
Ir1 C2 2.160(2) .
Ir1 C3 2.145(2) .
Ir1 C4 2.151(2) .
Ir1 C5 2.124(2) .
Cl2 Ir1 2.4731(5) 2_767
C1 C2 1.436(3) .
C1 C5 1.460(3) .
C1 C6 1.504(3) .
C2 C3 1.461(3) .
C2 C7 1.496(3) .
C3 C4 1.440(3) .
C3 C8 1.499(3) .
C4 C5 1.454(3) .
C4 C9 1.493(3) .
C5 C10 1.511(3) .
C6 H6A 0.9800 .
C6 H6B 0.9800 .
C6 H6C 0.9800 .
C7 H7A 0.9800 .
C7 H7B 0.9800 .
C7 H7C 0.9800 .
C8 H8A 0.9800 .
C8 H8B 0.9800 .
C8 H8C 0.9800 .
C9 H9A 0.9800 .
C9 H9B 0.9800 .
C9 H9C 0.9800 .
C10 H10 1.0000 .
C10 C11 1.574(3) .
C10 C14 1.544(4) .
C11 H11A 0.9900 .
C11 H11B 0.9900 .
C11 C12 1.535(4) .
C12 H12A 0.9900 .
C12 H12B 0.9900 .
C12 C13 1.525(4) .
C13 H13A 0.9900 .
C13 H13B 0.9900 .
C13 C14 1.525(4) .
C14 H14A 0.9900 .
C14 H14B 0.9900 .
loop_
_geom_torsion_atom_site_label_1
_geom_torsion_atom_site_label_2
_geom_torsion_atom_site_label_3
_geom_torsion_atom_site_label_4
_geom_torsion
Ir1 C1 C2 C3 59.77(14)
Ir1 C1 C2 C7 -122.6(2)
Ir1 C1 C5 C4 -62.47(14)
Ir1 C1 C5 C10 124.8(2)
Ir1 C2 C3 C4 61.19(14)
Ir1 C2 C3 C8 -120.1(2)
Ir1 C3 C4 C5 58.64(15)
Ir1 C3 C4 C9 -121.9(2)
Ir1 C4 C5 C1 62.50(14)
Ir1 C4 C5 C10 -124.6(2)
Ir1 C5 C10 C11 41.4(3)
Ir1 C5 C10 C14 163.26(18)
C1 C2 C3 Ir1 -60.23(14)
C1 C2 C3 C4 1.0(2)
C1 C2 C3 C8 179.7(2)
C1 C5 C10 C11 -54.0(3)
C1 C5 C10 C14 67.9(3)
C2 C1 C5 Ir1 59.85(15)
C2 C1 C5 C4 -2.6(2)
C2 C1 C5 C10 -175.3(2)
C2 C3 C4 Ir1 -61.24(14)
C2 C3 C4 C5 -2.6(2)
C2 C3 C4 C9 176.8(2)
C3 C4 C5 Ir1 -59.29(15)
C3 C4 C5 C1 3.2(2)
C3 C4 C5 C10 176.1(2)
C4 C5 C10 C11 134.6(2)
C4 C5 C10 C14 -103.5(3)
C5 C1 C2 Ir1 -58.72(14)
C5 C1 C2 C3 1.0(2)
C5 C1 C2 C7 178.6(2)
C5 C10 C11 C12 131.3(2)
C5 C10 C14 C13 -156.9(2)
C6 C1 C2 Ir1 122.6(2)
C6 C1 C2 C3 -177.6(2)
C6 C1 C2 C7 0.0(3)
C6 C1 C5 Ir1 -121.6(2)
C6 C1 C5 C4 176.0(2)
C6 C1 C5 C10 3.3(4)
C7 C2 C3 Ir1 122.2(2)
C7 C2 C3 C4 -176.6(2)
C7 C2 C3 C8 2.1(3)
C8 C3 C4 Ir1 120.1(2)
C8 C3 C4 C5 178.7(2)
C8 C3 C4 C9 -1.9(4)
C9 C4 C5 Ir1 121.3(2)
C9 C4 C5 C1 -176.2(2)
C9 C4 C5 C10 -3.3(4)
C10 C11 C12 C13 19.3(3)
C11 C10 C14 C13 -28.8(3)
C11 C12 C13 C14 -37.7(3)
C12 C13 C14 C10 41.0(3)
C14 C10 C11 C12 5.9(3)
loop_
_exptl_oxdiff_crystal_face_indexfrac_h
_exptl_oxdiff_crystal_face_indexfrac_k
_exptl_oxdiff_crystal_face_indexfrac_l
_exptl_oxdiff_crystal_face_x
_exptl_oxdiff_crystal_face_y
_exptl_oxdiff_crystal_face_z
-0.0021 -0.9992 -4.9983 -0.2249 0.3159 0.0220
-4.9993 3.9996 -1.9995 -0.1080 0.1073 0.5451
4.0010 -2.0001 4.9983 0.2748 -0.2984 -0.4272
-0.0002 -5.0011 3.0002 -0.2471 -0.2132 -0.2699
-4.9985 2.9990 0.9999 -0.0822 -0.0890 0.4586
0.9997 -0.9999 0.0001 -0.0046 0.0033 -0.1128
-4.9987 -2.0021 4.0000 -0.3292 -0.3022 0.1887
-3.9973 4.9991 2.9987 0.1806 -0.2011 0.4562
1.0020 0.9995 4.9982 0.2886 -0.3083 -0.0890
4.9985 0.0017 -2.9999 0.2241 0.2297 -0.2940
-0.0001 5.0012 -3.9999 0.2157 0.2772 0.2834
0.0013 -2.0011 4.9990 0.0203 -0.3286 -0.1595
1.0003 0.0001 0.9996 0.0950 -0.0565 -0.0805
-0.9978 0.9990 4.9985 0.1613 -0.3234 0.0449
1.9980 0.0013 -4.9989 -0.0294 0.3352 -0.0660
-0.0020 -5.0002 -1.9984 -0.4038 0.1069 -0.2020
