#------------------------------------------------------------------------------
#$Date: 2019-11-24 10:13:53 +0200 (Sun, 24 Nov 2019) $
#$Revision: 237596 $
#$URL: file:///home/coder/svn-repositories/cod/cif/4/08/84/4088468.cif $
#------------------------------------------------------------------------------
#
# This file is available in the Crystallography Open Database (COD),
# http://www.crystallography.net/
#
# All data on this site have been placed in the public domain by the
# contributors.
#
data_4088468
loop_
_publ_author_name
'Stienen, Christian'
'Gondzik, Sebastian'
'Gehlhaar, Alexander'
'Haack, Rebekka'
'W\"olper, Christoph'
'Jansen, Georg'
'Schulz, Stephan'
_publ_contact_author
;
         Prof. Dr. Schulz, Stephan
         Fachbereich Chemie der
         Universit\"at Duisburg-Essen
         Campus Essen, Universit\"atsstr. 7
         D-45141 Essen, Germany
;
_publ_section_title
;
 (MeZn)2(\m-\h2:\h2-N6Ph2): A Powerful Starting Reagent for the Synthesis
 of Metal Hexazene Complexes
;
_journal_issue                   7
_journal_name_full               Organometallics
_journal_page_first              1022
_journal_paper_doi               10.1021/acs.organomet.6b00116
_journal_volume                  35
_journal_year                    2016
_chemical_formula_sum            'C24 H38 Al2 N6 O2'
_chemical_formula_weight         496.56
_space_group_crystal_system      triclinic
_space_group_IT_number           2
_space_group_name_Hall           '-P 1'
_space_group_name_H-M_alt        'P -1'
_atom_sites_solution_hydrogens   geom
_atom_sites_solution_primary     direct
_atom_sites_solution_secondary   difmap
_audit_creation_method           SHELXL-2014/7
_cell_angle_alpha                113.086(9)
_cell_angle_beta                 91.855(9)
_cell_angle_gamma                105.457(9)
_cell_formula_units_Z            1
_cell_length_a                   7.6535(13)
_cell_length_b                   9.2634(16)
_cell_length_c                   10.463(2)
_cell_measurement_reflns_used    7412
_cell_measurement_temperature    100(1)
_cell_measurement_theta_max      30.17
_cell_measurement_theta_min      2.51
_cell_volume                     649.8(2)
_computing_cell_refinement       'BRUKER D8 KAPPA APEX 2 (3.0-2009)'
_computing_data_collection       'BRUKER D8 KAPPA APEX 2 (3.0-2009)'
_computing_data_reduction        'BRUKER D8 KAPPA APEX 2 (3.0-2009)'
_computing_molecular_graphics    'BRUKER AXS SHELXTL (c) 2008 / Vers. 2008/4'
_computing_publication_material  'BRUKER AXS SHELXTL (c) 2008 / Vers. 2008/4'
_computing_structure_refinement  'SHELXL-2014/7 (Sheldrick, 2014)'
_computing_structure_solution    'BRUKER D8 KAPPA APEX 2 (3.0-2009)'
_diffrn_ambient_temperature      100(1)
_diffrn_detector_area_resol_mean 512
_diffrn_measured_fraction_theta_full 0.994
_diffrn_measured_fraction_theta_max 0.906
_diffrn_measurement_device_type
; 
 Bruker D8 KAPPA series II with APEX II area detector system
;
_diffrn_measurement_method
;
 Data collection strategy APEX 2/COSMO
;
_diffrn_radiation_monochromator  'Triumph Goebel mirror'
_diffrn_radiation_source         'fine-focus sealed tube'
_diffrn_radiation_type           MoK\a
_diffrn_radiation_wavelength     0.71073
_diffrn_reflns_av_R_equivalents  0.0365
_diffrn_reflns_av_unetI/netI     0.0320
_diffrn_reflns_Laue_measured_fraction_full 0.994
_diffrn_reflns_Laue_measured_fraction_max 0.906
_diffrn_reflns_limit_h_max       10
_diffrn_reflns_limit_h_min       -10
_diffrn_reflns_limit_k_max       12
_diffrn_reflns_limit_k_min       -12
_diffrn_reflns_limit_l_max       13
_diffrn_reflns_limit_l_min       -14
_diffrn_reflns_number            14620
_diffrn_reflns_point_group_measured_fraction_full 0.994
_diffrn_reflns_point_group_measured_fraction_max 0.906
_diffrn_reflns_theta_full        25.242
_diffrn_reflns_theta_max         30.369
_diffrn_reflns_theta_min         2.142
_exptl_absorpt_coefficient_mu    0.145
_exptl_absorpt_correction_T_max  0.75
_exptl_absorpt_correction_T_min  0.66
_exptl_absorpt_correction_type   multi-scan
_exptl_absorpt_process_details
; 
 BRUKER AXS SMART APEX 2 Vers. 3.0-2009
 R.H. Blessing, Acta Cryst. (1995) A51 33-38 
;
_exptl_crystal_colour            colourless
_exptl_crystal_density_diffrn    1.269
_exptl_crystal_description       block
_exptl_crystal_F_000             266
_exptl_crystal_size_max          0.239
_exptl_crystal_size_mid          0.164
_exptl_crystal_size_min          0.150
_refine_diff_density_max         0.752
_refine_diff_density_min         -0.376
_refine_diff_density_rms         0.080
_refine_ls_extinction_method     none
_refine_ls_goodness_of_fit_ref   1.051
_refine_ls_hydrogen_treatment    constr
_refine_ls_matrix_type           full
_refine_ls_number_parameters     156
_refine_ls_number_reflns         3552
_refine_ls_number_restraints     0
_refine_ls_restrained_S_all      1.051
_refine_ls_R_factor_all          0.0645
_refine_ls_R_factor_gt           0.0476
_refine_ls_shift/su_max          0.000
_refine_ls_shift/su_mean         0.000
_refine_ls_structure_factor_coef Fsqd
_refine_ls_weighting_details
'w=1/[\s^2^(Fo^2^)+(0.0752P)^2^+0.4580P] where P=(Fo^2^+2Fc^2^)/3'
_refine_ls_weighting_scheme      calc
_refine_ls_wR_factor_gt          0.1271
_refine_ls_wR_factor_ref         0.1440
_reflns_Friedel_coverage         0.000
_reflns_number_gt                2833
_reflns_number_total             3552
_reflns_threshold_expression     'I > 2\s(I)'
_cod_data_source_file            om6b00116_si_002.cif
_cod_data_source_block           chs_102m
_cod_depositor_comments
;
The following automatic conversions were performed:

data item '_atom_sites_solution_secondary' value 'diffmap' was
changed to 'difmap'.

Automatic conversion script
Id: cif_fix_values 6909 2019-04-08 15:41:33Z antanas 
;
_cod_database_code               4088468
_shelx_shelxl_version_number     2014/7
_shelx_space_group_comment
;
The symmetry employed for this shelxl refinement is uniquely defined
by the following loop, which should always be used as a source of
symmetry information in preference to the above space-group names.
They are only intended as comments.
;
_shelx_estimated_absorpt_t_min   0.966
_shelx_estimated_absorpt_t_max   0.979
_shelx_res_file
;

    chs_102m.res created by SHELXL-2014/7


TITL chs_102m in P-1
CELL 0.71073   7.6535   9.2634  10.4631 113.086  91.855 105.457
ZERR    1.00   0.0013   0.0016   0.0020   0.009   0.009   0.009
LATT  1
SFAC C H N AL O
UNIT 24 38 6 2 2
LIST 6 ! automatically inserted. Change 6 to 4 for CHECKCIF!!
TEMP -173.130
SIZE 0.150 0.164 0.239

L.S. 16
ACTA
FMAP 2
PLAN 20

WGHT    0.075200    0.458000
FVAR       0.27821
AL1   4    0.435923    0.541534    0.231815    11.00000    0.01737    0.01996 =
         0.01666    0.00844    0.00622    0.00939
O1    5    0.262989    0.683967    0.262356    11.00000    0.01533    0.01920 =
         0.02004    0.00719    0.00408    0.00799
N1    3    0.594038    0.391817    0.133393    11.00000    0.01904    0.02130 =
         0.01815    0.01046    0.00619    0.01041
N2    3    0.623954    0.372833    0.006756    11.00000    0.01975    0.02085 =
         0.01724    0.00887    0.00599    0.01063
N3    3    0.551277    0.454662   -0.045437    11.00000    0.01969    0.02143 =
         0.01658    0.00839    0.00729    0.01312
C1    1    0.665402    0.292187    0.182496    11.00000    0.01581    0.02209 =
         0.02139    0.01252    0.00670    0.00951
C2    1    0.696209    0.339853    0.327655    11.00000    0.02612    0.02798 =
         0.02296    0.01373    0.00913    0.01518
AFIX  43
H2    2    0.670774    0.436129    0.389870    11.00000   -1.20000
AFIX   0
C3    1    0.764034    0.246384    0.380906    11.00000    0.02546    0.03750 =
         0.02584    0.02064    0.00889    0.01652
AFIX  43
H3    2    0.785114    0.279222    0.479646    11.00000   -1.20000
AFIX   0
C4    1    0.801374    0.104783    0.290507    11.00000    0.02120    0.03387 =
         0.03815    0.02588    0.01100    0.01497
AFIX  43
H4    2    0.849795    0.042142    0.327275    11.00000   -1.20000
AFIX   0
C5    1    0.767259    0.056051    0.146402    11.00000    0.02516    0.02521 =
         0.03421    0.01549    0.00958    0.01404
AFIX  43
H5    2    0.790560   -0.041536    0.084537    11.00000   -1.20000
AFIX   0
C6    1    0.699395    0.148175    0.091303    11.00000    0.02097    0.02335 =
         0.02405    0.01110    0.00710    0.00978
AFIX  43
H6    2    0.676237    0.113638   -0.007579    11.00000   -1.20000
AFIX   0
C7    1    0.319085    0.862330    0.305666    11.00000    0.01980    0.01816 =
         0.02406    0.00568    0.00249    0.00774
AFIX  23
H7A   2    0.399976    0.893265    0.242655    11.00000   -1.20000
H7B   2    0.385491    0.920859    0.403246    11.00000   -1.20000
AFIX   0
C8    1    0.142043    0.904529    0.295397    11.00000    0.02294    0.02300 =
         0.02622    0.00616    0.00403    0.01306
AFIX  23
H8A   2    0.161689    1.001564    0.273066    11.00000   -1.20000
H8B   2    0.089461    0.926349    0.383850    11.00000   -1.20000
AFIX   0
C9    1    0.018297    0.747985    0.174200    11.00000    0.01929    0.02422 =
         0.02238    0.00842    0.00270    0.01034
AFIX  23
H9A   2   -0.113106    0.738288    0.178768    11.00000   -1.20000
H9B   2    0.045856    0.745548    0.081711    11.00000   -1.20000
AFIX   0
C10   1    0.068845    0.613460    0.200760    11.00000    0.01684    0.02269 =
         0.02415    0.00921    0.00217    0.00741
AFIX  23
H10A  2   -0.006433    0.582297    0.266441    11.00000   -1.20000
H10B  2    0.049613    0.514463    0.111690    11.00000   -1.20000
AFIX   0
C11   1    0.629123    0.723964    0.387363    11.00000    0.01255    0.01677 =
         0.01338    0.00662    0.00408    0.00800
AFIX 137
H11A  2    0.739259    0.690103    0.391642    11.00000   -1.50000
H11B  2    0.582454    0.747598    0.477161    11.00000   -1.50000
H11C  2    0.659782    0.823066    0.369066    11.00000   -1.50000
AFIX   0
C12   1    0.246634    0.362816    0.254250    11.00000    0.01822    0.02069 =
         0.02475    0.01196    0.00819    0.00886
AFIX 137
H12A  2    0.165579    0.291951    0.164427    11.00000   -1.50000
H12B  2    0.174371    0.411041    0.325660    11.00000   -1.50000
H12C  2    0.306535    0.297254    0.283737    11.00000   -1.50000
AFIX   0
HKLF 4

REM  chs_102m in P-1
REM R1 =  0.0476 for    2833 Fo > 4sig(Fo)  and  0.0645 for all    3552 data
REM    156 parameters refined using      0 restraints

END

WGHT      0.0752      0.4580

REM Highest difference peak  0.752,  deepest hole -0.376,  1-sigma level  0.080
Q1    1   0.5235  0.6342  0.3052  11.00000  0.05    0.75
Q2    1   0.0751  0.8327  0.2373  11.00000  0.05    0.61
Q3    1   0.3489  0.4381  0.2445  11.00000  0.05    0.49
Q4    1   0.3595  0.4529  0.1622  11.00000  0.05    0.43
Q5    1   0.4161  0.5378  0.1394  11.00000  0.05    0.40
Q6    1   0.7135  0.3578  0.2595  11.00000  0.05    0.40
Q7    1   0.6466  0.2935  0.2554  11.00000  0.05    0.38
Q8    1   0.7158  0.2798  0.3456  11.00000  0.05    0.38
Q9    1   0.7477  0.0549  0.2216  11.00000  0.05    0.35
Q10   1   0.4804  0.3807 -0.1072  11.00000  0.05    0.34
Q11   1   0.6426  0.1965  0.1397  11.00000  0.05    0.33
Q12   1   0.2951  0.7633  0.2798  11.00000  0.05    0.33
Q13   1   0.7300  0.1075  0.1171  11.00000  0.05    0.31
Q14   1   0.8060  0.1047  0.2167  11.00000  0.05    0.31
Q15   1   0.6326  0.3447  0.1568  11.00000  0.05    0.31
Q16   1   0.5811  0.2780 -0.0473  11.00000  0.05    0.29
Q17   1   0.0492  0.6977  0.1933  11.00000  0.05    0.28
Q18   1   0.7091  0.2396  0.1339  11.00000  0.05    0.28
Q19   1   0.8095  0.2006  0.3384  11.00000  0.05    0.26
Q20   1   0.2937  0.6925  0.3420  11.00000  0.05    0.26
;
_shelx_res_checksum              695
_shelx_hkl_file
;
  -1   0   0  180.00    5.99
  -1   0   0  149.12    7.55
  -1   0   0  168.28    6.26
   1   0   0  180.79    6.43
   1   0   0  165.50    6.34
   1   0   0  174.67    6.33
  -2   0   0  102.50    4.98
  -2   0   0  121.04    3.88
  -2   0   0  107.42    4.19
  -2   0   0  108.91    4.14
  -2   0   0  105.49    4.05
   2   0   0  106.26    4.06
   2   0   0  116.08    4.13
   2   0   0  117.39    4.13
   2   0   0  120.80    4.17
   2   0   0  118.37    3.87
  -3   0   0   42.27    1.69
  -3   0   0   43.47    2.06
  -3   0   0   45.38    1.66
  -3   0   0   46.06    1.59
   3   0   0   46.20    1.70
   3   0   0   48.97    1.70
   3   0   0   49.22    1.71
   3   0   0   47.80    1.59
   3   0   0   43.32    2.05
  -4   0   0    1.27    0.19
  -4   0   0    1.42    0.13
  -4   0   0    1.33    0.11
   4   0   0    1.50    0.13
  -5   0   0    7.43    0.45
  -5   0   0    7.20    0.33
  -5   0   0    6.88    0.30
   5   0   0    7.39    0.41
   5   0   0    7.49    0.33
  -6   0   0   13.22    0.70
  -6   0   0   12.86    0.55
   6   0   0   13.08    0.55
   6   0   0   13.96    0.67
  -7   0   0    3.97    0.27
   7   0   0    3.99    0.38
  -8   0   0    1.68    0.20
   8   0   0    1.31    0.30
  -9   0   0    2.67    0.24
   9   0   0    2.63    0.35
 -10   0   0    1.69    0.24
  10   0   0    1.45    0.36
  10  -1   0    0.14    0.31
   9  -1   0    0.23    0.28
  -9   1   0    0.25    0.17
   8  -1   0    0.39    0.27
  -8   1   0    0.67    0.16
  -8   1   0    0.60    0.26
   7  -1   0   17.14    0.82
  -7   1   0   18.26    0.89
  -7   1   0   15.94    0.67
   6  -1   0   39.22    1.46
  -6   1   0   36.13    1.43
  -6   1   0   41.87    1.81
   5  -1   0   25.66    0.94
  -5   1   0   25.58    1.18
  -5   1   0   23.72    0.93
   4  -1   0    6.67    0.29
  -4   1   0    6.47    0.29
  -4   1   0    7.16    0.46
  -3   1   0    4.98    0.34
   2  -1   0   42.57    1.92
  -2   1   0   43.35    1.92
   1  -1   0   60.10    2.06
   1  -1   0   58.85    2.05
   1  -1   0   54.56    2.00
   1  -1   0   55.05    2.03
  -1   1   0   48.54    2.05
  -1   1   0   54.28    2.00
  -1   1   0   58.03    2.00
  -1   1   0   48.53    2.05
  -1   1   0   49.03    2.42
  -1   1   0   58.35    1.91
   0  -1   0  136.41    5.06
   0  -1   0  145.21    5.12
   0  -1   0  123.37    4.95
   0  -1   0  155.84    5.61
   0  -1   0  139.26    4.99
   0   1   0  125.42    5.11
   0   1   0  137.99    4.97
   0   1   0  137.62    5.05
  -1  -1   0  966.46   36.21
  -1  -1   0  842.55   32.20
  -1  -1   0  890.44   30.81
  -1  -1   0  845.75   32.86
  -1  -1   0  976.83   33.19
  -1  -1   0  857.38   33.15
  -1  -1   0  883.60   32.82
   1   1   0  824.60   32.16
   1   1   0  920.54   36.26
   1   1   0  887.13   33.14
   1   1   0  898.87   32.82
   1   1   0  865.82   32.85
   1   1   0  890.47   30.78
   1   1   0  972.46   35.22
   1   1   0  835.75   32.37
   1   1   0 1000.00   33.17
  -2  -1   0  207.44    7.53
  -2  -1   0  198.36    7.19
  -2  -1   0  201.01    7.74
  -2  -1   0  196.05    7.68
  -2  -1   0  218.82    7.67
   2   1   0  201.24    7.67
   2   1   0  203.22    8.47
   2   1   0  220.57    7.19
   2   1   0  231.23    7.74
   2   1   0  216.26    7.74
   2   1   0  213.86    7.67
  -3  -1   0    5.93    0.30
  -3  -1   0    5.66    0.29
  -3  -1   0    6.25    0.32
  -3  -1   0    6.05    0.31
  -3  -1   0    6.60    0.30
   3   1   0    6.69    0.38
   3   1   0    6.48    0.32
   3   1   0    6.68    0.31
   3   1   0    6.56    0.32
   3   1   0    6.27    0.32
  -4  -1   0    6.95    0.31
  -4  -1   0    6.25    0.29
  -4  -1   0    6.70    0.31
  -4  -1   0    6.48    0.32
   4   1   0    6.49    0.32
   4   1   0    6.67    0.37
  -5  -1   0    0.62    0.14
  -5  -1   0    0.49    0.10
  -5  -1   0    0.26    0.11
   5   1   0    0.38    0.20
   5   1   0    0.49    0.13
  -6  -1   0   10.47    0.49
   6   1   0   12.19    0.61
   6   1   0   11.00    0.50
  -7  -1   0    0.07    0.17
   7   1   0   -0.14    0.24
  -8  -1   0    4.26    0.31
   8   1   0    4.25    0.41
  -9  -1   0    1.44    0.23
   9   1   0    1.30    0.32
 -10  -1   0    5.91    0.40
  10  -2   0    2.34    0.37
   9  -2   0    0.14    0.27
  -9   2   0    0.36    0.28
   8  -2   0    6.18    0.47
  -8   2   0    6.90    0.53
  -7   2   0    4.29    0.45
  -6   2   0   12.16    0.69
  -5   2   0   38.27    1.76
  -4   2   0    7.45    0.49
   3  -2   0    0.44    0.07
   3  -2   0    0.50    0.07
  -3   2   0    0.35    0.07
  -3   2   0    0.44    0.17
   2  -2   0    0.38    0.06
   2  -2   0    0.19    0.10
   2  -2   0    0.23    0.05
   2  -2   0    0.34    0.06
  -2   2   0    0.30    0.12
  -2   2   0    0.38    0.06
  -2   2   0    0.36    0.06
  -2   2   0    0.26    0.06
   1  -2   0   65.39    2.25
   1  -2   0   62.05    2.39
   1  -2   0   58.41    2.19
   1  -2   0   61.93    2.19
   1  -2   0   58.92    2.46
   1  -2   0   61.38    2.25
   1  -2   0   58.43    2.23
   1  -2   0   56.87    2.19
   1  -2   0   60.10    2.23
  -1   2   0   60.40    2.23
  -1   2   0   58.26    2.46
  -1   2   0   63.36    2.19
  -1   2   0   57.84    2.70
  -1   2   0   61.75    2.25
  -1   2   0   61.78    2.19
  -1   2   0   64.35    2.25
  -1   2   0   59.33    2.23
   0  -2   0   11.28    0.46
   0  -2   0   11.07    0.43
   0  -2   0   10.10    0.43
   0  -2   0   10.40    0.44
   0  -2   0   10.15    0.42
   0  -2   0   11.06    0.41
   0  -2   0   10.58    0.42
   0  -2   0    9.76    0.40
   0   2   0   11.52    0.46
   0   2   0   10.61    0.41
   0   2   0    9.10    0.42
   0   2   0   10.42    0.44
   0   2   0   10.21    0.41
   0   2   0   11.06    0.42
   0   2   0   11.01    0.43
  -1  -2   0    4.38    0.21
  -1  -2   0    4.45    0.23
  -1  -2   0    4.64    0.24
  -1  -2   0    3.99    0.19
  -1  -2   0    4.35    0.22
  -1  -2   0    4.22    0.22
  -1  -2   0    4.02    0.22
   1   2   0    4.60    0.21
   1   2   0    4.19    0.22
   1   2   0    4.20    0.22
   1   2   0    4.57    0.23
   1   2   0    4.60    0.23
   1   2   0    4.32    0.21
   1   2   0    4.54    0.24
   1   2   0    4.97    0.22
  -2  -2   0  205.06    7.73
  -2  -2   0  213.86    7.80
  -2  -2   0  203.02    7.58
  -2  -2   0  215.27    7.72
   2   2   0  217.23    7.80
   2   2   0  210.75    8.27
   2   2   0  211.58    7.24
   2   2   0  203.38    8.53
   2   2   0  208.80    7.73
   2   2   0  205.72    7.73
   2   2   0  211.64    7.60
   2   2   0  228.40    7.80
  -3  -2   0  228.38    8.49
  -3  -2   0  229.85    8.56
  -3  -2   0  242.94    8.48
  -3  -2   0  224.61    8.32
   3   2   0  245.73    8.56
   3   2   0  230.69    9.37
   3   2   0  219.05    9.08
   3   2   0  228.78    8.48
   3   2   0  226.13    8.34
   3   2   0  242.54    8.56
  -4  -2   0    0.49    0.12
  -4  -2   0    0.29    0.11
  -4  -2   0    0.40    0.12
  -4  -2   0    0.32    0.13
   4   2   0    0.35    0.10
   4   2   0    0.29    0.13
   4   2   0    0.49    0.17
  -5  -2   0    1.47    0.18
  -5  -2   0    1.42    0.15
  -5  -2   0    1.30    0.16
  -5  -2   0    1.14    0.15
   5   2   0    1.53    0.23
   5   2   0    1.48    0.18
   5   2   0    1.47    0.14
  -6  -2   0    5.21    0.30
  -6  -2   0    4.32    0.32
  -6  -2   0    4.70    0.26
   6   2   0    4.18    0.40
   6   2   0    5.09    0.29
   6   2   0    5.01    0.32
  -7  -2   0    5.56    0.35
   7   2   0    5.49    0.43
  -8  -2   0   10.96    0.53
   8   2   0   10.59    0.63
  -9  -2   0    2.56    0.28
   9   2   0    2.66    0.36
  10  -3   0   -0.03    0.30
 -10   3   0   -0.29    0.31
   9  -3   0    0.35    0.27
  -9   3   0   -0.16    0.29
  -8   3   0   18.76    1.00
  -7   3   0   11.70    0.70
  -6   3   0    0.10    0.24
   5  -3   0    0.07    0.08
  -5   3   0   -0.07    0.09
  -5   3   0   -0.08    0.19
   4  -3   0   50.87    1.89
  -4   3   0   49.30    2.32
  -4   3   0   51.08    1.86
  -4   3   0   51.28    1.78
  -4   3   0   53.78    1.86
   3  -3   0   67.69    2.36
   3  -3   0   66.83    2.36
   3  -3   0   61.79    2.34
  -3   3   0   57.52    2.85
  -3   3   0   64.88    2.33
  -3   3   0   61.88    2.29
  -3   3   0   61.96    2.36
  -3   3   0   61.81    2.36
  -3   3   0   64.46    2.19
  -3   3   0   64.44    2.29
   2  -3   0    2.24    0.17
   2  -3   0    2.46    0.16
   2  -3   0    2.35    0.18
   2  -3   0    2.02    0.12
   2  -3   0    2.27    0.19
   2  -3   0    2.12    0.16
   2  -3   0    2.65    0.16
  -2   3   0    2.34    0.15
  -2   3   0    2.27    0.16
  -2   3   0    2.01    0.17
  -2   3   0    2.15    0.15
  -2   3   0    2.07    0.18
  -2   3   0    2.14    0.21
   1  -3   0   49.47    1.81
   1  -3   0   51.62    1.77
   1  -3   0   49.82    1.82
   1  -3   0   50.25    1.99
   1  -3   0   49.82    1.93
   1  -3   0   46.58    1.81
   1  -3   0   46.55    1.77
   1  -3   0   48.85    1.82
   1  -3   0   48.26    1.77
  -1   3   0   52.27    1.82
  -1   3   0   46.38    1.77
  -1   3   0   48.62    1.77
  -1   3   0   48.00    1.81
  -1   3   0   47.47    2.18
  -1   3   0   46.06    1.81
  -1   3   0   49.45    1.77
  -1   3   0   48.00    1.99
  -1   3   0   50.40    1.93
  -1   3   0   47.84    1.82
   0  -3   0   25.47    0.99
   0  -3   0   25.02    0.99
   0  -3   0   26.89    1.08
   0  -3   0   25.72    0.96
   0  -3   0   25.13    0.97
   0  -3   0   26.65    1.00
   0  -3   0   25.03    0.96
   0  -3   0   25.94    1.05
   0   3   0   25.18    1.05
   0   3   0   26.57    0.99
   0   3   0   26.99    1.08
   0   3   0   26.81    0.97
   0   3   0   23.95    0.99
   0   3   0   27.85    0.98
   0   3   0   26.95    1.00
   0   3   0   25.06    0.96
   0   3   0   27.34    1.00
  -1  -3   0  107.19    3.93
  -1  -3   0  110.64    3.97
  -1  -3   0  102.89    3.94
  -1  -3   0  106.53    3.86
  -1  -3   0  102.77    3.97
  -1  -3   0  102.86    3.86
   1   3   0  110.29    4.34
   1   3   0  108.67    3.97
   1   3   0  102.89    4.21
   1   3   0  110.90    3.86
   1   3   0  106.21    3.69
   1   3   0  115.21    3.98
   1   3   0  103.30    3.93
  -2  -3   0  121.83    4.29
  -2  -3   0  110.69    4.28
  -2  -3   0  114.84    4.16
  -2  -3   0  109.57    4.25
  -2  -3   0  122.07    4.24
  -2  -3   0  111.92    4.16
   2   3   0  114.64    4.68
   2   3   0  116.56    4.25
   2   3   0  111.60    4.54
   2   3   0  119.45    3.98
   2   3   0  109.50    4.17
   2   3   0  120.73    4.29
   2   3   0  115.49    4.28
  -3  -3   0  110.47    4.05
  -3  -3   0  113.52    4.14
  -3  -3   0  114.00    4.06
  -3  -3   0  113.87    4.18
  -3  -3   0  119.20    4.13
   3   3   0  106.29    4.13
   3   3   0  109.43    4.06
   3   3   0  116.34    4.18
   3   3   0  107.24    4.42
   3   3   0  107.02    4.57
   3   3   0  117.08    4.18
  -4  -3   0   12.04    0.52
  -4  -3   0   11.54    0.51
  -4  -3   0   11.45    0.50
  -4  -3   0   11.76    0.51
   4   3   0   10.16    0.54
   4   3   0   11.57    0.52
   4   3   0   10.71    0.57
   4   3   0   11.76    0.48
  -5  -3   0    0.05    0.17
  -5  -3   0   -0.12    0.13
  -5  -3   0    0.11    0.15
  -5  -3   0    0.00    0.16
   5   3   0   -0.05    0.18
   5   3   0   -0.19    0.16
   5   3   0   -0.07    0.21
   5   3   0    0.05    0.13
  -6  -3   0    1.96    0.20
  -6  -3   0    1.82    0.23
  -6  -3   0    1.94    0.22
  -6  -3   0    1.88    0.19
   6   3   0    1.78    0.23
   6   3   0    1.31    0.27
  -7  -3   0    3.70    0.33
  -7  -3   0    4.54    0.30
  -7  -3   0    3.28    0.25
   7   3   0    3.38    0.36
  -8  -3   0    8.25    0.48
   8   3   0    8.19    0.57
  -9  -3   0    8.11    0.48
  10  -4   0    1.89    0.34
 -10   4   0    2.02    0.37
  -9   4   0    1.95    0.35
  -8   4   0    0.55    0.29
  -7   4   0    4.70    0.49
  -6   4   0    3.88    0.23
  -6   4   0    4.33    0.47
  -6   4   0    4.01    0.24
   5  -4   0   36.19    1.39
  -5   4   0   39.08    1.37
  -5   4   0   36.16    1.73
  -5   4   0   37.28    1.31
  -5   4   0   37.73    1.37
   4  -4   0    5.61    0.28
  -4   4   0    5.01    0.42
  -4   4   0    5.73    0.25
  -4   4   0    5.56    0.27
  -4   4   0    6.05    0.28
  -4   4   0    5.88    0.26
   3  -4   0   56.57    2.05
   3  -4   0   53.28    2.03
   3  -4   0   59.35    2.05
  -3   4   0   53.14    2.48
  -3   4   0   52.79    1.99
  -3   4   0   51.81    2.05
  -3   4   0   54.16    1.91
  -3   4   0   53.74    2.05
  -3   4   0   56.95    2.00
  -3   4   0   55.98    2.03
   2  -4   0    0.09    0.12
   2  -4   0    0.11    0.12
   2  -4   0   -0.02    0.11
   2  -4   0    0.07    0.09
   2  -4   0    0.07    0.13
   2  -4   0   -0.15    0.12
   2  -4   0    0.05    0.12
  -2   4   0    0.08    0.14
  -2   4   0   -0.08    0.20
  -2   4   0    0.16    0.13
  -2   4   0    0.01    0.14
  -2   4   0    0.17    0.14
  -2   4   0   -0.23    0.13
  -2   4   0    0.14    0.13
   1  -4   0    6.91    0.35
   1  -4   0    6.15    0.33
   1  -4   0    6.29    0.30
   1  -4   0    6.25    0.32
   1  -4   0    6.33    0.35
   1  -4   0    5.35    0.34
   1  -4   0    5.67    0.33
  -1   4   0    6.87    0.33
  -1   4   0    6.34    0.33
  -1   4   0    6.98    0.37
  -1   4   0    6.66    0.29
  -1   4   0    6.42    0.43
  -1   4   0    6.60    0.33
  -1   4   0    6.26    0.35
  -1   4   0    6.27    0.36
   0  -4   0   16.51    0.71
   0  -4   0   16.15    0.69
   0  -4   0   16.66    0.67
   0  -4   0   17.62    0.71
   0  -4   0   17.12    0.74
   0  -4   0   18.24    0.69
   0   4   0   17.99    0.70
   0   4   0   16.94    0.71
   0   4   0   17.84    0.71
   0   4   0   17.30    0.66
   0   4   0   17.20    0.70
   0   4   0   18.50    0.77
   0   4   0   16.94    0.73
   0   4   0   16.96    0.67
  -1  -4   0    4.62    0.29
  -1  -4   0    5.04    0.29
  -1  -4   0    4.50    0.30
  -1  -4   0    4.66    0.28
  -1  -4   0    4.53    0.27
  -1  -4   0    4.34    0.24
   1   4   0    4.55    0.31
   1   4   0    4.62    0.28
   1   4   0    4.44    0.26
   1   4   0    4.46    0.30
   1   4   0    4.76    0.32
   1   4   0    4.76    0.27
  -2  -4   0   62.77    2.44
  -2  -4   0   66.68    2.45
  -2  -4   0   64.47    2.42
  -2  -4   0   66.27    2.38
   2   4   0   62.75    2.42
   2   4   0   60.89    2.58
   2   4   0   65.24    2.27
   2   4   0   70.37    2.45
   2   4   0   65.86    2.45
   2   4   0   63.69    2.67
  -3  -4   0   52.09    2.00
  -3  -4   0   54.68    2.06
  -3  -4   0   54.59    2.04
  -3  -4   0   55.14    2.01
   3   4   0   52.46    2.04
   3   4   0   57.16    2.07
   3   4   0   51.05    2.17
   3   4   0   57.24    2.07
   3   4   0   52.72    1.99
   3   4   0   54.55    2.25
  -4  -4   0   22.22    0.86
  -4  -4   0   20.99    0.87
  -4  -4   0   21.27    0.86
  -4  -4   0   21.84    0.87
   4   4   0   21.30    0.83
   4   4   0   20.39    0.97
   4   4   0   20.09    0.92
   4   4   0   21.43    0.88
  -5  -4   0    0.30    0.16
  -5  -4   0    0.35    0.19
  -5  -4   0    0.02    0.18
   5   4   0    0.14    0.20
   5   4   0    0.19    0.24
  -6  -4   0    0.97    0.19
  -6  -4   0    1.45    0.21
  -6  -4   0    1.16    0.23
   6   4   0    0.76    0.27
  -7  -4   0    0.37    0.22
  -7  -4   0    0.08    0.16
  -7  -4   0    0.12    0.18
   7   4   0    0.27    0.28
  -8  -4   0   -0.04    0.24
   8   4   0    0.07    0.31
 -10   5   0    4.94    0.57
  -9   5   0   11.41    0.75
  -8   5   0    3.25    0.38
  -7   5   0    2.39    0.22
  -7   5   0    2.55    0.24
  -7   5   0    2.42    0.34
  -6   5   0    1.08    0.29
  -6   5   0    0.87    0.15
  -6   5   0    0.65    0.15
   5  -5   0   40.45    1.56
  -5   5   0   42.33    1.46
  -5   5   0   40.34    1.53
  -5   5   0   41.07    1.92
  -5   5   0   43.17    1.53
   4  -5   0   56.50    2.06
  -4   5   0   57.57    2.05
  -4   5   0   53.05    2.51
  -4   5   0   53.80    2.07
  -4   5   0   52.67    2.02
  -4   5   0   55.95    1.93
  -4   5   0   57.61    2.02
  -4   5   0   55.08    2.07
   3  -5   0    5.82    0.29
   3  -5   0    5.75    0.31
   3  -5   0    5.45    0.26
   3  -5   0    5.93    0.30
  -3   5   0    6.04    0.31
  -3   5   0    5.35    0.28
  -3   5   0    5.99    0.31
  -3   5   0    5.27    0.42
  -3   5   0    5.86    0.29
  -3   5   0    5.28    0.28
  -3   5   0    5.30    0.28
   2  -5   0    9.05    0.43
   2  -5   0    8.70    0.40
   2  -5   0    8.19    0.40
   2  -5   0    8.63    0.41
   2  -5   0    9.78    0.42
   2  -5   0    8.90    0.38
  -2   5   0    8.38    0.40
  -2   5   0    8.98    0.41
  -2   5   0    9.41    0.42
  -2   5   0    9.73    0.53
  -2   5   0    9.02    0.41
  -2   5   0    8.63    0.45
  -2   5   0    9.46    0.42
   1  -5   0    1.64    0.17
   1  -5   0    1.96    0.17
   1  -5   0    1.99    0.17
   1  -5   0    1.83    0.17
   1  -5   0    2.03    0.17
   1  -5   0    1.62    0.14
  -1   5   0    1.86    0.18
  -1   5   0    2.29    0.20
  -1   5   0    1.73    0.18
  -1   5   0    1.88    0.15
  -1   5   0    1.81    0.17
  -1   5   0    1.71    0.21
  -1   5   0    1.86    0.19
  -1   5   0    1.97    0.18
   0  -5   0   25.49    0.93
   0  -5   0   24.64    0.95
   0  -5   0   24.53    0.97
   0  -5   0   23.33    1.02
   0  -5   0   25.80    0.94
   0  -5   0   22.04    0.96
   0   5   0   23.49    1.04
   0   5   0   25.03    0.97
   0   5   0   27.25    0.96
   0   5   0   24.63    0.93
   0   5   0   24.31    0.97
   0   5   0   23.80    0.97
   0   5   0   24.03    0.91
  -1  -5   0    0.32    0.13
  -1  -5   0    0.26    0.13
  -1  -5   0    0.30    0.14
  -1  -5   0    0.27    0.14
  -1  -5   0    0.38    0.11
  -1  -5   0    0.12    0.12
   1   5   0    0.24    0.15
   1   5   0    0.21    0.11
   1   5   0    0.24    0.14
   1   5   0    0.20    0.16
   1   5   0    0.35    0.15
   1   5   0    0.35    0.15
  -2  -5   0   15.30    0.64
  -2  -5   0   15.09    0.64
  -2  -5   0   14.07    0.62
  -2  -5   0   14.33    0.63
   2   5   0   14.84    0.70
   2   5   0   14.44    0.64
   2   5   0   14.21    0.64
   2   5   0   14.40    0.64
   2   5   0   15.54    0.61
   2   5   0   14.69    0.60
  -3  -5   0    3.49    0.28
  -3  -5   0    3.22    0.31
  -3  -5   0    3.37    0.26
   3   5   0    3.47    0.32
   3   5   0    3.16    0.33
  -4  -5   0   30.55    1.20
  -4  -5   0   30.24    1.18
  -4  -5   0   28.86    1.17
   4   5   0   29.84    1.20
   4   5   0   29.10    1.31
  -5  -5   0   24.39    1.00
  -5  -5   0   24.79    1.01
  -5  -5   0   25.62    1.00
   5   5   0   22.68    1.11
   5   5   0   24.15    1.02
  -6  -5   0    3.68    0.30
  -6  -5   0    3.89    0.33
  -6  -5   0    3.68    0.35
   6   5   0    3.68    0.38
  -7  -5   0    0.45    0.26
  -7  -5   0    0.31    0.19
  -7  -5   0    0.33    0.21
   7   5   0   -0.01    0.31
 -10   6   0    9.23    0.70
  -9   6   0    2.35    0.38
  -8   6   0    4.25    0.47
  -8   6   0    3.44    0.25
  -8   6   0    3.45    0.27
  -7   6   0   27.47    1.07
  -7   6   0   28.31    1.08
  -7   6   0   28.90    1.40
  -6   6   0   32.14    1.56
  -6   6   0   32.43    1.22
  -6   6   0   32.33    1.15
  -6   6   0   31.70    1.21
   5  -6   0    0.41    0.16
  -5   6   0    0.47    0.17
  -5   6   0    0.63    0.12
  -5   6   0    0.58    0.16
  -5   6   0    0.67    0.27
  -5   6   0    0.64    0.17
   4  -6   0    2.11    0.19
   4  -6   0    1.86    0.19
   4  -6   0    1.82    0.15
  -4   6   0    2.03    0.29
  -4   6   0    1.91    0.18
  -4   6   0    1.96    0.19
  -4   6   0    2.00    0.20
  -4   6   0    2.09    0.20
  -4   6   0    2.04    0.19
  -4   6   0    1.75    0.20
   3  -6   0    2.56    0.20
   3  -6   0    2.58    0.20
   3  -6   0    2.75    0.24
   3  -6   0    2.86    0.22
  -3   6   0    2.18    0.21
  -3   6   0    2.98    0.29
  -3   6   0    2.47    0.23
  -3   6   0    2.30    0.21
  -3   6   0    2.43    0.22
  -3   6   0    2.10    0.21
   2  -6   0   30.38    1.16
   2  -6   0   30.54    1.15
   2  -6   0   30.81    1.11
   2  -6   0   28.25    1.12
   2  -6   0   27.92    1.14
   2  -6   0   29.33    1.21
  -2   6   0   29.84    1.12
  -2   6   0   30.22    1.38
  -2   6   0   28.91    1.15
  -2   6   0   28.74    1.15
  -2   6   0   27.81    1.25
  -2   6   0   30.31    1.13
   1  -6   0    2.26    0.19
   1  -6   0    1.98    0.20
   1  -6   0    2.47    0.20
   1  -6   0    2.41    0.20
   1  -6   0    2.03    0.20
   1  -6   0    2.15    0.19
  -1   6   0    2.40    0.25
  -1   6   0    2.09    0.20
  -1   6   0    1.98    0.20
  -1   6   0    2.34    0.22
  -1   6   0    2.11    0.23
  -1   6   0    1.91    0.21
  -1   6   0    2.32    0.21
  -1   6   0    2.16    0.18
   0  -6   0    3.18    0.28
   0  -6   0    3.48    0.28
   0  -6   0    3.27    0.29
   0  -6   0    3.70    0.24
   0  -6   0    3.50    0.28
   0   6   0    3.83    0.31
   0   6   0    3.50    0.23
   0   6   0    3.57    0.33
   0   6   0    3.98    0.29
   0   6   0    3.50    0.30
   0   6   0    3.28    0.28
   0   6   0    4.05    0.28
  -1  -6   0   20.52    0.83
  -1  -6   0   18.51    0.80
  -1  -6   0   20.79    0.83
  -1  -6   0   19.67    0.82
  -1  -6   0   19.71    0.77
  -1  -6   0   20.24    0.81
   1   6   0   19.24    0.78
   1   6   0   19.09    0.89
   1   6   0   19.90    0.83
   1   6   0   19.76    0.83
   1   6   0   19.70    0.78
  -2  -6   0    0.08    0.17
  -2  -6   0    0.00    0.16
  -2  -6   0    0.19    0.16
  -2  -6   0    0.08    0.18
   2   6   0    0.03    0.14
   2   6   0    0.18    0.22
   2   6   0    0.30    0.22
  -3  -6   0    2.84    0.26
  -3  -6   0    2.40    0.25
  -3  -6   0    3.00    0.26
   3   6   0    2.70    0.31
   3   6   0    2.60    0.28
  -4  -6   0    6.77    0.42
  -4  -6   0    6.97    0.44
   4   6   0    6.65    0.44
   4   6   0    6.53    0.47
  -5  -6   0   19.58    0.82
   5   6   0   17.33    0.91
   5   6   0   18.71    0.84
  -6  -6   0    9.91    0.53
   6   6   0    9.35    0.61
  -7  -6   0    1.68    0.26
 -10   7   0    0.69    0.36
  -9   7   0    0.92    0.19
  -9   7   0    1.53    0.37
  -9   7   0    1.08    0.20
  -8   7   0    2.21    0.22
  -8   7   0    1.95    0.35
  -8   7   0    1.94    0.22
  -7   7   0    0.17    0.29
  -7   7   0   -0.15    0.18
  -7   7   0    0.00    0.15
  -7   7   0   -0.26    0.18
  -7   7   0    0.03    0.15
   6  -7   0   46.89    1.85
  -6   7   0   45.20    1.62
  -6   7   0   44.85    1.63
  -6   7   0   43.52    1.71
  -6   7   0   46.65    1.71
  -6   7   0   47.48    2.15
   5  -7   0   25.65    1.00
   5  -7   0   25.55    1.06
  -5   7   0   25.03    0.94
  -5   7   0   23.38    0.98
  -5   7   0   23.92    0.98
  -5   7   0   26.29    1.00
  -5   7   0   26.01    1.25
  -5   7   0   24.94    0.98
   4  -7   0    0.95    0.19
   4  -7   0    1.10    0.19
  -4   7   0    0.89    0.18
  -4   7   0    0.90    0.17
  -4   7   0    1.07    0.28
  -4   7   0    1.02    0.18
  -4   7   0    1.11    0.21
  -4   7   0    1.00    0.21
   3  -7   0    4.68    0.32
   3  -7   0    4.57    0.33
   3  -7   0    4.57    0.28
  -3   7   0    3.81    0.34
  -3   7   0    4.48    0.30
  -3   7   0    4.36    0.36
  -3   7   0    4.57    0.32
  -3   7   0    4.12    0.43
  -3   7   0    4.69    0.30
   2  -7   0   20.81    0.79
   2  -7   0   19.20    0.86
   2  -7   0   20.09    0.83
  -2   7   0   20.59    0.83
  -2   7   0   20.47    0.98
  -2   7   0   20.82    0.82
  -2   7   0   19.19    0.82
  -2   7   0   19.07    0.89
  -2   7   0   19.65    0.83
  -2   7   0   18.72    0.78
   1  -7   0    9.28    0.48
   1  -7   0    9.08    0.49
   1  -7   0    9.40    0.44
  -1   7   0    9.17    0.47
  -1   7   0    9.21    0.40
  -1   7   0    8.78    0.48
  -1   7   0    9.36    0.48
  -1   7   0    9.41    0.50
   0  -7   0    1.23    0.16
   0  -7   0    1.49    0.21
   0  -7   0    1.65    0.22
   0   7   0    1.54    0.25
   0   7   0    1.46    0.24
   0   7   0    1.60    0.17
   0   7   0    1.59    0.23
  -1  -7   0    1.13    0.22
   1   7   0    1.34    0.25
   1   7   0    1.24    0.25
   1   7   0    1.41    0.18
  -2  -7   0    4.64    0.37
   2   7   0    5.08    0.39
   2   7   0    4.46    0.39
  -3  -7   0    1.79    0.25
   3   7   0    1.98    0.28
   3   7   0    1.53    0.28
  -4  -7   0    3.97    0.37
   4   7   0    3.36    0.37
   4   7   0    4.40    0.41
  -5  -7   0    1.06    0.26
   5   7   0    0.88    0.31
   5   7   0    0.89    0.30
   6   7   0    0.91    0.33
   9  -8   0    0.26    0.22
  -9   8   0    0.48    0.35
  -9   8   0    0.54    0.21
  -9   8   0    0.72    0.22
   8  -8   0    2.39    0.25
  -8   8   0    1.94    0.36
  -8   8   0    1.73    0.24
  -8   8   0    2.05    0.24
   7  -8   0    1.31    0.23
  -7   8   0    1.21    0.23
  -7   8   0    1.31    0.19
  -7   8   0    1.03    0.22
  -7   8   0    0.94    0.19
  -7   8   0    1.42    0.34
   6  -8   0    0.02    0.19
  -6   8   0    0.04    0.18
  -6   8   0   -0.03    0.21
  -6   8   0    0.20    0.14
  -6   8   0   -0.24    0.20
  -6   8   0    0.18    0.30
  -6   8   0    0.10    0.18
   5  -8   0    4.61    0.34
   5  -8   0    4.69    0.34
  -5   8   0    4.52    0.32
  -5   8   0    4.84    0.34
  -5   8   0    4.65    0.30
  -5   8   0    4.27    0.29
  -5   8   0    5.41    0.60
  -5   8   0    4.42    0.31
   4  -8   0   29.09    1.23
   4  -8   0   29.26    1.16
  -4   8   0   28.83    1.10
  -4   8   0   29.40    1.16
  -4   8   0   29.25    1.10
  -4   8   0   28.84    1.15
  -4   8   0   30.51    1.42
  -4   8   0   28.42    1.16
   3  -8   0   25.22    1.06
   3  -8   0   25.28    1.01
  -3   8   0   22.97    1.00
  -3   8   0   24.96    1.01
  -3   8   0   26.13    1.21
  -3   8   0   24.71    0.95
  -3   8   0   23.13    0.95
  -3   8   0   25.27    1.00
  -3   8   0   23.49    1.09
   2  -8   0    0.66    0.21
   2  -8   0    1.01    0.22
  -2   8   0    0.79    0.21
  -2   8   0    0.63    0.22
  -2   8   0    0.62    0.26
  -2   8   0    0.42    0.22
   1  -8   0    7.18    0.44
  -1   8   0    7.14    0.45
  -1   8   0    7.49    0.46
  -1   8   0    8.08    0.45
  -1   8   0    7.19    0.35
   0  -8   0    1.53    0.25
   0   8   0    1.54    0.26
   0   8   0    1.42    0.18
   0   8   0    1.57    0.27
  -1  -8   0    0.35    0.22
   1   8   0    0.21    0.25
   1   8   0    0.48    0.23
   1   8   0    0.36    0.17
  -2  -8   0    0.20    0.22
   2   8   0    0.11    0.25
   2   8   0   -0.16    0.25
  -3  -8   0    0.04    0.22
   3   8   0   -0.51    0.25
   3   8   0    0.20    0.25
  -4  -8   0    3.14    0.32
   4   8   0    2.98    0.37
   4   8   0    3.31    0.37
   5   8   0    0.21    0.30
   5   8   0   -0.12    0.30
   9  -9   0    9.92    0.55
   8  -9   0    5.87    0.39
  -8   9   0    4.86    0.37
  -8   9   0    4.40    0.31
  -8   9   0    5.38    0.54
  -8   9   0    5.18    0.32
   7  -9   0    1.35    0.25
  -7   9   0    1.67    0.22
  -7   9   0    1.77    0.26
  -7   9   0    1.86    0.23
  -7   9   0    1.93    0.36
   6  -9   0    0.68    0.22
  -6   9   0    0.56    0.33
  -6   9   0    0.84    0.21
  -6   9   0    0.64    0.23
  -6   9   0    0.48    0.17
  -6   9   0    0.31    0.20
  -6   9   0    0.38    0.16
   5  -9   0    3.80    0.34
  -5   9   0    4.28    0.48
  -5   9   0    4.21    0.33
  -5   9   0    3.72    0.35
  -5   9   0    4.34    0.30
  -5   9   0    3.90    0.30
   4  -9   0    4.48    0.37
   4  -9   0    4.75    0.36
  -4   9   0    4.70    0.34
  -4   9   0    4.51    0.33
  -4   9   0    4.62    0.49
  -4   9   0    4.56    0.34
  -4   9   0    4.65    0.38
   3  -9   0   24.01    1.06
   3  -9   0   24.76    1.00
  -3   9   0   22.75    0.95
  -3   9   0   23.64    1.08
  -3   9   0   22.35    1.00
  -3   9   0   26.47    1.21
  -3   9   0   24.18    1.01
   2  -9   0    7.97    0.48
  -2   9   0    8.13    0.50
   1  -9   0    1.49    0.26
  -1   9   0    1.35    0.16
  -1   9   0    1.47    0.27
   0  -9   0   -0.05    0.22
   0   9   0   -0.39    0.24
   0   9   0   -0.24    0.25
   0   9   0   -0.05    0.15
  -1  -9   0   -0.01    0.22
   1   9   0    0.14    0.25
   1   9   0    0.09    0.26
  -2  -9   0    1.98    0.29
   2   9   0    2.28    0.32
   2   9   0    2.36    0.35
  -3  -9   0   -0.22    0.24
   3   9   0    0.24    0.30
   3   9   0    0.02    0.28
   4   9   0    0.74    0.35
   4   9   0    1.09    0.35
   8 -10   0    1.50    0.28
  -8  10   0    1.11    0.38
  -8  10   0    1.00    0.27
   7 -10   0    2.25    0.28
  -7  10   0    2.38    0.26
  -7  10   0    1.81    0.29
  -7  10   0    2.27    0.38
   6 -10   0    2.31    0.27
  -6  10   0    1.47    0.22
  -6  10   0    1.41    0.36
  -6  10   0    1.82    0.25
  -6  10   0    1.77    0.29
  -6  10   0    1.71    0.21
   5 -10   0   -0.07    0.22
  -5  10   0    0.02    0.20
  -5  10   0   -0.06    0.21
  -5  10   0    0.07    0.31
  -5  10   0    0.58    0.20
  -4  10   0   18.62    0.98
  -4  10   0   17.64    0.81
   3 -10   0    6.13    0.43
  -3  10   0    6.20    0.45
  -3  10   0    6.03    0.52
   2 -10   0    0.27    0.23
  -2  10   0    0.40    0.25
   1 -10   0    1.27    0.27
  -1  10   0    0.87    0.27
   0 -10   0    4.68    0.42
   0  10   0    4.46    0.43
  -1 -10   0    4.72    0.42
   1  10   0    4.00    0.41
   1  10   0    3.84    0.41
   2  10   0    0.47    0.30
   3  10   0    4.35    0.44
  -7  11   0    1.07    0.38
  -7  11   0    1.01    0.25
  -6  11   0    1.22    0.23
  -6  11   0    1.73    0.38
  -6  11   0    1.43    0.23
  -6  11   0    1.56    0.28
  -5  11   0    6.00    0.41
  -5  11   0    5.99    0.56
   3 -11   0   11.26    0.61
   2 -11   0    6.04    0.46
   1 -11   0    2.59    0.32
   0  11   0    2.90    0.38
   1  11   0    0.02    0.32
   3 -12   1    0.26    0.27
  -5  12  -1    0.73    0.26
   0 -11   1    0.12    0.25
   1 -11   1    2.43    0.32
   2 -11   1    5.97    0.47
   3 -11   1    4.48    0.41
  -4  11  -1    4.62    0.51
  -4  11  -1    4.28    0.37
  -5  11  -1    0.09    0.32
  -5  11  -1    0.16    0.21
  -5  11  -1   -0.11    0.19
  -5  11  -1   -0.31    0.22
  -6  11  -1    2.86    0.30
  -6  11  -1    3.48    0.28
  -6  11  -1    3.67    0.30
  -6  11  -1    4.13    0.45
   6 -11   1    3.38    0.33
  -7  11  -1    0.45    0.23
  -7  11  -1    0.49    0.36
   7 -11   1    0.34    0.25
   3  10  -1    3.86    0.41
   2  10  -1   18.02    0.89
   2  10  -1   17.82    0.88
  -2 -10   1   17.65    0.84
   1  10  -1    2.07    0.32
   1  10  -1    2.13    0.34
  -1 -10   1    2.18    0.30
   0  10  -1   -0.25    0.26
   0  10  -1    0.21    0.25
   0 -10   1    0.20    0.24
  -1  10  -1    2.58    0.30
  -1  10  -1    2.77    0.32
   1 -10   1    2.38    0.29
  -2  10  -1    5.23    0.42
   2 -10   1    5.90    0.42
  -3  10  -1    9.83    0.57
  -3  10  -1   10.79    0.55
   3 -10   1   10.59    0.56
  -4  10  -1   16.25    0.88
  -4  10  -1   16.23    0.72
  -4  10  -1   14.79    0.71
   4 -10   1   16.28    0.77
   4 -10   1   16.09    0.73
  -5  10  -1    1.24    0.20
  -5  10  -1    0.91    0.23
  -5  10  -1    1.28    0.21
  -5  10  -1    0.81    0.32
   5 -10   1    0.78    0.23
  -6  10  -1    1.03    0.19
  -6  10  -1    1.18    0.18
  -6  10  -1    0.90    0.22
  -6  10  -1    1.26    0.34
   6 -10   1    1.45    0.24
  -7  10  -1   -0.01    0.20
  -7  10  -1    0.24    0.32
  -7  10  -1    0.25    0.20
   7 -10   1   -0.18    0.21
  -8  10  -1    2.12    0.24
  -8  10  -1    2.10    0.23
  -8  10  -1    1.39    0.40
   8 -10   1    2.21    0.28
   4   9  -1    0.21    0.31
   4   9  -1    0.71    0.30
   3   9  -1    0.24    0.28
   3   9  -1    0.41    0.28
  -3  -9   1   -0.01    0.24
   2   9  -1   15.33    0.75
   2   9  -1   15.37    0.79
  -2  -9   1   15.63    0.74
   1   9  -1    8.59    0.52
   1   9  -1    8.15    0.43
   1   9  -1    8.77    0.52
  -1  -9   1    8.59    0.49
   0   9  -1    3.80    0.38
   0   9  -1    4.12    0.35
   0   9  -1    3.80    0.27
   0  -9   1    3.78    0.36
  -1   9  -1    1.45    0.15
  -1   9  -1    1.18    0.26
  -1   9  -1    1.36    0.25
   1  -9   1    1.64    0.24
  -2   9  -1    2.51    0.28
  -2   9  -1    2.12    0.27
  -2   9  -1    2.44    0.30
   2  -9   1    1.74    0.26
   2  -9   1    2.08    0.26
  -3   9  -1   19.19    0.85
  -3   9  -1   18.71    0.84
  -3   9  -1   19.92    1.00
  -3   9  -1   19.92    0.90
   3  -9   1   20.81    0.90
   3  -9   1   19.63    0.85
  -4   9  -1   16.59    0.69
  -4   9  -1   14.88    0.68
  -4   9  -1   14.15    0.66
  -4   9  -1   15.88    0.86
   4  -9   1   16.16    0.73
   4  -9   1   16.54    0.71
  -5   9  -1    4.73    0.31
  -5   9  -1    5.17    0.34
  -5   9  -1    5.09    0.50
  -5   9  -1    5.17    0.32
  -5   9  -1    5.27    0.34
   5  -9   1    5.64    0.36
  -6   9  -1    0.34    0.19
  -6   9  -1    0.13    0.19
  -6   9  -1    0.17    0.29
  -6   9  -1   -0.02    0.21
   6  -9   1    0.06    0.19
  -7   9  -1    0.50    0.18
  -7   9  -1    0.66    0.33
  -7   9  -1    0.44    0.19
  -7   9  -1    0.60    0.22
   7  -9   1    0.65    0.21
  -8   9  -1    1.85    0.25
  -8   9  -1    1.91    0.39
   8  -9   1    3.12    0.30
  -9   9  -1    7.89    0.65
   9  -9   1    8.43    0.48
   5   8  -1    0.12    0.30
   5   8  -1    0.51    0.30
   4   8  -1    1.99    0.31
   4   8  -1    1.47    0.31
  -4  -8   1    1.60    0.28
   3   8  -1    0.31    0.26
   3   8  -1    0.69    0.27
  -3  -8   1    0.48    0.23
   2   8  -1    7.92    0.49
   2   8  -1    7.61    0.49
  -2  -8   1    7.91    0.46
   1   8  -1    0.26    0.23
   1   8  -1    0.32    0.22
   1   8  -1    0.44    0.16
  -1  -8   1    0.37    0.20
   0   8  -1    4.01    0.26
   0   8  -1    3.78    0.36
   0   8  -1    3.53    0.34
   0  -8   1    4.02    0.34
  -1   8  -1   11.72    0.50
  -1   8  -1   11.84    0.57
  -1   8  -1   11.66    0.61
  -1   8  -1   13.31    0.60
  -1   8  -1   12.47    0.60
   1  -8   1   11.80    0.58
   1  -8   1   12.20    0.61
  -2   8  -1    4.37    0.32
  -2   8  -1    4.30    0.42
  -2   8  -1    4.45    0.33
  -2   8  -1    4.46    0.35
  -2   8  -1    3.49    0.34
  -2   8  -1    3.92    0.32
   2  -8   1    4.55    0.35
   2  -8   1    4.75    0.35
  -3   8  -1    1.38    0.22
  -3   8  -1    1.76    0.21
  -3   8  -1    1.93    0.29
  -3   8  -1    1.67    0.23
  -3   8  -1    2.04    0.24
   3  -8   1    1.76    0.22
   3  -8   1    1.73    0.18
   3  -8   1    1.70    0.22
  -4   8  -1   51.91    2.35
  -4   8  -1   49.31    1.94
  -4   8  -1   51.48    1.91
  -4   8  -1   53.21    1.83
  -4   8  -1   50.07    1.94
  -4   8  -1   49.65    1.82
  -4   8  -1   50.47    1.90
   4  -8   1   52.23    1.94
   4  -8   1   49.85    2.06
  -5   8  -1   13.63    0.58
  -5   8  -1   14.64    0.58
  -5   8  -1   12.72    0.57
  -5   8  -1   13.29    0.60
  -5   8  -1   13.79    0.78
  -5   8  -1   13.30    0.57
  -5   8  -1   13.74    0.61
   5  -8   1   13.35    0.60
   5  -8   1   13.37    0.63
  -6   8  -1    9.25    0.48
  -6   8  -1    8.97    0.46
  -6   8  -1    9.11    0.43
  -6   8  -1    9.34    0.63
  -6   8  -1    9.93    0.43
   6  -8   1    9.59    0.48
  -7   8  -1    7.75    0.42
  -7   8  -1    8.43    0.38
  -7   8  -1    7.98    0.43
  -7   8  -1    7.88    0.60
  -7   8  -1    8.31    0.38
   7  -8   1    9.18    0.45
  -8   8  -1    0.08    0.18
  -8   8  -1   -0.07    0.31
  -8   8  -1   -0.07    0.18
   8  -8   1   -0.11    0.18
  -9   8  -1    0.46    0.34
   9  -8   1    0.06    0.19
   6   7  -1    0.18    0.30
  -6  -7   1    0.99    0.25
   5   7  -1    0.46    0.28
   5   7  -1    0.78    0.29
  -5  -7   1    0.60    0.24
   4   7  -1    2.15    0.30
   4   7  -1    2.63    0.31
  -4  -7   1    2.23    0.27
   3   7  -1    0.25    0.24
   3   7  -1    0.47    0.25
  -3  -7   1    0.42    0.21
   2   7  -1   -0.04    0.14
   2   7  -1   -0.20    0.22
   2   7  -1   -0.07    0.21
  -2  -7   1   -0.01    0.19
   1   7  -1   18.10    0.74
   1   7  -1   17.93    0.84
   1   7  -1   19.24    0.80
  -1  -7   1   17.72    0.79
  -1  -7   1   18.44    0.74
   0   7  -1    7.55    0.43
   0   7  -1    6.81    0.40
   0   7  -1    7.38    0.43
   0   7  -1    7.18    0.41
   0   7  -1    7.55    0.36
   0   7  -1    8.03    0.43
   0  -7   1    7.03    0.36
   0  -7   1    7.51    0.42
   0  -7   1    7.27    0.43
  -1   7  -1   21.04    0.92
  -1   7  -1   22.04    0.99
  -1   7  -1   22.70    0.92
  -1   7  -1   22.99    0.87
  -1   7  -1   22.04    0.86
  -1   7  -1   22.73    0.93
   1  -7   1   23.68    0.88
   1  -7   1   21.91    0.97
   1  -7   1   23.30    0.93
   1  -7   1   23.20    0.93
   1  -7   1   23.23    0.93
  -2   7  -1    0.04    0.17
  -2   7  -1   -0.16    0.16
  -2   7  -1    0.00    0.18
  -2   7  -1   -0.11    0.18
  -2   7  -1    0.31    0.16
  -2   7  -1   -0.12    0.22
   2  -7   1    0.23    0.14
   2  -7   1    0.12    0.12
   2  -7   1    0.28    0.15
   2  -7   1    0.02    0.16
   2  -7   1    0.01    0.16
  -3   7  -1   14.33    0.63
  -3   7  -1   14.53    0.63
  -3   7  -1   14.96    0.60
  -3   7  -1   15.14    0.64
  -3   7  -1   14.51    0.79
  -3   7  -1   14.83    0.69
  -3   7  -1   14.12    0.62
   3  -7   1   14.66    0.63
   3  -7   1   14.77    0.66
   3  -7   1   15.52    0.61
  -4   7  -1    5.70    0.31
  -4   7  -1    5.64    0.36
  -4   7  -1    6.00    0.50
  -4   7  -1    5.70    0.32
  -4   7  -1    5.37    0.30
  -4   7  -1    5.98    0.32
  -4   7  -1    5.23    0.34
   4  -7   1    5.61    0.35
   4  -7   1    5.89    0.34
  -5   7  -1   59.35    2.11
  -5   7  -1   61.47    2.76
  -5   7  -1   60.75    2.22
  -5   7  -1   56.36    2.21
  -5   7  -1   62.53    2.12
  -5   7  -1   59.51    2.25
   5  -7   1   59.37    2.25
   5  -7   1   62.38    2.41
  -6   7  -1   54.99    2.12
  -6   7  -1   57.41    2.65
  -6   7  -1   55.53    2.02
  -6   7  -1   59.40    2.02
  -6   7  -1   58.16    2.12
   6  -7   1   59.79    2.30
  -7   7  -1    3.63    0.27
  -7   7  -1    3.38    0.38
  -8   7  -1    1.09    0.33
  -9   7  -1   -0.04    0.32
 -10   7  -1    0.41    0.36
   7   6  -1    0.33    0.31
  -7  -6   1    0.35    0.23
   6   6  -1   -0.13    0.27
  -6  -6   1   -0.03    0.22
   5   6  -1    2.75    0.33
   5   6  -1    3.03    0.32
  -5  -6   1    2.93    0.28
   4   6  -1    0.41    0.24
   4   6  -1    0.62    0.24
  -4  -6   1    0.43    0.20
  -4  -6   1    0.78    0.22
  -4  -6   1    0.38    0.18
   3   6  -1    8.79    0.53
   3   6  -1    9.33    0.51
  -3  -6   1    9.31    0.50
  -3  -6   1    9.09    0.49
  -3  -6   1    9.86    0.50
   2   6  -1    0.75    0.21
   2   6  -1    0.74    0.15
   2   6  -1    0.62    0.20
   2   6  -1    0.62    0.20
  -2  -6   1    0.70    0.19
  -2  -6   1    0.46    0.19
  -2  -6   1    0.62    0.13
  -2  -6   1    0.49    0.17
   1   6  -1    5.70    0.36
   1   6  -1    5.38    0.36
   1   6  -1    5.48    0.33
   1   6  -1    5.21    0.29
   1   6  -1    5.80    0.36
   1   6  -1    5.16    0.33
  -1  -6   1    6.18    0.33
  -1  -6   1    5.59    0.30
  -1  -6   1    5.76    0.37
  -1  -6   1    5.17    0.34
  -1  -6   1    5.55    0.34
  -1  -6   1    5.84    0.35
   0   6  -1   44.44    1.60
   0   6  -1   43.18    1.72
   0   6  -1   45.06    1.65
   0   6  -1   43.74    1.86
   0   6  -1   48.56    1.69
   0   6  -1   44.81    1.70
   0   6  -1   44.25    1.72
   0  -6   1   45.56    1.72
   0  -6   1   44.94    1.67
   0  -6   1   44.45    1.71
   0  -6   1   45.64    1.66
   0  -6   1   42.56    1.81
  -1   6  -1   64.50    2.33
  -1   6  -1   60.95    2.63
  -1   6  -1   63.53    2.40
  -1   6  -1   64.81    2.42
  -1   6  -1   64.90    2.26
  -1   6  -1   63.06    2.88
  -1   6  -1   64.11    2.43
   1  -6   1   63.47    2.40
   1  -6   1   63.29    2.42
   1  -6   1   63.42    2.35
   1  -6   1   67.28    2.43
   1  -6   1   62.87    2.56
   1  -6   1   68.33    2.35
  -2   6  -1    0.76    0.16
  -2   6  -1    0.65    0.14
  -2   6  -1    0.32    0.20
  -2   6  -1    0.58    0.15
  -2   6  -1    0.61    0.15
  -2   6  -1    0.57    0.14
   2  -6   1    0.46    0.13
   2  -6   1    0.65    0.14
   2  -6   1    0.42    0.11
   2  -6   1    0.54    0.14
   2  -6   1    0.53    0.14
  -3   6  -1    2.09    0.18
  -3   6  -1    2.05    0.19
  -3   6  -1    2.14    0.19
  -3   6  -1    2.17    0.19
  -3   6  -1    2.30    0.20
  -3   6  -1    2.44    0.23
  -3   6  -1    2.23    0.26
   3  -6   1    2.37    0.19
   3  -6   1    2.60    0.22
   3  -6   1    2.16    0.18
  -4   6  -1    5.53    0.28
  -4   6  -1    5.77    0.28
  -4   6  -1    5.32    0.31
  -4   6  -1    5.03    0.30
  -4   6  -1    5.05    0.27
  -4   6  -1    5.84    0.30
  -4   6  -1    5.74    0.28
  -4   6  -1    5.48    0.46
   4  -6   1    5.58    0.31
   4  -6   1    5.07    0.31
  -5   6  -1    1.40    0.30
  -5   6  -1    1.48    0.17
  -5   6  -1    1.77    0.16
  -5   6  -1    1.70    0.16
  -5   6  -1    1.62    0.18
   5  -6   1    1.80    0.18
   5  -6   1    1.54    0.17
  -6   6  -1   65.23    2.96
  -6   6  -1   66.29    2.37
  -6   6  -1   63.22    2.36
  -7   6  -1   58.37    2.57
  -7   6  -1   52.98    2.03
  -8   6  -1    2.30    0.36
  -9   6  -1    1.09    0.34
 -10   6  -1    1.42    0.37
   7   5  -1    0.63    0.30
  -7  -5   1    0.74    0.22
  -7  -5   1    0.65    0.20
  -7  -5   1    0.73    0.25
   6   5  -1    2.12    0.32
   6   5  -1    2.20    0.28
  -6  -5   1    2.70    0.26
  -6  -5   1    2.03    0.27
  -6  -5   1    2.49    0.24
   5   5  -1    0.01    0.24
   5   5  -1    0.34    0.22
  -5  -5   1    0.27    0.19
  -5  -5   1    0.40    0.18
  -5  -5   1    0.40    0.21
   4   5  -1   -0.11    0.20
   4   5  -1    0.33    0.23
  -4  -5   1    0.24    0.17
  -4  -5   1    0.41    0.20
  -4  -5   1    0.21    0.19
   3   5  -1    1.03    0.19
   3   5  -1    1.06    0.22
   3   5  -1    1.46    0.20
   3   5  -1    1.45    0.21
   3   5  -1    0.94    0.21
  -3  -5   1    1.09    0.19
  -3  -5   1    1.25    0.19
  -3  -5   1    1.14    0.19
   2   5  -1   10.82    0.48
   2   5  -1    9.41    0.47
   2   5  -1    9.38    0.43
   2   5  -1    9.68    0.47
   2   5  -1    9.35    0.44
   2   5  -1    9.88    0.50
  -2  -5   1   10.05    0.47
  -2  -5   1    9.62    0.47
  -2  -5   1   10.25    0.47
  -2  -5   1   10.23    0.42
   1   5  -1    1.47    0.17
   1   5  -1    1.46    0.18
   1   5  -1    1.30    0.17
   1   5  -1    1.55    0.18
   1   5  -1    1.37    0.16
   1   5  -1    1.28    0.14
   1   5  -1    1.89    0.19
  -1  -5   1    1.75    0.16
  -1  -5   1    1.60    0.17
  -1  -5   1    1.41    0.17
  -1  -5   1    1.48    0.16
  -1  -5   1    1.65    0.17
  -1  -5   1    1.35    0.13
   0   5  -1    2.87    0.24
   0   5  -1    2.65    0.21
   0   5  -1    2.84    0.22
   0   5  -1    2.65    0.19
   0   5  -1    2.91    0.23
   0   5  -1    2.66    0.26
   0   5  -1    2.55    0.24
   0  -5   1    2.45    0.20
   0  -5   1    2.64    0.20
   0  -5   1    2.83    0.24
   0  -5   1    2.74    0.23
   0  -5   1    2.60    0.23
  -1   5  -1   10.25    0.45
  -1   5  -1    9.59    0.53
  -1   5  -1    9.75    0.44
  -1   5  -1    9.83    0.47
  -1   5  -1    9.71    0.45
  -1   5  -1    9.74    0.39
  -1   5  -1    9.99    0.45
  -1   5  -1    9.86    0.42
   1  -5   1    9.14    0.43
   1  -5   1    9.45    0.45
   1  -5   1    9.84    0.42
   1  -5   1    9.82    0.45
   1  -5   1    9.89    0.46
   1  -5   1   10.29    0.44
  -2   5  -1   40.87    1.51
  -2   5  -1   38.79    1.65
  -2   5  -1   37.46    1.82
  -2   5  -1   38.81    1.52
  -2   5  -1   39.00    1.52
  -2   5  -1   42.80    1.49
  -2   5  -1   40.29    1.48
  -2   5  -1   40.77    1.51
  -2   5  -1   41.33    1.42
   2  -5   1   40.58    1.47
   2  -5   1   40.52    1.52
   2  -5   1   41.08    1.61
   2  -5   1   39.46    1.52
   2  -5   1   39.33    1.65
   2  -5   1   39.23    1.51
  -3   5  -1    1.12    0.14
  -3   5  -1    1.15    0.12
  -3   5  -1    1.22    0.13
  -3   5  -1    0.95    0.13
  -3   5  -1    1.15    0.13
  -3   5  -1    0.91    0.21
  -3   5  -1    1.10    0.14
   3  -5   1    0.74    0.12
   3  -5   1    0.62    0.12
  -4   5  -1    7.12    0.31
  -4   5  -1    6.91    0.33
  -4   5  -1    6.90    0.49
  -4   5  -1    7.34    0.31
  -4   5  -1    7.51    0.32
  -4   5  -1    7.21    0.33
   4  -5   1    7.06    0.33
  -5   5  -1    0.87    0.13
  -5   5  -1    0.77    0.13
  -5   5  -1    1.11    0.25
  -5   5  -1    1.07    0.12
   5  -5   1    0.77    0.12
  -6   5  -1    1.96    0.30
  -6   5  -1    2.01    0.19
  -7   5  -1   61.13    2.81
  -8   5  -1   35.39    1.71
  -9   5  -1    3.80    0.42
 -10   5  -1    0.30    0.33
  10  -5   1    0.44    0.29
   8   4  -1    5.58    0.50
  -8  -4   1    6.01    0.42
   7   4  -1    1.93    0.33
  -7  -4   1    2.51    0.28
  -7  -4   1    2.14    0.22
  -7  -4   1    2.54    0.24
   6   4  -1    1.49    0.29
   6   4  -1    1.68    0.25
  -6  -4   1    1.80    0.24
  -6  -4   1    1.86    0.21
  -6  -4   1    1.97    0.22
   5   4  -1    0.26    0.19
   5   4  -1   -0.13    0.21
  -5  -4   1   -0.30    0.18
  -5  -4   1   -0.21    0.17
  -5  -4   1   -0.16    0.15
   4   4  -1    0.05    0.16
   4   4  -1    0.15    0.13
   4   4  -1    0.06    0.17
   4   4  -1   -0.07    0.15
   4   4  -1   -0.01    0.19
  -4  -4   1   -0.14    0.14
  -4  -4   1    0.15    0.17
  -4  -4   1    0.05    0.17
   3   4  -1    1.64    0.19
   3   4  -1    1.51    0.19
   3   4  -1    1.41    0.19
   3   4  -1    1.44    0.14
   3   4  -1    1.77    0.19
   3   4  -1    1.35    0.17
  -3  -4   1    1.52    0.17
  -3  -4   1    1.76    0.18
  -3  -4   1    1.80    0.18
   2   4  -1    2.19    0.20
   2   4  -1    2.38    0.22
   2   4  -1    2.19    0.19
   2   4  -1    2.58    0.24
   2   4  -1    2.32    0.18
   2   4  -1    2.38    0.21
  -2  -4   1    2.57    0.23
  -2  -4   1    2.64    0.19
  -2  -4   1    2.46    0.17
  -2  -4   1    2.53    0.19
   1   4  -1   12.34    0.55
   1   4  -1   13.18    0.54
   1   4  -1   12.20    0.49
   1   4  -1   11.79    0.53
   1   4  -1   11.30    0.55
   1   4  -1   12.88    0.53
   1   4  -1   12.02    0.49
  -1  -4   1   11.62    0.52
  -1  -4   1   12.07    0.52
  -1  -4   1   11.45    0.53
  -1  -4   1   12.72    0.53
  -1  -4   1   12.18    0.51
  -1  -4   1   11.68    0.48
   0   4  -1    3.56    0.28
   0   4  -1    2.66    0.23
   0   4  -1    2.23    0.18
   0   4  -1    2.22    0.19
   0   4  -1    2.65    0.23
   0   4  -1    2.81    0.22
   0  -4   1    1.66    0.18
   0  -4   1    2.36    0.18
   0  -4   1    2.10    0.18
   0  -4   1    2.68    0.24
   0  -4   1    2.02    0.17
   0  -4   1    2.18    0.20
  -1   4  -1   14.70    0.78
  -1   4  -1   15.43    0.60
  -1   4  -1   15.00    0.69
  -1   4  -1   15.26    0.65
  -1   4  -1   17.46    0.66
  -1   4  -1   16.14    0.65
  -1   4  -1   16.50    0.64
  -1   4  -1   16.28    0.64
  -1   4  -1   16.65    0.61
   1  -4   1   16.66    0.65
   1  -4   1   15.82    0.78
   1  -4   1   15.61    0.65
   1  -4   1   14.77    0.63
   1  -4   1   16.82    0.68
   1  -4   1   16.28    0.62
   1  -4   1   15.86    0.65
   1  -4   1   16.80    0.69
  -2   4  -1   51.40    1.87
  -2   4  -1   52.34    1.79
  -2   4  -1   52.66    1.91
  -2   4  -1   46.90    2.10
  -2   4  -1   50.59    1.92
  -2   4  -1   46.92    2.32
  -2   4  -1   50.60    1.93
  -2   4  -1   54.16    1.88
  -2   4  -1   53.58    1.91
   2  -4   1   49.73    1.86
   2  -4   1   52.16    2.04
   2  -4   1   49.55    1.91
   2  -4   1   50.19    2.10
   2  -4   1   52.05    1.91
   2  -4   1   52.61    1.93
   2  -4   1   56.64    1.93
  -3   4  -1   15.94    0.59
  -3   4  -1   14.70    0.59
  -3   4  -1   14.88    0.56
  -3   4  -1   14.34    0.59
  -3   4  -1   15.33    0.59
  -3   4  -1   15.25    0.59
  -3   4  -1   13.97    0.79
   3  -4   1   15.98    0.60
   3  -4   1   16.50    0.60
   3  -4   1   15.64    0.60
   3  -4   1   13.54    0.67
  -4   4  -1   30.80    1.21
  -4   4  -1   33.26    1.21
  -4   4  -1   32.87    1.16
  -4   4  -1   34.84    1.16
  -4   4  -1   31.48    1.54
   4  -4   1   35.53    1.24
   4  -4   1   33.14    1.24
  -5   4  -1    0.26    0.21
  -6   4  -1    0.19    0.25
  -7   4  -1    0.68    0.28
  -8   4  -1   45.05    2.11
  -9   4  -1   34.57    1.64
   9  -4   1   33.06    1.49
 -10   4  -1    2.46    0.40
  10  -4   1    2.30    0.35
  -9  -3   1    0.28    0.24
   8   3  -1    9.45    0.59
  -8  -3   1    9.58    0.51
   7   3  -1   21.96    1.07
  -7  -3   1   25.65    0.93
  -7  -3   1   22.16    0.94
  -7  -3   1   21.83    0.91
   6   3  -1    1.60    0.28
   6   3  -1    1.78    0.22
  -6  -3   1    1.64    0.19
  -6  -3   1    1.97    0.20
  -6  -3   1    1.73    0.22
   5   3  -1   37.19    1.67
   5   3  -1   38.51    1.51
   5   3  -1   39.77    1.46
  -5  -3   1   41.33    1.50
  -5  -3   1   40.98    1.51
  -5  -3   1   37.22    1.48
   4   3  -1    0.32    0.18
   4   3  -1    0.33    0.15
   4   3  -1    0.08    0.15
   4   3  -1    0.19    0.11
  -4  -3   1    0.41    0.15
  -4  -3   1    0.41    0.13
  -4  -3   1    0.26    0.14
  -4  -3   1    0.48    0.13
   3   3  -1    8.78    0.38
   3   3  -1    8.95    0.41
   3   3  -1    8.32    0.41
   3   3  -1    7.90    0.41
   3   3  -1    9.31    0.45
   3   3  -1    8.21    0.42
  -3  -3   1    8.85    0.40
  -3  -3   1    9.44    0.41
  -3  -3   1    8.50    0.37
  -3  -3   1    8.94    0.41
  -3  -3   1    8.22    0.41
   2   3  -1    0.09    0.14
   2   3  -1   -0.01    0.10
   2   3  -1    0.05    0.13
   2   3  -1    0.04    0.13
   2   3  -1    0.09    0.13
   2   3  -1   -0.03    0.14
   2   3  -1    0.14    0.15
  -2  -3   1    0.27    0.09
  -2  -3   1    0.10    0.14
  -2  -3   1    0.23    0.13
  -2  -3   1   -0.03    0.13
  -2  -3   1    0.24    0.13
  -2  -3   1    0.25    0.12
   1   3  -1   25.58    0.89
   1   3  -1   25.82    0.96
   1   3  -1   24.35    1.01
   1   3  -1   25.29    0.96
   1   3  -1   23.66    0.95
   1   3  -1   23.64    1.03
   1   3  -1   24.55    0.92
   1   3  -1   26.33    0.94
  -1  -3   1   22.79    0.95
  -1  -3   1   26.12    0.89
  -1  -3   1   23.92    0.93
  -1  -3   1   25.15    0.95
  -1  -3   1   24.93    0.92
  -1  -3   1   24.46    0.95
  -1  -3   1   24.42    0.96
  -1  -3   1   25.41    1.04
   0   3  -1    2.27    0.18
   0   3  -1    2.33    0.17
   0   3  -1    2.34    0.15
   0   3  -1    2.64    0.16
   0   3  -1    2.34    0.16
   0   3  -1    2.46    0.15
   0   3  -1    2.14    0.17
   0   3  -1    2.07    0.14
   0  -3   1    1.98    0.17
   0  -3   1    2.27    0.16
   0  -3   1    2.51    0.17
   0  -3   1    2.50    0.16
   0  -3   1    2.04    0.16
   0  -3   1    2.12    0.14
   0  -3   1    2.14    0.16
   0  -3   1    2.16    0.17
  -1   3  -1    1.39    0.12
  -1   3  -1    1.45    0.11
  -1   3  -1    1.58    0.14
  -1   3  -1    1.28    0.12
  -1   3  -1    1.28    0.10
  -1   3  -1    1.66    0.14
  -1   3  -1    1.28    0.13
  -1   3  -1    1.16    0.12
  -1   3  -1    1.37    0.12
  -1   3  -1    1.23    0.11
   1  -3   1    1.59    0.12
   1  -3   1    1.37    0.12
   1  -3   1    1.56    0.12
   1  -3   1    1.20    0.10
   1  -3   1    1.61    0.13
   1  -3   1    1.38    0.12
   1  -3   1    1.26    0.13
   1  -3   1    1.44    0.12
   1  -3   1    1.65    0.14
   1  -3   1    1.42    0.10
  -2   3  -1  122.49    4.18
  -2   3  -1  118.03    4.00
  -2   3  -1  104.23    5.15
  -2   3  -1  115.04    4.26
  -2   3  -1  110.71    4.30
  -2   3  -1  118.51    4.18
  -2   3  -1  117.44    4.30
   2  -3   1  121.18    4.26
   2  -3   1  132.97    4.30
   2  -3   1  122.53    4.30
   2  -3   1  114.22    4.26
   2  -3   1  109.49    4.56
   2  -3   1  103.42    4.69
  -3   3  -1  106.72    3.77
  -3   3  -1   94.08    4.65
   3  -3   1  112.52    3.87
   3  -3   1  104.08    3.84
   3  -3   1  105.45    3.83
  -4   3  -1    1.86    0.24
  -5   3  -1   -0.41    0.19
  -6   3  -1    0.85    0.25
  -7   3  -1   -0.13    0.25
  -8   3  -1   15.19    0.83
   8  -3   1   14.56    0.75
  -9   3  -1    8.42    0.61
   9  -3   1    7.91    0.54
 -10   3  -1   15.66    0.92
  10  -3   1   14.72    0.81
   9   2  -1    0.94    0.32
  -9  -2   1    0.89    0.23
   8   2  -1    2.63    0.36
  -8  -2   1    2.96    0.27
   7   2  -1    0.86    0.27
  -7  -2   1    0.70    0.20
  -7  -2   1    0.64    0.16
   6   2  -1   49.30    2.23
   6   2  -1   52.62    2.01
   6   2  -1   57.30    1.96
  -6  -2   1   56.21    2.00
  -6  -2   1   51.11    1.97
  -6  -2   1   51.95    2.00
   5   2  -1    8.03    0.35
   5   2  -1    7.26    0.45
   5   2  -1    7.74    0.39
  -5  -2   1    6.79    0.34
  -5  -2   1    7.40    0.36
  -5  -2   1    7.81    0.38
  -5  -2   1    7.22    0.38
   4   2  -1   12.15    0.58
   4   2  -1   12.09    0.51
   4   2  -1   12.39    0.48
   4   2  -1   12.35    0.52
  -4  -2   1   11.11    0.48
  -4  -2   1   12.52    0.51
  -4  -2   1   11.69    0.50
  -4  -2   1   12.42    0.50
  -4  -2   1   11.81    0.51
   3   2  -1   12.96    0.53
   3   2  -1   13.11    0.57
   3   2  -1   13.94    0.57
   3   2  -1   14.17    0.54
   3   2  -1   13.79    0.57
   3   2  -1   13.86    0.64
  -3  -2   1   12.94    0.57
  -3  -2   1   13.63    0.56
  -3  -2   1   13.15    0.53
  -3  -2   1   15.09    0.57
  -3  -2   1   13.44    0.56
   2   2  -1    0.40    0.11
   2   2  -1    0.47    0.08
   2   2  -1    0.27    0.10
   2   2  -1    0.36    0.11
   2   2  -1    0.37    0.13
   2   2  -1    0.36    0.11
   2   2  -1    0.45    0.11
  -2  -2   1    0.31    0.10
  -2  -2   1    0.47    0.10
  -2  -2   1    0.40    0.10
  -2  -2   1    0.27    0.11
  -2  -2   1    0.32    0.10
   1   2  -1    8.34    0.36
   1   2  -1    8.89    0.37
   1   2  -1    9.46    0.36
   1   2  -1    8.66    0.39
   1   2  -1    8.95    0.37
   1   2  -1    8.37    0.36
   1   2  -1    8.79    0.38
   1   2  -1    8.54    0.34
  -1  -2   1    8.47    0.34
  -1  -2   1    8.56    0.36
  -1  -2   1    9.20    0.39
  -1  -2   1    8.82    0.36
  -1  -2   1    9.27    0.34
  -1  -2   1    8.40    0.36
  -1  -2   1    8.90    0.37
   0   2  -1   45.74    1.77
   0   2  -1   49.72    1.94
   0   2  -1   45.84    1.75
   0   2  -1   48.35    1.65
   0   2  -1   47.98    1.76
   0   2  -1   46.43    1.72
   0   2  -1   53.52    1.88
   0   2  -1   48.23    1.77
   0  -2   1   47.50    1.88
   0  -2   1   46.88    1.72
   0  -2   1   47.20    1.77
   0  -2   1   46.29    1.75
   0  -2   1   43.91    1.72
   0  -2   1   46.22    1.76
   0  -2   1   48.52    1.93
  -1   2  -1   16.40    0.57
  -1   2  -1   15.48    0.53
  -1   2  -1   13.26    0.70
  -1   2  -1   14.53    0.57
  -1   2  -1   14.48    0.56
  -1   2  -1   14.65    0.57
  -1   2  -1   15.98    0.57
   1  -2   1   13.19    0.69
   1  -2   1   13.55    0.55
   1  -2   1   15.35    0.57
   1  -2   1   15.81    0.61
   1  -2   1   14.35    0.57
   1  -2   1   12.83    0.62
   1  -2   1   15.61    0.57
   1  -2   1   15.57    0.53
   1  -2   1   16.43    0.55
   1  -2   1   16.77    0.57
  -2   2  -1   16.89    0.80
   2  -2   1   17.44    0.79
  -3   2  -1   24.84    1.16
  -4   2  -1   26.65    1.26
  -5   2  -1    7.63    0.49
  -6   2  -1    1.20    0.25
  -7   2  -1    9.49    0.59
   7  -2   1    9.18    0.53
  -8   2  -1    0.18    0.27
   8  -2   1    0.08    0.25
  -9   2  -1    3.59    0.39
   9  -2   1    3.02    0.36
  10  -2   1    5.14    0.48
 -10  -1   1   -0.20    0.23
   9   1  -1    1.15    0.32
  -9  -1   1    1.21    0.22
   8   1  -1    1.42    0.30
  -8  -1   1    1.11    0.21
   7   1  -1    3.50    0.34
  -7  -1   1    3.03    0.27
   6   1  -1    7.86    0.40
   6   1  -1    7.77    0.48
  -6  -1   1    7.65    0.39
  -6  -1   1    8.32    0.39
  -6  -1   1    8.33    0.36
   5   1  -1   86.03    3.52
   5   1  -1   83.65    3.17
  -5  -1   1   85.62    3.11
  -5  -1   1   82.59    2.97
  -5  -1   1   85.88    3.19
  -5  -1   1   89.65    3.17
  -5  -1   1   87.35    3.16
   4   1  -1   71.83    2.78
   4   1  -1   81.32    2.81
  -4  -1   1   73.22    2.78
  -4  -1   1   75.12    2.73
  -4  -1   1   78.86    2.78
  -4  -1   1   77.70    2.61
  -4  -1   1   69.06    2.80
   3   1  -1   29.61    1.12
   3   1  -1   28.43    1.11
   3   1  -1   31.37    1.04
  -3  -1   1   27.22    1.12
  -3  -1   1   28.48    1.11
  -3  -1   1   28.18    1.09
  -3  -1   1   31.79    1.11
  -3  -1   1   29.92    1.04
   2   1  -1  522.45   19.52
   2   1  -1  495.91   19.23
   2   1  -1  593.24   18.31
   2   1  -1  561.29   19.69
  -2  -1   1  546.58   18.31
  -2  -1   1  573.11   19.52
  -2  -1   1  510.37   19.14
  -2  -1   1  500.96   19.53
  -2  -1   1  504.25   19.70
   0   1  -1   85.78    2.74
   0  -1   1   78.45    2.91
   0  -1   1   71.05    2.85
   0  -1   1   81.33    2.94
  -1   1  -1    6.68    0.35
   1  -1   1    6.85    0.34
  -2   1  -1   40.53    1.86
   2  -1   1   42.70    1.86
  -3   1  -1   49.58    2.23
  -4   1  -1    4.15    0.36
   4  -1   1    4.12    0.30
  -5   1  -1   47.29    2.14
   5  -1   1   46.89    1.96
  -6   1  -1    0.13    0.11
  -6   1  -1    0.00    0.22
   6  -1   1    0.46    0.22
  -7   1  -1    2.64    0.32
   7  -1   1    2.75    0.30
  -8   1  -1    1.37    0.17
   8  -1   1    1.36    0.28
  -9   1  -1    0.05    0.16
   9  -1   1    0.28    0.27
  10  -1   1    4.00    0.42
  10   0  -1    0.53    0.33
 -10   0   1    0.19    0.21
   9   0  -1    1.10    0.32
  -9   0   1    1.62    0.22
   8   0  -1    0.41    0.27
  -8   0   1    0.14    0.17
   7   0  -1    1.79    0.29
  -7   0   1    1.71    0.19
  -7   0   1    1.82    0.16
   6   0  -1   27.51    1.01
  -6   0   1   27.03    1.24
  -6   0   1   24.77    1.00
  -6   0   1   25.26    0.94
   5   0  -1   61.17    2.27
  -5   0   1   60.78    2.13
  -5   0   1   62.30    2.26
  -5   0   1   62.17    2.75
  -5   0   1   59.59    2.23
   4   0  -1    3.76    0.22
  -4   0   1    3.31    0.19
  -4   0   1    3.32    0.20
  -4   0   1    3.38    0.20
  -4   0   1    4.01    0.21
  -4   0   1    3.26    0.22
  -4   0   1    3.60    0.33
   3   0  -1   69.31    2.38
   3   0  -1   73.21    2.57
   3   0  -1   66.53    2.54
  -3   0   1   68.93    2.50
  -3   0   1   70.73    2.50
  -3   0   1   67.42    2.57
  -3   0   1   67.81    2.54
  -3   0   1   69.11    2.55
  -3   0   1   68.86    2.39
   2   0  -1  144.55    4.87
   2   0  -1  142.79    5.10
   2   0  -1  139.72    5.20
   2   0  -1  151.65    5.25
   2   0  -1  140.44    5.10
  -2   0   1  137.06    5.10
  -2   0   1  131.93    6.28
  -2   0   1  141.67    5.20
  -2   0   1  141.69    5.10
  -2   0   1  145.08    5.25
  -2   0   1  144.32    4.88
   1   0  -1   20.06    0.74
   1   0  -1   21.06    0.77
   1   0  -1   20.54    0.79
   1   0  -1   22.23    0.77
   1   0  -1   22.42    0.80
   1   0  -1   21.12    0.77
  -1   0   1   21.66    0.74
  -1   0   1   21.07    0.79
  -1   0   1   21.14    0.79
  -1   0   1   19.75    0.77
  -1   0   1   20.59    0.77
   0   0  -1   60.11    2.22
   0   0  -1   62.69    2.50
   0   0   1   61.16    2.26
  -1   0  -1   24.88    0.89
  -1   0  -1   23.55    0.87
  -1   0  -1   22.25    0.87
  -1   0  -1   24.03    0.88
  -1   0  -1   25.37    0.98
  -1   0  -1   21.90    0.88
   1   0   1   22.97    0.89
   1   0   1   22.54    0.88
   1   0   1   22.50    0.83
   1   0   1   21.91    0.88
   1   0   1   25.30    0.98
   1   0   1   22.89    0.87
   1   0   1   24.83    0.89
   1   0   1   25.26    0.95
   1   0   1   24.85    0.87
  -2   0  -1    4.80    0.22
  -2   0  -1    5.13    0.22
   2   0   1    6.04    0.23
   2   0   1    5.33    0.23
   2   0   1    5.49    0.21
   2   0   1    5.24    0.26
   2   0   1    4.98    0.22
   2   0   1    5.43    0.23
   2   0   1    5.22    0.28
  -3   0  -1   13.96    0.70
  -3   0  -1   12.78    0.54
   3   0   1   15.06    0.56
   3   0   1   14.08    0.68
   3   0   1   13.70    0.55
   3   0   1   14.94    0.64
   3   0   1   14.33    0.56
   3   0   1   14.78    0.56
  -4   0  -1    0.86    0.18
  -4   0  -1    0.99    0.12
   4   0   1    0.82    0.18
   4   0   1    0.85    0.11
   4   0   1    0.90    0.11
  -5   0  -1   23.36    0.92
  -5   0  -1   24.62    1.15
   5   0   1   24.81    0.93
   5   0   1   24.85    1.07
  -6   0  -1    6.90    0.35
   6   0   1    7.81    0.46
  -7   0  -1   -0.11    0.15
   7   0   1    0.20    0.24
  -8   0  -1    4.58    0.30
   8   0   1    5.08    0.42
  -9   0  -1    0.38    0.17
  -9   0  -1    0.32    0.19
   9   0   1    0.24    0.28
 -10   0  -1    0.03    0.20
  10  -1  -1    0.12    0.30
 -10   1   1   -0.11    0.18
   9  -1  -1    0.70    0.30
  -9   1   1    0.47    0.18
  -9   1   1    0.55    0.27
   8  -1  -1    2.14    0.32
  -8   1   1    2.37    0.21
  -8   1   1    2.94    0.33
  -7   1   1    1.18    0.26
  -7   1   1    0.95    0.16
  -6   1   1    0.26    0.23
  -6   1   1    0.45    0.13
  -6   1   1    0.50    0.11
   5  -1  -1   90.67    3.41
  -5   1   1   93.30    4.14
  -5   1   1   92.28    3.35
  -5   1   1   92.70    3.34
  -5   1   1   94.79    3.20
   4  -1  -1   50.11    1.83
  -4   1   1   51.19    1.80
  -4   1   1   47.84    2.24
  -4   1   1   48.67    1.80
  -4   1   1   49.70    1.72
   3  -1  -1    6.29    0.28
   3  -1  -1    6.31    0.26
   3  -1  -1    6.36    0.28
  -3   1   1    6.08    0.28
  -3   1   1    6.78    0.27
  -3   1   1    5.84    0.26
  -3   1   1    6.55    0.28
  -3   1   1    6.72    0.28
  -3   1   1    6.56    0.41
   2  -1  -1   99.96    3.67
   2  -1  -1  104.11    3.41
   2  -1  -1   98.89    3.64
   2  -1  -1   98.78    3.56
  -2   1   1   97.38    3.41
  -2   1   1   93.53    3.67
  -2   1   1   96.17    3.56
  -2   1   1  101.68    3.67
  -2   1   1   99.47    3.57
  -2   1   1  100.60    3.63
   1  -1  -1    0.68    0.08
   1  -1  -1    0.89    0.08
   1  -1  -1    0.77    0.06
   1  -1  -1    0.79    0.08
   1  -1  -1    0.78    0.08
   1  -1  -1    0.72    0.08
   1  -1  -1    0.80    0.10
  -1   1   1    0.86    0.08
  -1   1   1    0.90    0.08
  -1   1   1    0.89    0.10
  -1   1   1    0.75    0.08
  -1   1   1    0.86    0.08
  -1   1   1    0.95    0.08
  -1   1   1    1.34    0.12
  -1   1   1    0.74    0.07
   0  -1  -1   17.72    0.70
   0  -1  -1   18.13    0.69
   0  -1  -1   18.18    0.71
   0  -1  -1   21.14    0.78
   0  -1  -1   17.09    0.70
   0   1   1   18.59    0.71
   0   1   1   18.87    0.71
   0   1   1   18.20    0.69
   0   1   1   18.47    0.75
   0   1   1   18.11    0.69
   0   1   1   20.47    0.78
  -1  -1  -1  241.66    9.03
  -1  -1  -1  269.11    9.59
  -1  -1  -1  234.80    8.76
  -1  -1  -1  225.41    8.95
  -1  -1  -1  243.81    8.94
  -1  -1  -1  233.56    8.77
  -1  -1  -1  250.23    9.86
  -1  -1  -1  233.46    9.03
   1   1   1  260.52    9.88
   1   1   1  254.71    9.02
   1   1   1  262.38    9.02
   1   1   1  238.31    8.94
   1   1   1  242.83    8.76
   1   1   1  224.91    8.94
   1   1   1  244.64    9.58
   1   1   1  252.44    8.77
  -2  -1  -1   18.54    0.75
  -2  -1  -1   20.07    0.73
  -2  -1  -1   18.50    0.75
  -2  -1  -1   19.77    0.75
  -2  -1  -1   19.72    0.74
  -2  -1  -1   18.66    0.73
   2   1   1   19.97    0.76
   2   1   1   20.10    0.79
   2   1   1   20.30    0.83
   2   1   1   18.63    0.75
   2   1   1   20.51    0.76
   2   1   1   20.27    0.70
   2   1   1   19.74    0.75
  -3  -1  -1   40.64    1.58
  -3  -1  -1   42.70    1.58
  -3  -1  -1   41.21    1.59
  -3  -1  -1   40.15    1.55
   3   1   1   41.66    1.58
   3   1   1   42.22    1.69
   3   1   1   44.38    1.60
   3   1   1   43.28    1.76
   3   1   1   45.67    1.60
  -4  -1  -1    1.39    0.14
  -4  -1  -1    1.40    0.12
  -4  -1  -1    1.48    0.12
  -4  -1  -1    1.57    0.12
   4   1   1    1.27    0.14
   4   1   1    1.48    0.19
  -5  -1  -1   16.51    0.63
  -5  -1  -1   15.20    0.64
   5   1   1   15.85    0.64
   5   1   1   15.53    0.74
  -6  -1  -1    0.48    0.16
   6   1   1    0.80    0.16
   6   1   1    0.85    0.24
  -7  -1  -1    0.79    0.17
  -7  -1  -1    0.64    0.18
   7   1   1    0.70    0.16
   7   1   1    0.34    0.25
  -8  -1  -1    0.16    0.17
  -8  -1  -1    0.14    0.18
   8   1   1    0.16    0.26
  -9  -1  -1    0.84    0.21
   9   1   1    0.57    0.29
  10  -2  -1   -0.07    0.29
 -10   2   1   -0.20    0.17
   9  -2  -1   -0.11    0.27
  -9   2   1   -0.40    0.27
  -9   2   1    0.08    0.15
  -8   2   1    0.16    0.27
  -8   2   1    0.32    0.15
  -7   2   1    0.33    0.14
  -7   2   1    0.14    0.27
   6  -2  -1    0.06    0.11
  -6   2   1   -0.08    0.12
  -6   2   1   -0.11    0.11
  -6   2   1   -0.06    0.10
  -6   2   1   -0.38    0.22
   5  -2  -1    0.97    0.12
  -5   2   1    0.98    0.12
  -5   2   1    0.94    0.11
  -5   2   1    0.95    0.21
  -5   2   1    0.76    0.12
   4  -2  -1  101.35    3.68
  -4   2   1   99.84    3.61
  -4   2   1  103.18    3.61
  -4   2   1   95.80    4.47
  -4   2   1  100.89    3.45
   3  -2  -1  323.32   11.44
   3  -2  -1  321.52   10.63
   3  -2  -1  307.62   11.35
  -3   2   1  313.33   11.35
  -3   2   1  308.16   11.46
  -3   2   1  312.98   10.64
  -3   2   1  320.74   11.13
  -3   2   1  320.93   11.13
  -3   2   1  284.57   13.71
  -3   2   1  291.54   11.45
   2  -2  -1  257.84    8.99
   2  -2  -1  253.16    8.35
   2  -2  -1  238.32    8.78
   2  -2  -1  244.23    8.73
   2  -2  -1  227.67    9.83
   2  -2  -1  247.95    8.99
   2  -2  -1  237.28    8.91
  -2   2   1  243.39    8.35
  -2   2   1  243.20    8.91
  -2   2   1  246.20    8.99
  -2   2   1  245.38    8.74
  -2   2   1  242.36    8.99
  -2   2   1  240.71    8.73
   1  -2  -1    4.09    0.19
   1  -2  -1    4.52    0.23
   1  -2  -1    3.99    0.19
   1  -2  -1    3.89    0.20
   1  -2  -1    3.64    0.18
   1  -2  -1    3.81    0.20
   1  -2  -1    4.16    0.20
   1  -2  -1    3.77    0.20
  -1   2   1    4.14    0.21
  -1   2   1    4.06    0.20
  -1   2   1    3.81    0.20
  -1   2   1    3.96    0.20
  -1   2   1    4.03    0.22
  -1   2   1    3.93    0.19
   0  -2  -1   33.47    1.30
   0  -2  -1   34.21    1.29
   0  -2  -1   38.14    1.43
   0  -2  -1   36.47    1.38
   0  -2  -1   31.50    1.27
   0  -2  -1   32.87    1.26
   0  -2  -1   36.04    1.27
   0  -2  -1   33.03    1.29
   0   2   1   35.17    1.30
   0   2   1   35.70    1.27
   0   2   1   37.64    1.27
   0   2   1   32.97    1.26
   0   2   1   33.07    1.29
   0   2   1   36.07    1.43
   0   2   1   36.55    1.38
   0   2   1   31.53    1.29
  -1  -2  -1  144.01    5.00
  -1  -2  -1  133.72    5.04
  -1  -2  -1  141.96    5.51
  -1  -2  -1  120.69    4.99
  -1  -2  -1  143.21    5.35
  -1  -2  -1  136.11    5.04
  -1  -2  -1  131.51    4.90
   1   2   1  134.20    5.35
   1   2   1  138.21    4.90
   1   2   1  140.68    5.52
   1   2   1  132.62    4.90
   1   2   1  144.22    5.05
   1   2   1  133.17    5.04
   1   2   1  133.37    5.00
   1   2   1  136.87    5.00
  -2  -2  -1   17.06    0.68
  -2  -2  -1   16.89    0.68
  -2  -2  -1   16.80    0.66
  -2  -2  -1   16.22    0.67
  -2  -2  -1   15.65    0.68
  -2  -2  -1   17.07    0.68
   2   2   1   17.07    0.64
   2   2   1   17.73    0.69
   2   2   1   18.59    0.69
   2   2   1   16.26    0.69
   2   2   1   16.27    0.72
   2   2   1   17.56    0.76
   2   2   1   17.20    0.65
  -3  -2  -1   81.02    3.17
  -3  -2  -1   85.72    3.14
  -3  -2  -1   83.91    3.15
  -3  -2  -1   86.30    3.09
  -3  -2  -1   83.56    3.09
   3   2   1   81.21    3.15
   3   2   1   92.80    3.19
   3   2   1   80.74    3.36
   3   2   1   84.00    3.48
   3   2   1   90.80    3.18
   3   2   1   88.07    3.09
  -4  -2  -1    4.60    0.28
  -4  -2  -1    4.68    0.25
  -4  -2  -1    5.21    0.28
  -4  -2  -1    4.82    0.28
  -4  -2  -1    4.42    0.27
   4   2   1    4.34    0.28
   4   2   1    4.45    0.33
   4   2   1    4.50    0.28
   4   2   1    4.83    0.25
  -5  -2  -1   -0.09    0.13
  -5  -2  -1   -0.15    0.12
  -5  -2  -1   -0.18    0.15
  -5  -2  -1   -0.11    0.14
   5   2   1   -0.04    0.16
   5   2   1    0.04    0.20
   5   2   1    0.10    0.12
   5   2   1    0.11    0.15
  -6  -2  -1    1.01    0.19
  -6  -2  -1    0.82    0.15
  -6  -2  -1    0.81    0.14
  -6  -2  -1    0.98    0.18
   6   2   1    0.80    0.14
   6   2   1    0.48    0.24
   6   2   1    0.65    0.18
  -7  -2  -1   -0.04    0.19
  -7  -2  -1    0.18    0.18
   7   2   1    0.20    0.25
  -8  -2  -1    3.41    0.32
   8   2   1    4.37    0.43
  -9  -2  -1    0.54    0.23
   9   2   1    0.51    0.32
 -10   3   1   16.47    0.96
  -9   3   1   10.25    0.70
  -8   3   1    0.81    0.15
  -8   3   1    0.56    0.29
  -8   3   1    0.27    0.16
  -7   3   1    2.14    0.18
  -7   3   1    2.20    0.33
  -7   3   1    1.78    0.17
   6  -3  -1    2.76    0.21
  -6   3   1    2.46    0.18
  -6   3   1    2.83    0.21
  -6   3   1    2.64    0.22
  -6   3   1    2.91    0.31
   5  -3  -1    7.14    0.32
  -5   3   1    6.97    0.32
  -5   3   1    6.84    0.30
  -5   3   1    6.63    0.32
  -5   3   1    7.58    0.49
   4  -3  -1    0.32    0.10
  -4   3   1    0.15    0.11
  -4   3   1    0.35    0.10
  -4   3   1    0.31    0.11
  -4   3   1    0.30    0.09
  -4   3   1    0.24    0.09
  -4   3   1    0.32    0.09
   3  -3  -1   98.80    3.49
   3  -3  -1   99.45    3.49
   3  -3  -1   92.18    3.46
  -3   3   1   94.10    3.49
  -3   3   1   96.99    3.39
  -3   3   1   90.78    3.48
  -3   3   1   93.14    3.24
  -3   3   1   96.39    3.45
  -3   3   1   92.85    3.39
  -3   3   1   84.71    4.19
   2  -3  -1  178.50    6.65
   2  -3  -1  198.35    6.83
   2  -3  -1  179.95    6.63
   2  -3  -1  178.03    6.77
   2  -3  -1  185.28    6.76
   2  -3  -1  182.38    6.82
  -2   3   1  177.48    8.18
  -2   3   1  188.62    6.63
  -2   3   1  182.84    6.34
  -2   3   1  185.33    6.83
  -2   3   1  176.99    7.47
  -2   3   1  189.97    6.76
  -2   3   1  191.65    6.83
  -2   3   1  191.08    6.63
   1  -3  -1   20.06    0.77
   1  -3  -1   20.64    0.78
   1  -3  -1   20.32    0.80
   1  -3  -1   20.80    0.85
   1  -3  -1   22.06    0.88
   1  -3  -1   20.81    0.81
   1  -3  -1   19.37    0.79
   1  -3  -1   18.44    0.80
   1  -3  -1   19.95    0.78
  -1   3   1   20.56    0.77
  -1   3   1   20.07    0.80
  -1   3   1   20.54    0.80
  -1   3   1   21.03    0.81
  -1   3   1   21.45    0.78
  -1   3   1   21.91    0.88
   0  -3  -1   -0.10    0.12
   0  -3  -1   -0.03    0.11
   0  -3  -1    0.08    0.11
   0  -3  -1    0.01    0.11
   0  -3  -1   -0.08    0.09
   0  -3  -1   -0.12    0.10
   0  -3  -1    0.08    0.11
   0   3   1    0.01    0.13
   0   3   1    0.11    0.12
   0   3   1   -0.13    0.14
   0   3   1    0.05    0.13
   0   3   1    0.12    0.13
   0   3   1    0.10    0.13
   0   3   1    0.13    0.09
   0   3   1    0.00    0.12
  -1  -3  -1    2.51    0.22
  -1  -3  -1    2.53    0.23
  -1  -3  -1    2.51    0.23
  -1  -3  -1    2.48    0.19
  -1  -3  -1    2.78    0.19
   1   3   1    2.49    0.21
   1   3   1    2.54    0.24
   1   3   1    2.55    0.27
   1   3   1    2.69    0.24
   1   3   1    2.55    0.20
   1   3   1    2.62    0.24
  -2  -3  -1   12.87    0.54
  -2  -3  -1   12.23    0.52
  -2  -3  -1   12.60    0.53
  -2  -3  -1   12.45    0.54
  -2  -3  -1   13.35    0.54
  -2  -3  -1   12.10    0.53
   2   3   1   13.28    0.54
   2   3   1   12.12    0.54
   2   3   1   13.05    0.54
   2   3   1   12.05    0.56
   2   3   1   12.55    0.59
   2   3   1   12.17    0.51
   2   3   1   12.96    0.51
  -3  -3  -1   17.25    0.67
  -3  -3  -1   16.32    0.67
  -3  -3  -1   17.12    0.69
  -3  -3  -1   16.17    0.68
  -3  -3  -1   16.79    0.68
   3   3   1   15.87    0.72
   3   3   1   17.60    0.70
   3   3   1   17.02    0.69
   3   3   1   17.37    0.66
   3   3   1   16.36    0.69
   3   3   1   16.32    0.76
  -4  -3  -1   42.08    1.56
  -4  -3  -1   39.94    1.54
  -4  -3  -1   41.68    1.57
  -4  -3  -1   42.61    1.54
   4   3   1   42.64    1.53
   4   3   1   38.61    1.67
   4   3   1   40.26    1.74
   4   3   1   40.22    1.57
  -5  -3  -1    0.09    0.16
  -5  -3  -1    0.21    0.16
  -5  -3  -1    0.33    0.15
  -5  -3  -1    0.22    0.17
   5   3   1    0.02    0.23
   5   3   1   -0.09    0.18
   5   3   1    0.27    0.17
  -6  -3  -1    2.91    0.27
  -6  -3  -1    3.07    0.24
  -6  -3  -1    2.51    0.25
   6   3   1    2.49    0.32
  -7  -3  -1    0.63    0.22
  -7  -3  -1    0.74    0.16
   7   3   1    0.49    0.29
  -8  -3  -1    3.34    0.31
   8   3   1    3.57    0.40
  -9  -3  -1    0.26    0.25
 -10   4   1    0.87    0.34
  -9   4   1   22.39    1.17
  -8   4   1   24.78    0.97
  -8   4   1   24.92    0.98
  -8   4   1   26.80    1.29
  -7   4   1   17.61    0.71
  -7   4   1   18.81    0.98
  -7   4   1   17.59    0.71
   6  -4  -1    1.33    0.14
  -6   4   1    1.23    0.16
  -6   4   1    1.09    0.28
  -6   4   1    1.17    0.14
  -6   4   1    1.30    0.16
   5  -4  -1    0.91    0.13
  -5   4   1    0.98    0.24
  -5   4   1    0.89    0.13
  -5   4   1    0.79    0.14
  -5   4   1    0.79    0.14
  -5   4   1    0.89    0.11
   4  -4  -1   14.54    0.58
  -4   4   1   14.55    0.55
  -4   4   1   14.02    0.57
  -4   4   1   15.43    0.58
  -4   4   1   14.21    0.57
  -4   4   1   13.54    0.76
  -4   4   1   14.48    0.58
  -4   4   1   14.30    0.57
   3  -4  -1   13.86    0.55
   3  -4  -1   12.86    0.55
   3  -4  -1   13.39    0.56
   3  -4  -1   13.14    0.52
  -3   4   1   13.55    0.55
  -3   4   1   13.41    0.55
  -3   4   1   13.09    0.55
  -3   4   1   14.58    0.56
  -3   4   1   14.08    0.54
  -3   4   1   12.20    0.71
  -3   4   1   13.22    0.52
   2  -4  -1   12.11    0.54
   2  -4  -1   12.65    0.54
   2  -4  -1   12.33    0.53
   2  -4  -1   12.52    0.51
   2  -4  -1   13.28    0.54
   2  -4  -1   13.04    0.57
  -2   4   1   12.23    0.54
  -2   4   1   12.49    0.51
  -2   4   1   12.37    0.53
  -2   4   1   13.47    0.54
  -2   4   1   13.17    0.56
  -2   4   1   12.66    0.68
  -2   4   1   13.60    0.60
  -2   4   1   12.77    0.54
   1  -4  -1   21.85    0.87
   1  -4  -1   22.34    0.87
   1  -4  -1   21.49    0.85
   1  -4  -1   21.03    0.87
   1  -4  -1   21.91    0.92
   1  -4  -1   21.93    0.84
  -1   4   1   22.21    0.95
  -1   4   1   21.41    0.83
  -1   4   1   23.46    0.85
  -1   4   1   22.23    0.87
  -1   4   1   22.35    0.88
   0  -4  -1   36.41    1.36
   0  -4  -1   36.51    1.31
   0  -4  -1   34.83    1.34
   0  -4  -1   35.76    1.30
   0  -4  -1   34.53    1.43
   0  -4  -1   33.38    1.31
   0   4   1   35.29    1.35
   0   4   1   36.40    1.32
   0   4   1   34.79    1.30
   0   4   1   35.40    1.47
   0   4   1   35.29    1.36
   0   4   1   36.83    1.33
   0   4   1   34.62    1.43
   0   4   1   32.85    1.34
  -1  -4  -1   40.58    1.52
  -1  -4  -1   38.33    1.51
  -1  -4  -1   38.43    1.50
  -1  -4  -1   39.64    1.47
  -1  -4  -1   39.38    1.47
   1   4   1   39.09    1.46
   1   4   1   38.54    1.59
   1   4   1   39.96    1.52
   1   4   1   40.49    1.50
   1   4   1   39.18    1.41
   1   4   1   39.81    1.65
   1   4   1   40.05    1.52
  -2  -4  -1    1.56    0.17
  -2  -4  -1    1.64    0.16
  -2  -4  -1    1.67    0.17
  -2  -4  -1    1.56    0.17
   2   4   1    1.53    0.20
   2   4   1    1.51    0.18
   2   4   1    1.35    0.16
   2   4   1    1.21    0.18
   2   4   1    1.52    0.18
   2   4   1    1.72    0.19
  -3  -4  -1   14.78    0.64
  -3  -4  -1   14.18    0.63
  -3  -4  -1   15.61    0.65
  -3  -4  -1   14.40    0.64
  -3  -4  -1   15.50    0.65
   3   4   1   15.57    0.66
   3   4   1   16.93    0.67
   3   4   1   13.74    0.71
   3   4   1   14.68    0.65
   3   4   1   14.60    0.61
  -4  -4  -1   22.22    0.87
  -4  -4  -1   21.31    0.86
  -4  -4  -1   19.80    0.85
  -4  -4  -1   22.89    0.88
   4   4   1   20.79    0.88
   4   4   1   19.81    0.97
  -5  -4  -1   12.56    0.56
  -5  -4  -1   13.03    0.57
  -5  -4  -1   12.57    0.58
   5   4   1   11.68    0.59
   5   4   1   12.22    0.66
  -6  -4  -1   10.23    0.50
  -6  -4  -1   11.58    0.52
  -6  -4  -1   10.27    0.54
   6   4   1   10.51    0.62
  -7  -4  -1    0.53    0.19
  -7  -4  -1    0.60    0.24
   7   4   1    0.56    0.31
  -8  -4  -1    0.23    0.24
 -10   5   1    1.03    0.37
  -9   5   1    1.89    0.36
  -9   5   1    1.47    0.19
  -9   5   1    1.23    0.20
  -8   5   1    8.11    0.41
  -8   5   1    7.77    0.40
  -8   5   1    9.40    0.63
  -7   5   1   11.66    0.76
  -7   5   1   13.29    0.55
  -7   5   1   12.18    0.52
  -7   5   1   11.79    0.48
   6  -5  -1    3.61    0.25
  -6   5   1    3.44    0.24
  -6   5   1    3.27    0.26
  -6   5   1    3.41    0.26
  -6   5   1    3.54    0.36
   5  -5  -1    0.83    0.15
  -5   5   1    0.31    0.25
  -5   5   1    0.59    0.16
  -5   5   1    0.77    0.12
  -5   5   1    0.48    0.15
  -5   5   1    0.75    0.16
  -5   5   1    0.68    0.14
  -5   5   1    0.70    0.13
   4  -5  -1    0.61    0.11
   4  -5  -1    0.77    0.14
  -4   5   1    0.53    0.14
  -4   5   1    0.59    0.13
  -4   5   1    0.55    0.15
  -4   5   1    0.51    0.16
  -4   5   1    0.65    0.15
  -4   5   1    0.39    0.24
  -4   5   1    0.56    0.13
   3  -5  -1    3.51    0.25
   3  -5  -1    4.03    0.25
   3  -5  -1    3.49    0.25
   3  -5  -1    3.73    0.26
   3  -5  -1    3.44    0.21
  -3   5   1    3.33    0.23
  -3   5   1    3.56    0.23
  -3   5   1    3.77    0.27
  -3   5   1    3.73    0.29
  -3   5   1    3.62    0.25
  -3   5   1    4.09    0.28
  -3   5   1    3.52    0.24
  -3   5   1    3.63    0.37
   2  -5  -1   44.98    1.79
   2  -5  -1   44.93    1.70
   2  -5  -1   44.58    1.69
   2  -5  -1   45.07    1.64
   2  -5  -1   44.81    1.64
   2  -5  -1   44.73    1.68
  -2   5   1   44.65    1.65
  -2   5   1   46.72    2.03
  -2   5   1   44.65    1.65
  -2   5   1   45.02    1.85
  -2   5   1   42.74    1.62
  -2   5   1   41.33    1.69
  -2   5   1   43.12    1.58
  -2   5   1   44.28    1.69
   1  -5  -1   20.84    0.85
   1  -5  -1   19.77    0.85
   1  -5  -1   21.38    0.81
   1  -5  -1   20.79    0.83
   1  -5  -1   20.48    0.89
   1  -5  -1   20.74    0.85
  -1   5   1   20.61    0.85
  -1   5   1   21.15    0.92
  -1   5   1   21.73    0.85
  -1   5   1   22.27    0.83
  -1   5   1   21.50    0.80
  -1   5   1   22.04    1.00
   0  -5  -1   44.71    1.72
   0  -5  -1   45.36    1.67
   0  -5  -1   43.47    1.81
   0  -5  -1   43.94    1.65
   0  -5  -1   44.68    1.66
   0  -5  -1   42.76    1.70
   0   5   1   44.68    1.65
   0   5   1   45.70    1.67
   0   5   1   44.04    1.86
   0   5   1   43.75    1.72
   0   5   1   44.54    1.72
   0   5   1   46.16    1.70
   0   5   1   48.42    1.68
  -1  -5  -1   12.32    0.53
  -1  -5  -1   11.50    0.53
  -1  -5  -1   11.52    0.54
  -1  -5  -1   12.30    0.54
  -1  -5  -1   11.87    0.53
   1   5   1   12.07    0.50
   1   5   1   12.69    0.51
   1   5   1   12.43    0.59
   1   5   1   11.43    0.55
   1   5   1   10.68    0.55
   1   5   1   12.11    0.55
  -2  -5  -1    3.75    0.27
  -2  -5  -1    3.51    0.30
  -2  -5  -1    3.73    0.29
  -2  -5  -1    4.01    0.30
   2   5   1    3.60    0.30
   2   5   1    3.61    0.31
   2   5   1    3.34    0.32
   2   5   1    3.93    0.32
   2   5   1    3.57    0.25
   2   5   1    3.77    0.34
   2   5   1    3.69    0.30
  -3  -5  -1    2.33    0.22
  -3  -5  -1    2.66    0.24
  -3  -5  -1    2.35    0.23
  -3  -5  -1    2.43    0.24
   3   5   1    2.15    0.28
   3   5   1    2.28    0.26
  -4  -5  -1   11.58    0.55
  -4  -5  -1   11.17    0.55
  -4  -5  -1   11.01    0.54
   4   5   1   10.45    0.61
   4   5   1   11.57    0.57
  -5  -5  -1   12.61    0.58
  -5  -5  -1   12.02    0.57
  -5  -5  -1   11.95    0.60
   5   5   1   11.62    0.66
   5   5   1   12.37    0.61
  -6  -5  -1   10.97    0.52
  -6  -5  -1    9.39    0.49
  -6  -5  -1    9.41    0.54
   6   5   1    8.82    0.59
  -7  -5  -1    2.70    0.27
  -7  -5  -1    2.73    0.25
   7   5   1    2.62    0.37
 -10   6   1    1.41    0.21
 -10   6   1    1.95    0.40
  -9   6   1    1.42    0.21
  -9   6   1    1.37    0.35
  -9   6   1    1.35    0.21
  -8   6   1    2.56    0.37
  -8   6   1    2.18    0.22
  -8   6   1    1.78    0.21
  -7   6   1   23.97    0.94
  -7   6   1   23.31    0.94
  -7   6   1   23.85    0.88
  -7   6   1   24.15    1.22
  -6   6   1   11.76    0.52
  -6   6   1   11.74    0.48
  -6   6   1   11.36    0.71
  -6   6   1   10.75    0.51
   5  -6  -1    0.05    0.15
  -5   6   1    0.19    0.18
  -5   6   1    0.34    0.18
  -5   6   1    0.10    0.16
  -5   6   1   -0.09    0.27
  -5   6   1    0.12    0.13
  -5   6   1    0.25    0.14
   4  -6  -1   11.82    0.50
   4  -6  -1   11.97    0.56
   4  -6  -1   12.32    0.54
  -4   6   1   11.83    0.51
  -4   6   1   10.89    0.52
  -4   6   1   12.77    0.54
  -4   6   1   11.91    0.54
  -4   6   1   12.07    0.53
  -4   6   1   11.41    0.52
  -4   6   1   12.06    0.70
   3  -6  -1    2.40    0.21
   3  -6  -1    2.36    0.21
   3  -6  -1    2.62    0.23
   3  -6  -1    2.29    0.21
  -3   6   1    2.39    0.24
  -3   6   1    2.18    0.21
  -3   6   1    2.20    0.22
  -3   6   1    2.31    0.30
  -3   6   1    2.17    0.22
  -3   6   1    2.02    0.21
  -3   6   1    2.18    0.20
   2  -6  -1   11.43    0.48
   2  -6  -1   10.93    0.51
   2  -6  -1   10.91    0.50
   2  -6  -1   11.81    0.53
   2  -6  -1   10.88    0.53
   2  -6  -1   11.12    0.52
  -2   6   1   11.08    0.53
  -2   6   1   10.77    0.51
  -2   6   1   11.42    0.51
  -2   6   1   10.96    0.44
  -2   6   1   11.66    0.51
  -2   6   1   10.84    0.56
  -2   6   1   10.74    0.49
  -2   6   1   11.55    0.64
   1  -6  -1   33.70    1.42
   1  -6  -1   35.66    1.36
   1  -6  -1   35.32    1.30
   1  -6  -1   33.87    1.31
   1  -6  -1   34.45    1.35
   1  -6  -1   33.22    1.34
  -1   6   1   34.61    1.32
  -1   6   1   33.41    1.28
  -1   6   1   34.63    1.35
  -1   6   1   36.87    1.32
  -1   6   1   33.21    1.35
  -1   6   1   33.90    1.46
   0  -6  -1   30.92    1.17
   0  -6  -1   30.00    1.29
   0  -6  -1   30.01    1.22
   0  -6  -1   31.24    1.20
   0  -6  -1   30.07    1.22
   0  -6  -1   30.86    1.23
   0   6   1   29.61    1.23
   0   6   1   31.85    1.21
   0   6   1   30.89    1.23
   0   6   1   32.55    1.23
   0   6   1   30.80    1.33
   0   6   1   31.46    1.17
  -1  -6  -1    5.73    0.36
  -1  -6  -1    5.42    0.35
  -1  -6  -1    5.40    0.37
  -1  -6  -1    5.33    0.35
   1   6   1    5.68    0.40
   1   6   1    5.62    0.39
   1   6   1    5.59    0.33
  -2  -6  -1    0.07    0.19
  -2  -6  -1    0.05    0.19
  -2  -6  -1    0.12    0.17
  -2  -6  -1    0.18    0.16
   2   6   1    0.14    0.15
   2   6   1   -0.05    0.22
   2   6   1    0.23    0.22
  -3  -6  -1    2.84    0.27
  -3  -6  -1    3.05    0.30
  -3  -6  -1    3.46    0.29
   3   6   1    2.94    0.30
   3   6   1    3.40    0.36
  -4  -6  -1   -0.03    0.20
   4   6   1    0.07    0.24
   4   6   1   -0.13    0.26
  -5  -6  -1    6.24    0.41
   5   6   1    5.07    0.48
   5   6   1    5.55    0.45
  -6  -6  -1    5.38    0.42
   6   6   1    5.03    0.47
 -10   7   1    0.30    0.21
 -10   7   1    0.55    0.21
  -9   7   1   -0.04    0.19
  -9   7   1    0.33    0.33
  -9   7   1    0.31    0.20
  -8   7   1    2.02    0.24
  -8   7   1    2.60    0.22
  -8   7   1    1.99    0.24
  -8   7   1    2.70    0.39
  -7   7   1   12.37    0.57
  -7   7   1   12.83    0.80
  -7   7   1   13.07    0.53
   6  -7  -1    8.44    0.45
  -6   7   1    8.71    0.60
  -6   7   1    8.31    0.44
  -6   7   1    8.17    0.38
  -6   7   1    7.82    0.38
  -6   7   1    8.39    0.41
  -6   7   1    8.19    0.44
   5  -7  -1    0.18    0.19
   5  -7  -1    0.30    0.18
  -5   7   1    0.34    0.19
  -5   7   1    0.31    0.30
  -5   7   1    0.19    0.16
  -5   7   1    0.12    0.20
  -5   7   1    0.23    0.21
  -5   7   1    0.38    0.16
   4  -7  -1   10.05    0.49
   4  -7  -1   10.07    0.45
   4  -7  -1   10.18    0.50
  -4   7   1    9.57    0.64
  -4   7   1    9.36    0.50
  -4   7   1    9.15    0.46
  -4   7   1    8.88    0.46
  -4   7   1    9.74    0.47
  -4   7   1    8.98    0.45
   3  -7  -1    4.76    0.34
   3  -7  -1    3.97    0.33
   3  -7  -1    4.68    0.30
  -3   7   1    3.90    0.33
  -3   7   1    3.89    0.36
  -3   7   1    4.54    0.46
  -3   7   1    3.93    0.31
  -3   7   1    4.15    0.35
  -3   7   1    4.43    0.30
  -3   7   1    3.88    0.30
   2  -7  -1    1.37    0.18
   2  -7  -1    1.42    0.21
   2  -7  -1    1.01    0.21
  -2   7   1    1.13    0.22
  -2   7   1    1.41    0.24
  -2   7   1    1.55    0.22
  -2   7   1    1.19    0.23
  -2   7   1    1.42    0.22
  -2   7   1    1.33    0.29
  -2   7   1    1.20    0.13
   1  -7  -1   17.42    0.80
   1  -7  -1   17.42    0.76
  -1   7   1   18.32    0.76
  -1   7   1   17.04    0.81
  -1   7   1   16.23    0.75
  -1   7   1   17.30    0.69
  -1   7   1   17.80    0.76
   0  -7  -1    2.99    0.28
   0   7   1    3.27    0.26
   0   7   1    2.89    0.30
   0   7   1    3.64    0.35
  -1  -7  -1    8.73    0.50
   1   7   1    9.12    0.45
   1   7   1    9.07    0.51
   1   7   1    9.36    0.53
  -2  -7  -1    1.30    0.24
   2   7   1    0.82    0.27
   2   7   1    1.05    0.27
  -3  -7  -1    6.44    0.43
   3   7   1    6.89    0.47
   3   7   1    6.35    0.47
  -4  -7  -1    0.99    0.25
   4   7   1    1.38    0.31
   4   7   1    1.78    0.31
  -5  -7  -1   -0.13    0.23
   5   7   1    0.14    0.29
   5   7   1   -0.42    0.29
   9  -8  -1    4.88    0.38
  -9   8   1    4.27    0.48
   8  -8  -1   -0.03    0.22
  -8   8   1    0.13    0.18
  -8   8   1   -0.11    0.22
  -8   8   1    0.04    0.17
  -8   8   1   -0.07    0.33
   7  -8  -1    1.88    0.25
  -7   8   1    1.62    0.22
  -7   8   1    1.62    0.39
  -7   8   1    1.30    0.25
   6  -8  -1    4.25    0.34
  -6   8   1    3.87    0.33
  -6   8   1    3.63    0.26
  -6   8   1    3.77    0.30
  -6   8   1    3.70    0.42
  -6   8   1    4.03    0.27
   5  -8  -1    0.22    0.19
   5  -8  -1    0.49    0.21
  -5   8   1    0.23    0.18
  -5   8   1   -0.09    0.19
  -5   8   1    0.40    0.23
  -5   8   1    0.27    0.18
  -5   8   1   -0.04    0.30
   4  -8  -1    1.64    0.24
   4  -8  -1    1.55    0.23
  -4   8   1    1.76    0.23
  -4   8   1    1.65    0.25
  -4   8   1    1.06    0.23
  -4   8   1    1.72    0.33
  -4   8   1    1.56    0.23
   3  -8  -1    6.75    0.42
   3  -8  -1    7.07    0.43
  -3   8   1    7.12    0.41
  -3   8   1    7.09    0.55
  -3   8   1    7.43    0.43
  -3   8   1    6.73    0.40
  -3   8   1    6.60    0.41
  -3   8   1    7.14    0.45
   2  -8  -1    0.17    0.21
  -2   8   1    0.52    0.28
  -2   8   1    0.52    0.11
  -2   8   1    0.47    0.22
  -2   8   1    0.61    0.24
  -2   8   1    0.64    0.23
  -2   8   1    0.80    0.22
   1  -8  -1    0.60    0.22
  -1   8   1    0.39    0.24
  -1   8   1    0.35    0.14
   0  -8  -1    2.16    0.26
   0   8   1    2.38    0.30
   0   8   1    2.21    0.20
  -1  -8  -1   11.64    0.59
   1   8   1   11.37    0.61
   1   8   1   12.04    0.65
  -2  -8  -1    5.13    0.39
   2   8   1    4.73    0.41
   2   8   1    4.97    0.43
  -3  -8  -1    4.18    0.38
   3   8   1    3.69    0.39
   3   8   1    3.60    0.38
  -4  -8  -1    1.23    0.27
   4   8   1    1.65    0.33
   4   8   1    1.31    0.33
   9  -9  -1   10.55    0.59
   8  -9  -1    9.60    0.53
  -8   9   1    8.31    0.44
  -8   9   1    8.10    0.43
  -8   9   1    8.54    0.67
   7  -9  -1    0.53    0.23
  -7   9   1    0.29    0.33
  -7   9   1    0.18    0.24
  -7   9   1    0.34    0.20
   6  -9  -1    0.12    0.22
  -6   9   1    0.08    0.17
  -6   9   1    0.04    0.17
  -6   9   1    0.12    0.34
  -6   9   1   -0.27    0.21
  -6   9   1   -0.06    0.23
   5  -9  -1    2.47    0.28
  -5   9   1    2.36    0.27
  -5   9   1    2.65    0.26
  -5   9   1    3.10    0.39
  -5   9   1    2.74    0.30
  -5   9   1    2.80    0.27
   4  -9  -1    8.31    0.47
   4  -9  -1    8.37    0.49
  -4   9   1    8.27    0.59
  -4   9   1    8.79    0.49
  -4   9   1    7.60    0.45
  -4   9   1    7.15    0.45
  -4   9   1    7.95    0.46
   3  -9  -1    0.07    0.21
  -3   9   1   -0.11    0.23
  -3   9   1    0.45    0.23
  -3   9   1   -0.11    0.29
   2  -9  -1    3.44    0.32
  -2   9   1    4.06    0.38
  -2   9   1    4.36    0.44
   1  -9  -1    0.36    0.22
  -1   9   1    0.18    0.24
   0  -9  -1   -0.04    0.22
   0   9   1   -0.26    0.15
   0   9   1   -0.33    0.25
  -1  -9  -1    5.91    0.43
   1   9   1    5.94    0.48
  -2  -9  -1   18.22    0.85
   2   9   1   19.91    0.89
   2   9   1   17.97    0.93
   3   9   1   -0.20    0.31
   3   9   1    0.15    0.29
   8 -10  -1    2.54    0.32
  -8  10   1    2.84    0.33
   7 -10  -1    8.86    0.54
  -7  10   1    8.81    0.69
  -6  10   1    0.35    0.19
  -6  10   1    0.18    0.27
  -6  10   1    0.21    0.34
  -6  10   1   -0.23    0.23
  -6  10   1    0.21    0.19
  -5  10   1    2.89    0.30
  -5  10   1    3.40    0.42
   4 -10  -1    4.75    0.41
  -4  10   1    5.88    0.65
   3 -10  -1   -0.18    0.23
  -3  10   1   -0.13    0.25
   2 -10  -1    1.44    0.27
  -2  10   1    1.58    0.31
   1 -10  -1    1.31    0.26
  -1  10   1    1.23    0.29
   0 -10  -1    0.84    0.26
   0  10   1    0.53    0.30
   1  10   1    0.35    0.31
   2  10   1    4.09    0.44
  -6  11   1    9.89    0.73
  -5  11   1    0.87    0.38
   3 -11  -1   -0.42    0.24
   2 -11  -1    0.99    0.28
  -2  11   1    0.82    0.31
  -1  11   1    0.38    0.30
   0  11   1    0.50    0.32
   2 -12   2    2.57    0.34
   3 -12   2    0.83    0.28
  -5  12  -2    1.27    0.26
  -6  12  -2    2.28    0.42
  -6  12  -2    1.44    0.27
   0  11  -2    0.47    0.28
   0 -11   2   -0.10    0.25
  -1  11  -2    0.80    0.29
   1 -11   2    1.02    0.27
   2 -11   2    1.01    0.27
   3 -11   2    6.80    0.47
  -4  11  -2   -0.31    0.22
  -4  11  -2    0.13    0.29
  -5  11  -2    0.29    0.20
  -5  11  -2    0.26    0.32
  -5  11  -2    0.00    0.18
  -5  11  -2   -0.15    0.21
   5 -11   2    0.00    0.23
  -6  11  -2    0.22    0.34
  -6  11  -2    0.32    0.21
   6 -11   2    0.13    0.22
  -7  11  -2   -0.03    0.34
  -7  11  -2    0.06    0.21
   7 -11   2   -0.10    0.22
   8 -11   2    2.30    0.29
   3  10  -2   -0.15    0.30
   3  10  -2    0.04    0.28
   2  10  -2    4.65    0.42
   2  10  -2    5.15    0.45
  -2 -10   2    3.95    0.37
   1  10  -2    2.95    0.32
   1  10  -2    2.80    0.33
  -1 -10   2    2.67    0.31
   0  10  -2   -0.09    0.24
   0  10  -2   -0.05    0.25
   0 -10   2    0.19    0.23
  -1  10  -2    1.15    0.24
  -1  10  -2    0.80    0.27
   1 -10   2    1.15    0.24
  -2  10  -2   -0.28    0.23
   2 -10   2    0.09    0.21
  -3  10  -2    0.23    0.22
  -3  10  -2   -0.19    0.26
  -3  10  -2    0.09    0.20
   3 -10   2   -0.26    0.21
   3 -10   2    0.19    0.21
  -4  10  -2    1.99    0.25
  -4  10  -2    2.03    0.24
  -4  10  -2    2.18    0.34
   4 -10   2    2.14    0.26
   4 -10   2    2.13    0.27
  -5  10  -2   -0.24    0.17
  -5  10  -2    0.20    0.20
  -5  10  -2    0.35    0.30
  -5  10  -2    0.08    0.16
   5 -10   2    0.13    0.21
  -6  10  -2    1.32    0.22
  -6  10  -2    1.38    0.35
  -6  10  -2    1.73    0.24
   6 -10   2    1.33    0.23
  -7  10  -2    0.69    0.34
  -7  10  -2    0.91    0.20
  -7  10  -2    0.50    0.20
   7 -10   2    0.41    0.21
  -8  10  -2   -0.26    0.35
   8 -10   2    0.07    0.21
   5   9  -2    0.67    0.33
   4   9  -2    0.28    0.29
   4   9  -2    0.21    0.27
   3   9  -2    1.94    0.30
   3   9  -2    1.83    0.32
  -3  -9   2    1.95    0.28
   2   9  -2    0.20    0.26
   2   9  -2    0.47    0.25
  -2  -9   2    0.15    0.22
   1   9  -2   13.46    0.67
   1   9  -2   13.65    0.68
   1   9  -2   13.47    0.59
  -1  -9   2   13.82    0.66
   0   9  -2   13.03    0.65
   0   9  -2   12.13    0.63
   0   9  -2   12.88    0.54
   0  -9   2   12.48    0.62
  -1   9  -2    3.79    0.33
  -1   9  -2    3.72    0.34
  -1   9  -2    3.98    0.35
   1  -9   2    4.35    0.36
  -2   9  -2   -0.03    0.20
  -2   9  -2    0.20    0.21
  -2   9  -2    0.68    0.22
  -2   9  -2    0.41    0.20
   2  -9   2    0.15    0.20
   2  -9   2    0.31    0.20
  -3   9  -2   14.59    0.81
  -3   9  -2   15.85    0.70
  -3   9  -2   13.94    0.65
  -3   9  -2   15.65    0.67
   3  -9   2   13.63    0.66
   3  -9   2   14.60    0.70
  -4   9  -2   -0.08    0.16
  -4   9  -2   -0.37    0.27
  -4   9  -2   -0.13    0.17
  -4   9  -2   -0.14    0.20
   4  -9   2    0.12    0.19
   4  -9   2   -0.30    0.18
  -5   9  -2    7.90    0.60
  -5   9  -2    8.10    0.40
  -5   9  -2    7.71    0.41
  -5   9  -2    8.72    0.41
  -5   9  -2    8.95    0.42
   5  -9   2    8.52    0.46
  -6   9  -2    1.44    0.20
  -6   9  -2    1.08    0.33
  -6   9  -2    1.25    0.23
  -6   9  -2    1.28    0.20
   6  -9   2    1.16    0.21
  -7   9  -2    0.01    0.31
  -7   9  -2    0.12    0.20
  -7   9  -2    0.12    0.16
  -7   9  -2    0.20    0.16
   7  -9   2    0.39    0.19
  -8   9  -2    0.21    0.20
  -8   9  -2    0.19    0.33
   8  -9   2   -0.08    0.19
  -9   9  -2    1.43    0.37
   9  -9   2    1.34    0.23
   6   8  -2   -0.13    0.30
   5   8  -2    1.96    0.33
   5   8  -2    2.54    0.35
  -5  -8   2    1.64    0.29
   4   8  -2    4.44    0.42
   4   8  -2    3.94    0.38
  -4  -8   2    4.79    0.39
   3   8  -2    1.98    0.30
   3   8  -2    2.44    0.30
  -3  -8   2    1.89    0.27
   2   8  -2   -0.26    0.23
   2   8  -2   -0.06    0.21
  -2  -8   2   -0.09    0.21
   1   8  -2    9.92    0.47
   1   8  -2   10.57    0.55
   1   8  -2   10.11    0.54
  -1  -8   2    9.98    0.54
   0   8  -2   22.68    0.95
   0   8  -2   22.94    0.96
   0   8  -2   22.15    1.01
   0   8  -2   22.77    0.88
   0  -8   2   23.29    0.96
  -1   8  -2   51.07    1.84
  -1   8  -2   49.50    2.09
  -1   8  -2   51.02    1.94
  -1   8  -2   48.96    1.94
  -1   8  -2   50.82    1.92
   1  -8   2   49.43    1.92
   1  -8   2   50.37    2.05
  -2   8  -2   10.23    0.55
  -2   8  -2   11.01    0.52
  -2   8  -2   10.75    0.51
  -2   8  -2   11.20    0.64
  -2   8  -2   11.03    0.54
  -2   8  -2   12.02    0.54
   2  -8   2   11.82    0.51
   2  -8   2   10.80    0.54
   2  -8   2   11.51    0.56
  -3   8  -2    9.93    0.53
  -3   8  -2   11.11    0.51
  -3   8  -2    9.89    0.50
  -3   8  -2   11.11    0.65
  -3   8  -2   11.44    0.50
   3  -8   2   11.51    0.49
   3  -8   2   11.05    0.54
   3  -8   2   10.19    0.52
  -4   8  -2    1.32    0.19
  -4   8  -2    1.29    0.22
  -4   8  -2    1.07    0.21
  -4   8  -2    1.47    0.29
  -4   8  -2    1.13    0.18
   4  -8   2    0.91    0.19
   4  -8   2    0.98    0.19
  -5   8  -2    1.12    0.19
  -5   8  -2    0.98    0.22
  -5   8  -2    1.45    0.16
  -5   8  -2    1.56    0.20
  -5   8  -2    1.32    0.16
  -5   8  -2    1.55    0.31
   5  -8   2    1.41    0.20
  -6   8  -2    2.59    0.35
  -6   8  -2    2.35    0.24
  -6   8  -2    2.67    0.21
  -6   8  -2    2.56    0.23
   6  -8   2    2.69    0.24
  -7   8  -2    0.64    0.19
  -7   8  -2    1.29    0.33
   7  -8   2    1.25    0.20
  -8   8  -2    0.38    0.17
  -8   8  -2    0.29    0.31
   8  -8   2    0.20    0.17
  -9   8  -2    0.10    0.33
   6   7  -2    1.56    0.34
  -6  -7   2    2.12    0.29
   5   7  -2    1.32    0.30
   5   7  -2    1.70    0.30
  -5  -7   2    1.77    0.26
   4   7  -2    4.70    0.41
   4   7  -2    4.82    0.40
  -4  -7   2    5.39    0.40
   3   7  -2   -0.21    0.22
   3   7  -2   -0.38    0.22
  -3  -7   2   -0.30    0.20
   2   7  -2    2.09    0.20
   2   7  -2    2.17    0.26
   2   7  -2    2.20    0.27
  -2  -7   2    2.15    0.25
  -2  -7   2    1.85    0.18
   1   7  -2    4.55    0.37
   1   7  -2    5.14    0.35
   1   7  -2    5.41    0.36
   1   7  -2    4.58    0.29
  -1  -7   2    4.68    0.36
  -1  -7   2    4.74    0.28
   0   7  -2    0.40    0.20
   0   7  -2    0.52    0.19
   0   7  -2    0.55    0.13
   0   7  -2    1.01    0.22
   0   7  -2    0.77    0.17
   0   7  -2    0.52    0.18
   0   7  -2    0.50    0.18
   0  -7   2    0.68    0.14
   0  -7   2    0.72    0.18
   0  -7   2    0.74    0.18
   0  -7   2    0.72    0.18
   0  -7   2    0.66    0.18
  -1   7  -2   56.88    2.14
  -1   7  -2   54.62    2.33
  -1   7  -2   56.71    2.16
  -1   7  -2   57.02    2.16
  -1   7  -2   55.96    2.01
  -1   7  -2   57.49    2.07
   1  -7   2   54.68    2.28
   1  -7   2   60.33    2.09
   1  -7   2   55.95    2.16
   1  -7   2   54.11    2.09
   1  -7   2   54.22    2.14
   1  -7   2   62.16    2.17
  -2   7  -2   56.45    2.13
  -2   7  -2   54.96    2.54
  -2   7  -2   51.54    2.12
  -2   7  -2   53.35    2.31
  -2   7  -2   56.91    2.11
  -2   7  -2   58.86    2.09
  -2   7  -2   54.98    1.99
   2  -7   2   55.97    2.12
   2  -7   2   58.01    2.07
   2  -7   2   56.93    2.14
   2  -7   2   59.02    2.14
   2  -7   2   57.03    2.26
  -3   7  -2    7.96    0.42
  -3   7  -2    9.05    0.43
  -3   7  -2    7.82    0.39
  -3   7  -2    8.22    0.39
  -3   7  -2    7.84    0.53
  -3   7  -2    7.76    0.40
   3  -7   2    8.55    0.38
   3  -7   2    8.00    0.42
   3  -7   2    8.46    0.42
  -4   7  -2   45.59    1.77
  -4   7  -2   46.80    1.77
  -4   7  -2   48.29    1.66
  -4   7  -2   47.99    2.16
  -4   7  -2   47.64    1.74
   4  -7   2   46.42    1.88
   4  -7   2   45.15    1.76
  -5   7  -2    1.39    0.29
  -5   7  -2    0.88    0.19
  -5   7  -2    0.71    0.18
  -5   7  -2    0.64    0.16
  -5   7  -2    1.14    0.17
   5  -7   2    1.08    0.18
   5  -7   2    0.86    0.17
  -6   7  -2   15.70    0.88
  -6   7  -2   15.00    0.60
  -6   7  -2   15.17    0.64
  -6   7  -2   15.32    0.64
  -6   7  -2   16.88    0.60
   6  -7   2   16.22    0.69
  -7   7  -2    2.01    0.33
  -7   7  -2    1.69    0.18
  -7   7  -2    1.45    0.18
  -8   7  -2    4.01    0.42
  -9   7  -2    1.47    0.36
 -10   7  -2    0.36    0.37
   7   6  -2   -0.15    0.29
  -7  -6   2   -0.22    0.23
   6   6  -2    1.97    0.33
   6   6  -2    2.10    0.30
  -6  -6   2    2.60    0.27
   5   6  -2    6.74    0.46
   5   6  -2    7.03    0.49
  -5  -6   2    7.68    0.47
   4   6  -2    5.55    0.44
   4   6  -2    6.57    0.43
  -4  -6   2    6.96    0.42
  -4  -6   2    6.74    0.42
  -4  -6   2    6.88    0.42
   3   6  -2    2.61    0.28
   3   6  -2    2.75    0.24
   3   6  -2    2.53    0.28
  -3  -6   2    3.20    0.26
  -3  -6   2    3.15    0.30
  -3  -6   2    2.98    0.26
   2   6  -2   -0.04    0.17
   2   6  -2   -0.01    0.19
   2   6  -2   -0.01    0.17
   2   6  -2    0.04    0.16
   2   6  -2    0.14    0.13
  -2  -6   2    0.02    0.16
  -2  -6   2   -0.27    0.16
  -2  -6   2    0.20    0.12
  -2  -6   2    0.23    0.17
   1   6  -2   19.17    0.77
   1   6  -2   18.95    0.77
   1   6  -2   18.23    0.72
   1   6  -2   18.49    0.77
   1   6  -2   17.21    0.72
   1   6  -2   18.92    0.81
   1   6  -2   18.59    0.77
  -1  -6   2   18.24    0.75
  -1  -6   2   18.21    0.72
  -1  -6   2   17.67    0.75
  -1  -6   2   18.06    0.77
  -1  -6   2   18.07    0.77
   0   6  -2   -0.02    0.14
   0   6  -2    0.55    0.14
   0   6  -2    0.26    0.11
   0   6  -2    0.21    0.15
   0   6  -2    0.35    0.16
   0   6  -2    0.35    0.16
   0   6  -2    0.17    0.14
   0  -6   2    0.53    0.14
   0  -6   2    0.40    0.15
   0  -6   2    0.63    0.14
   0  -6   2    0.43    0.14
   0  -6   2    0.39    0.11
   0  -6   2    0.20    0.13
  -1   6  -2   11.61    0.52
  -1   6  -2   11.06    0.59
  -1   6  -2   10.91    0.50
  -1   6  -2   11.49    0.51
  -1   6  -2   12.16    0.51
  -1   6  -2   11.33    0.48
  -1   6  -2   11.54    0.51
   1  -6   2   11.77    0.47
   1  -6   2   10.43    0.52
   1  -6   2   11.72    0.50
   1  -6   2   11.03    0.49
   1  -6   2   11.38    0.51
   1  -6   2   11.91    0.51
  -2   6  -2   88.20    3.37
  -2   6  -2   92.68    3.33
  -2   6  -2   93.81    3.34
  -2   6  -2   87.71    3.36
  -2   6  -2   91.50    3.28
  -2   6  -2   86.90    4.02
  -2   6  -2   91.15    3.13
  -2   6  -2   83.92    3.66
   2  -6   2   91.85    3.27
   2  -6   2   85.41    3.33
   2  -6   2   93.64    3.37
   2  -6   2   92.18    3.37
   2  -6   2   93.36    3.57
  -3   6  -2   44.54    1.57
  -3   6  -2   43.62    1.67
  -3   6  -2   44.57    1.64
  -3   6  -2   46.10    1.67
  -3   6  -2   44.26    1.68
  -3   6  -2   44.18    2.03
   3  -6   2   41.10    1.82
   3  -6   2   45.10    1.62
   3  -6   2   43.70    1.67
   3  -6   2   46.74    1.78
  -4   6  -2   11.02    0.49
  -4   6  -2   11.92    0.49
  -4   6  -2   12.33    0.47
  -4   6  -2   11.16    0.47
  -4   6  -2   12.23    0.67
  -4   6  -2   11.40    0.47
   4  -6   2   11.92    0.52
   4  -6   2   11.50    0.50
  -5   6  -2   22.51    1.08
  -5   6  -2   21.16    0.82
  -5   6  -2   21.42    0.78
  -5   6  -2   21.85    0.78
  -5   6  -2   20.17    0.82
   5  -6   2   21.03    0.83
   5  -6   2   22.03    0.88
  -6   6  -2   -0.21    0.27
  -6   6  -2   -0.15    0.13
  -7   6  -2    4.24    0.49
  -8   6  -2    1.58    0.33
  -9   6  -2    1.03    0.34
 -10   6  -2   -0.18    0.36
   8   5  -2   -0.48    0.29
  -8  -5   2   -0.24    0.18
   7   5  -2    0.04    0.28
  -7  -5   2    0.13    0.18
  -7  -5   2    0.18    0.23
  -7  -5   2    0.40    0.21
   6   5  -2    0.16    0.25
   6   5  -2    0.22    0.23
  -6  -5   2   -0.02    0.18
  -6  -5   2    0.40    0.22
  -6  -5   2   -0.01    0.20
   5   5  -2    1.12    0.24
   5   5  -2    1.42    0.26
  -5  -5   2    1.46    0.24
  -5  -5   2    1.56    0.22
  -5  -5   2    1.54    0.23
   4   5  -2    8.59    0.47
   4   5  -2    8.00    0.49
  -4  -5   2    9.27    0.46
  -4  -5   2    8.70    0.46
  -4  -5   2    8.49    0.46
   3   5  -2   12.04    0.57
   3   5  -2   12.59    0.57
   3   5  -2   11.86    0.61
   3   5  -2   12.69    0.58
   3   5  -2   11.57    0.59
  -3  -5   2   13.03    0.58
  -3  -5   2   13.58    0.58
  -3  -5   2   12.67    0.56
   2   5  -2    0.08    0.14
   2   5  -2   -0.17    0.14
   2   5  -2    0.08    0.15
   2   5  -2   -0.03    0.13
   2   5  -2   -0.24    0.15
   2   5  -2    0.09    0.11
   2   5  -2    0.01    0.14
  -2  -5   2    0.18    0.14
  -2  -5   2    0.19    0.12
  -2  -5   2    0.03    0.09
  -2  -5   2    0.02    0.14
  -2  -5   2    0.05    0.13
   1   5  -2    7.28    0.37
   1   5  -2    7.42    0.38
   1   5  -2    6.75    0.34
   1   5  -2    6.84    0.35
   1   5  -2    7.03    0.32
   1   5  -2    7.18    0.38
   1   5  -2    6.87    0.36
   1   5  -2    7.06    0.37
  -1  -5   2    6.66    0.32
  -1  -5   2    6.86    0.37
  -1  -5   2    7.16    0.32
  -1  -5   2    6.66    0.36
  -1  -5   2    7.02    0.36
  -1  -5   2    6.97    0.35
   0   5  -2    3.39    0.25
   0   5  -2    3.83    0.20
   0   5  -2    3.55    0.25
   0   5  -2    3.35    0.25
   0   5  -2    3.37    0.27
   0   5  -2    3.38    0.23
   0  -5   2    3.44    0.27
   0  -5   2    3.79    0.24
   0  -5   2    3.20    0.25
   0  -5   2    3.43    0.23
   0  -5   2    3.46    0.26
   0  -5   2    3.49    0.22
   0  -5   2    3.06    0.24
  -1   5  -2   -0.19    0.13
  -1   5  -2   -0.10    0.14
  -1   5  -2    0.00    0.13
  -1   5  -2    0.14    0.11
  -1   5  -2   -0.13    0.14
  -1   5  -2    0.17    0.15
  -1   5  -2   -0.07    0.12
  -1   5  -2    0.02    0.16
   1  -5   2   -0.03    0.10
   1  -5   2   -0.15    0.12
   1  -5   2    0.08    0.12
   1  -5   2   -0.03    0.12
   1  -5   2    0.10    0.10
   1  -5   2    0.18    0.13
   1  -5   2    0.12    0.13
  -2   5  -2  116.04    4.37
  -2   5  -2  116.27    4.36
  -2   5  -2  121.81    4.33
  -2   5  -2  111.22    4.76
  -2   5  -2  113.36    5.23
  -2   5  -2  116.86    4.06
  -2   5  -2  123.71    4.25
  -2   5  -2  118.24    4.33
   2  -5   2  112.57    4.33
   2  -5   2  111.05    4.76
   2  -5   2  123.74    4.63
   2  -5   2  119.83    4.37
   2  -5   2  123.26    4.37
   2  -5   2  119.78    4.25
  -3   5  -2   20.46    0.83
  -3   5  -2   22.31    0.79
  -3   5  -2   23.82    0.83
  -3   5  -2   21.19    1.05
  -3   5  -2   21.63    0.84
   3  -5   2   19.95    0.91
   3  -5   2   21.79    0.84
   3  -5   2   22.46    0.89
  -4   5  -2   77.75    2.97
  -4   5  -2   81.50    3.69
  -4   5  -2   85.86    2.97
  -4   5  -2   82.01    2.84
   4  -5   2   84.01    3.24
   4  -5   2   82.52    3.03
  -5   5  -2    5.11    0.24
  -5   5  -2    4.79    0.45
  -6   5  -2    7.06    0.54
  -7   5  -2    7.74    0.58
  -8   5  -2    7.16    0.56
  -9   5  -2    0.11    0.31
   9  -5   2    0.38    0.25
 -10   5  -2   -0.28    0.35
  10  -5   2   -0.32    0.27
  -9  -4   2    0.12    0.26
   8   4  -2    1.15    0.32
  -8  -4   2    1.15    0.19
  -8  -4   2    1.14    0.26
   7   4  -2    2.83    0.35
  -7  -4   2    2.94    0.29
  -7  -4   2    3.46    0.27
  -7  -4   2    3.08    0.26
   6   4  -2    0.43    0.25
   6   4  -2    0.65    0.22
  -6  -4   2    0.47    0.21
  -6  -4   2    0.91    0.21
  -6  -4   2    0.69    0.18
   5   4  -2    1.34    0.25
   5   4  -2    1.02    0.22
  -5  -4   2    1.09    0.20
  -5  -4   2    1.24    0.19
  -5  -4   2    1.19    0.20
  -5  -4   2    1.46    0.19
   4   4  -2    2.99    0.29
   4   4  -2    3.43    0.29
   4   4  -2    3.29    0.25
   4   4  -2    3.28    0.30
   4   4  -2    2.86    0.27
   4   4  -2    2.97    0.27
  -4  -4   2    3.19    0.25
  -4  -4   2    2.93    0.23
  -4  -4   2    3.41    0.26
  -4  -4   2    3.54    0.29
   3   4  -2    8.41    0.43
   3   4  -2    9.51    0.43
   3   4  -2    8.64    0.39
   3   4  -2    8.27    0.42
   3   4  -2    8.57    0.45
   3   4  -2    9.76    0.43
  -3  -4   2    8.55    0.39
  -3  -4   2    8.87    0.41
  -3  -4   2    8.40    0.42
  -3  -4   2    8.24    0.41
   2   4  -2   49.61    2.01
   2   4  -2   51.44    1.90
   2   4  -2   48.69    1.84
   2   4  -2   50.77    1.77
   2   4  -2   49.25    2.06
   2   4  -2   49.15    1.88
   2   4  -2   53.60    1.91
  -2  -4   2   50.18    1.84
  -2  -4   2   47.24    1.76
  -2  -4   2   49.45    1.83
  -2  -4   2   49.15    1.88
  -2  -4   2   52.03    1.90
   1   4  -2    5.81    0.32
   1   4  -2    6.25    0.35
   1   4  -2    5.52    0.34
   1   4  -2    5.45    0.30
   1   4  -2    5.80    0.33
   1   4  -2    5.36    0.33
   1   4  -2    5.57    0.28
  -1  -4   2    5.78    0.28
  -1  -4   2    5.41    0.33
  -1  -4   2    5.73    0.29
  -1  -4   2    5.94    0.32
  -1  -4   2    5.19    0.31
   0   4  -2   39.20    1.51
   0   4  -2   40.13    1.52
   0   4  -2   41.44    1.42
   0   4  -2   40.67    1.47
   0   4  -2   40.17    1.52
   0   4  -2   42.39    1.51
   0   4  -2   39.22    1.64
   0  -4   2   39.78    1.64
   0  -4   2   38.05    1.48
   0  -4   2   41.29    1.47
   0  -4   2   40.25    1.60
   0  -4   2   38.35    1.51
   0  -4   2   39.51    1.52
  -1   4  -2    3.19    0.25
  -1   4  -2    3.07    0.20
  -1   4  -2    3.38    0.27
  -1   4  -2    3.24    0.24
  -1   4  -2    3.33    0.21
  -1   4  -2    3.05    0.23
  -1   4  -2    3.12    0.21
  -1   4  -2    3.06    0.31
   1  -4   2    2.89    0.23
   1  -4   2    3.46    0.19
   1  -4   2    2.90    0.20
   1  -4   2    2.78    0.24
   1  -4   2    3.00    0.19
   1  -4   2    3.02    0.22
   1  -4   2    3.49    0.24
   1  -4   2    3.58    0.23
   1  -4   2    2.90    0.22
  -2   4  -2    3.11    0.21
  -2   4  -2    3.36    0.38
  -2   4  -2    3.88    0.24
  -2   4  -2    3.46    0.23
  -2   4  -2    3.50    0.20
  -2   4  -2    3.15    0.21
   2  -4   2    3.42    0.22
   2  -4   2    3.32    0.22
   2  -4   2    3.40    0.23
   2  -4   2    3.11    0.21
   2  -4   2    3.50    0.23
   2  -4   2    3.28    0.25
  -3   4  -2  135.69    5.06
  -3   4  -2  143.49    4.84
  -3   4  -2  148.29    5.06
  -3   4  -2  134.48    6.25
   3  -4   2  135.70    5.69
   3  -4   2  147.15    5.16
  -4   4  -2   35.21    1.63
  -5   4  -2    8.87    0.56
  -6   4  -2    3.69    0.43
  -7   4  -2    2.44    0.33
  -8   4  -2    0.36    0.30
   8  -4   2    0.26    0.24
  -9   4  -2    0.58    0.33
   9  -4   2    1.03    0.28
 -10   4  -2   14.80    0.89
  10  -4   2   13.44    0.76
   9   3  -2    2.96    0.40
  -9  -3   2    3.08    0.31
   8   3  -2   -0.36    0.28
  -8  -3   2   -0.25    0.21
   7   3  -2    1.30    0.30
  -7  -3   2    1.23    0.18
  -7  -3   2    1.15    0.23
  -7  -3   2    1.15    0.21
   6   3  -2   -0.02    0.24
   6   3  -2    0.17    0.19
  -6  -3   2   -0.33    0.17
  -6  -3   2    0.02    0.16
  -6  -3   2   -0.05    0.15
  -6  -3   2   -0.11    0.15
   5   3  -2    0.30    0.15
   5   3  -2    1.31    0.25
   5   3  -2    0.91    0.20
  -5  -3   2    0.82    0.17
  -5  -3   2    0.82    0.20
  -5  -3   2    1.15    0.18
  -5  -3   2    1.13    0.18
   4   3  -2   17.71    0.69
   4   3  -2   17.95    0.73
   4   3  -2   18.01    0.81
   4   3  -2   17.76    0.72
   4   3  -2   18.06    0.73
  -4  -3   2   17.36    0.68
  -4  -3   2   17.28    0.71
  -4  -3   2   17.54    0.72
  -4  -3   2   17.54    0.72
   3   3  -2   20.56    0.91
   3   3  -2   21.36    0.84
   3   3  -2   22.04    0.84
   3   3  -2   20.92    0.78
   3   3  -2   19.88    0.80
   3   3  -2   20.25    0.83
  -3  -3   2   20.12    0.77
  -3  -3   2   20.63    0.83
  -3  -3   2   20.23    0.81
  -3  -3   2   23.05    0.83
  -3  -3   2   20.48    0.83
   2   3  -2    0.00    0.13
   2   3  -2    0.22    0.16
   2   3  -2    0.18    0.14
   2   3  -2    0.22    0.14
   2   3  -2    0.31    0.13
  -2  -3   2    0.17    0.09
  -2  -3   2    0.02    0.14
  -2  -3   2    0.02    0.14
  -2  -3   2    0.13    0.13
  -2  -3   2    0.16    0.13
  -2  -3   2    0.12    0.13
   1   3  -2    0.34    0.11
   1   3  -2    0.51    0.11
   1   3  -2    0.27    0.11
   1   3  -2    0.41    0.12
   1   3  -2    0.15    0.09
   1   3  -2    0.37    0.12
   1   3  -2    0.49    0.11
   1   3  -2    0.32    0.11
  -1  -3   2    0.31    0.11
  -1  -3   2    0.30    0.08
  -1  -3   2    0.36    0.11
  -1  -3   2    0.49    0.11
  -1  -3   2    0.36    0.11
  -1  -3   2    0.29    0.10
   0   3  -2   -0.08    0.08
   0   3  -2    0.09    0.06
   0   3  -2    0.16    0.08
   0   3  -2    0.01    0.06
   0   3  -2    0.10    0.08
   0   3  -2    0.09    0.07
   0   3  -2    0.08    0.08
   0  -3   2    0.08    0.08
   0  -3   2    0.09    0.06
   0  -3   2    0.13    0.08
   0  -3   2    0.06    0.08
   0  -3   2    0.08    0.08
   0  -3   2    0.04    0.06
  -1   3  -2    0.59    0.08
  -1   3  -2    0.63    0.08
  -1   3  -2    0.54    0.08
  -1   3  -2    0.60    0.08
  -1   3  -2    0.45    0.08
  -1   3  -2    0.47    0.06
  -1   3  -2    0.60    0.12
   1  -3   2    0.42    0.09
   1  -3   2    0.59    0.08
   1  -3   2    0.59    0.08
   1  -3   2    0.49    0.07
   1  -3   2    0.59    0.08
   1  -3   2    0.57    0.08
   1  -3   2    0.62    0.08
  -2   3  -2   95.96    3.89
  -2   3  -2  103.46    3.61
  -2   3  -2   95.12    4.65
  -2   3  -2  105.79    3.89
  -2   3  -2  108.71    3.86
  -2   3  -2  101.40    3.77
   2  -3   2   96.95    3.85
   2  -3   2  116.66    3.88
   2  -3   2  114.81    3.61
   2  -3   2  106.88    3.88
   2  -3   2  108.36    3.85
  -3   3  -2    7.13    0.49
  -4   3  -2  105.17    4.69
  -5   3  -2   63.51    2.87
  -6   3  -2    0.36    0.24
   6  -3   2    0.38    0.20
  -7   3  -2    3.76    0.36
   7  -3   2    3.33    0.35
  -8   3  -2   -0.06    0.29
   8  -3   2   -0.30    0.23
  -9   3  -2   -0.16    0.31
   9  -3   2   -0.46    0.26
  10  -3   2    6.05    0.50
   9   2  -2    4.90    0.47
  -9  -2   2    4.82    0.38
   8   2  -2    0.28    0.28
  -8  -2   2    0.13    0.19
   7   2  -2    3.65    0.36
  -7  -2   2    4.70    0.32
  -7  -2   2    4.24    0.25
  -7  -2   2    4.14    0.28
  -7  -2   2    4.10    0.33
   6   2  -2    6.28    0.42
   6   2  -2    4.33    0.34
   6   2  -2    4.93    0.30
  -6  -2   2    4.57    0.30
  -6  -2   2    4.32    0.33
  -6  -2   2    4.24    0.33
  -6  -2   2    4.53    0.29
   5   2  -2    7.86    0.45
   5   2  -2    7.62    0.35
   5   2  -2    7.59    0.38
  -5  -2   2    7.16    0.35
  -5  -2   2    7.43    0.38
  -5  -2   2    7.05    0.37
  -5  -2   2    7.07    0.36
  -5  -2   2    7.73    0.39
   4   2  -2   37.70    1.62
   4   2  -2   38.53    1.41
   4   2  -2   36.77    1.45
   4   2  -2   37.81    1.47
  -4  -2   2   37.00    1.36
  -4  -2   2   38.45    1.43
  -4  -2   2   40.48    1.45
  -4  -2   2   43.19    1.45
  -4  -2   2   35.64    1.46
   3   2  -2   58.68    2.20
   3   2  -2   59.38    2.22
   3   2  -2   60.37    2.06
   3   2  -2   58.44    2.15
  -3  -2   2   59.41    2.16
  -3  -2   2   56.97    2.20
  -3  -2   2   55.09    2.22
  -3  -2   2   66.88    2.20
  -3  -2   2   57.00    2.06
   2   2  -2   58.19    2.26
   2   2  -2   65.90    2.13
   2   2  -2   64.10    2.29
   2   2  -2   61.61    2.22
  -2  -2   2   62.59    2.13
  -2  -2   2   57.38    2.21
  -2  -2   2   58.99    2.27
  -2  -2   2   64.77    2.26
  -2  -2   2   60.38    2.22
  -2  -2   2   57.78    2.28
   1   2  -2   16.98    0.60
   1   2  -2   17.89    0.63
   1   2  -2   15.98    0.64
  -1  -2   2   15.64    0.62
  -1  -2   2   16.00    0.65
  -1  -2   2   17.35    0.65
  -1  -2   2   16.32    0.60
  -1  -2   2   17.48    0.64
  -1  -2   2   16.50    0.63
   0   2  -2   33.82    1.17
   0   2  -2   34.84    1.26
   0   2  -2   32.48    1.25
   0  -2   2   35.10    1.26
   0  -2   2   31.51    1.22
   0  -2   2   33.38    1.25
   0  -2   2   34.00    1.22
  -1   2  -2  161.34    6.21
  -1   2  -2  166.14    6.03
  -1   2  -2  183.75    6.22
  -1   2  -2  166.88    5.77
  -1   2  -2  164.08    6.15
   1  -2   2  182.41    6.61
   1  -2   2  172.11    5.76
   1  -2   2  158.56    6.03
   1  -2   2  160.32    7.41
   1  -2   2  164.85    6.14
   1  -2   2  165.55    6.20
  -2   2  -2    7.73    0.43
   2  -2   2    8.40    0.36
  -3   2  -2    5.91    0.45
   3  -2   2    6.20    0.33
  -4   2  -2    1.48    0.22
   4  -2   2    1.35    0.17
  -5   2  -2   95.55    4.29
   5  -2   2   96.38    3.92
  -6   2  -2   58.55    2.64
   6  -2   2   57.60    2.41
  -7   2  -2    5.67    0.49
   7  -2   2    5.69    0.42
   8  -2   2   -0.25    0.24
   9  -2   2    5.79    0.46
  10  -2   2   -0.46    0.28
 -10  -1   2    2.74    0.29
   9   1  -2    0.31    0.31
  -9  -1   2   -0.07    0.21
   8   1  -2    0.89    0.28
  -8  -1   2    0.81    0.16
  -8  -1   2    0.93    0.20
   7   1  -2    0.28    0.26
  -7  -1   2    0.17    0.15
  -7  -1   2   -0.02    0.14
  -7  -1   2    0.20    0.17
   6   1  -2   -0.27    0.11
   6   1  -2   -0.27    0.16
  -6  -1   2   -0.33    0.13
  -6  -1   2   -0.42    0.13
  -6  -1   2   -0.29    0.11
  -6  -1   2   -0.42    0.15
   5   1  -2   15.60    0.62
   5   1  -2   14.61    0.58
  -5  -1   2   13.98    0.60
  -5  -1   2   14.88    0.61
  -5  -1   2   15.73    0.61
  -5  -1   2   14.73    0.58
  -5  -1   2   14.88    0.61
   4   1  -2   23.90    0.89
   4   1  -2   23.03    0.86
   4   1  -2   23.42    0.90
  -4  -1   2   22.72    0.89
  -4  -1   2   21.69    0.90
  -4  -1   2   22.37    0.88
  -4  -1   2   24.41    0.89
  -4  -1   2   23.46    0.84
   3   1  -2   31.23    1.17
   3   1  -2   33.26    1.13
   3   1  -2   32.93    1.18
   3   1  -2   32.88    1.22
   3   1  -2   31.50    1.21
  -3  -1   2   33.39    1.14
  -3  -1   2   31.29    1.19
  -3  -1   2   34.67    1.21
  -3  -1   2   28.54    1.21
  -3  -1   2   29.40    1.21
   2   1  -2    1.79    0.14
   2   1  -2    1.59    0.13
   2   1  -2    1.68    0.12
   2   1  -2    1.41    0.13
   2   1  -2    1.29    0.11
   2   1  -2    1.50    0.13
  -2  -1   2    1.42    0.11
  -2  -1   2    1.92    0.16
  -2  -1   2    1.50    0.13
  -2  -1   2    1.64    0.13
   1   1  -2  437.05   16.71
   1   1  -2  501.73   16.72
   1   1  -2  515.99   16.01
   1   1  -2  419.86   17.06
  -1  -1   2  485.01   17.05
  -1  -1   2  445.98   17.22
  -1  -1   2  438.85   16.71
  -1  -1   2  458.87   16.80
  -1  -1   2  493.79   16.00
   0   1  -2   31.05    1.21
   0   1  -2   31.02    1.33
   0   1  -2   33.99    1.13
   0   1  -2   33.26    1.18
   0   1  -2   31.76    1.21
   0  -1   2   31.12    1.33
   0  -1   2   34.09    1.22
   0  -1   2   31.86    1.18
   0  -1   2   33.33    1.21
   0  -1   2   33.23    1.18
  -1   1  -2    3.50    0.17
  -1   1  -2    4.13    0.19
  -1   1  -2    3.53    0.17
  -1   1  -2    3.44    0.17
  -1   1  -2    3.64    0.17
  -1   1  -2    3.71    0.16
   1  -1   2    3.51    0.18
   1  -1   2    3.57    0.16
   1  -1   2    3.56    0.16
   1  -1   2    3.53    0.17
   1  -1   2    4.10    0.19
  -2   1  -2    1.07    0.09
  -2   1  -2    1.13    0.11
  -2   1  -2    0.93    0.07
  -2   1  -2    1.09    0.08
   2  -1   2    1.03    0.08
   2  -1   2    1.16    0.11
   2  -1   2    1.18    0.10
   2  -1   2    1.02    0.08
   3  -1   2   22.03    0.94
  -4   1  -2    0.96    0.20
   4  -1   2    1.15    0.17
   5  -1   2    2.61    0.27
  -6   1  -2   26.64    1.04
   6  -1   2   29.51    1.23
  -7   1  -2   16.14    0.63
  -7   1  -2   15.56    0.63
   7  -1   2   16.07    0.78
  -8   1  -2    1.18    0.16
  -8   1  -2    1.12    0.17
   8  -1   2    1.43    0.28
  -9   1  -2   -0.11    0.16
   9  -1   2   -0.34    0.25
  10  -1   2   -0.21    0.29
  10   0  -2   -0.05    0.31
 -10   0   2    0.09    0.22
   9   0  -2    0.46    0.30
  -9   0   2    0.45    0.20
   8   0  -2    1.99    0.32
  -8   0   2    1.52    0.17
  -8   0   2    1.50    0.21
  -8   0   2    2.19    0.29
  -7   0   2    3.00    0.22
  -7   0   2    3.20    0.32
  -7   0   2    2.83    0.27
   6   0  -2   15.49    0.61
  -6   0   2   13.78    0.60
  -6   0   2   15.49    0.59
  -6   0   2   14.64    0.57
  -6   0   2   13.81    0.77
   5   0  -2   11.23    0.48
  -5   0   2   12.02    0.48
  -5   0   2   10.68    0.46
  -5   0   2   11.72    0.47
  -5   0   2   11.25    0.45
  -5   0   2   10.88    0.47
   4   0  -2   32.02    1.14
   4   0  -2   28.81    1.13
  -4   0   2   30.91    1.12
  -4   0   2   29.06    1.11
  -4   0   2   29.15    1.13
  -4   0   2   29.21    1.12
  -4   0   2   28.40    1.37
  -4   0   2   29.96    1.06
  -4   0   2   29.48    1.11
   3   0  -2   10.61    0.41
   3   0  -2   10.15    0.44
   3   0  -2   10.70    0.44
  -3   0   2    9.78    0.43
  -3   0   2   10.50    0.41
  -3   0   2    9.85    0.43
  -3   0   2   11.23    0.44
  -3   0   2    9.98    0.43
   2   0  -2   69.43    2.41
   2   0  -2   67.14    2.41
   2   0  -2   65.50    2.30
   2   0  -2   65.89    2.48
   2   0  -2   64.03    2.46
   2   0  -2   67.08    2.41
  -2   0   2   67.46    2.46
  -2   0   2   69.30    2.31
  -2   0   2   66.48    2.41
  -2   0   2   66.26    2.41
  -2   0   2   65.13    2.48
   1   0  -2   30.86    1.26
   1   0  -2   31.18    1.12
   1   0  -2   30.51    1.12
   1   0  -2   31.78    1.07
   1   0  -2   31.69    1.15
   1   0  -2   30.41    1.14
  -1   0   2   30.71    1.07
  -1   0   2   29.32    1.12
  -1   0   2   30.24    1.14
  -1   0   2   28.84    1.15
   0   0  -2  422.25   15.57
   0   0  -2  404.02   14.45
   0   0  -2  450.37   17.02
   0   0  -2  396.06   15.43
   0   0  -2  427.03   15.13
   0   0   2  420.16   15.12
   0   0   2  429.22   15.41
   0   0   2  443.51   17.05
   0   0   2  432.65   15.11
   0   0   2  387.60   15.55
  -1   0  -2    6.13    0.25
  -1   0  -2    5.57    0.24
  -1   0  -2    5.53    0.23
  -1   0  -2    5.44    0.24
  -1   0  -2    5.39    0.24
  -1   0  -2    6.49    0.28
  -1   0  -2    5.84    0.24
  -1   0  -2    5.54    0.25
   1   0   2    5.30    0.25
   1   0   2    5.43    0.23
   1   0   2    6.08    0.27
   1   0   2    5.32    0.25
   1   0   2    5.48    0.24
   1   0   2    5.70    0.25
   1   0   2    5.89    0.25
  -2   0  -2   10.96    0.46
  -2   0  -2   12.64    0.53
  -2   0  -2   11.96    0.46
  -2   0  -2   11.11    0.45
  -2   0  -2   11.39    0.46
  -2   0  -2   12.09    0.46
   2   0   2   11.30    0.47
   2   0   2   11.59    0.47
   2   0   2   12.30    0.44
   2   0   2   12.47    0.49
   2   0   2   12.81    0.53
   2   0   2   11.73    0.47
   2   0   2   12.44    0.47
  -3   0  -2    2.32    0.17
  -3   0  -2    1.89    0.18
  -3   0  -2    2.35    0.18
  -3   0  -2    2.26    0.17
   3   0   2    2.27    0.18
   3   0   2    2.42    0.21
   3   0   2    2.26    0.20
   3   0   2    2.30    0.20
   3   0   2    2.25    0.18
  -4   0  -2    5.64    0.27
  -4   0  -2    5.77    0.27
   4   0   2    6.34    0.35
   4   0   2    5.77    0.28
  -5   0  -2    3.87    0.24
  -5   0  -2    4.15    0.24
   5   0   2    4.39    0.24
   5   0   2    4.39    0.33
  -6   0  -2    0.56    0.15
  -6   0  -2    0.42    0.14
   6   0   2    0.29    0.22
  -7   0  -2    8.53    0.40
  -7   0  -2    8.68    0.40
   7   0   2    8.36    0.51
   7   0   2    7.82    0.41
  -8   0  -2    4.68    0.30
  -8   0  -2    4.57    0.30
   8   0   2    4.85    0.41
   8   0   2    4.28    0.30
  -9   0  -2    3.79    0.30
  -9   0  -2    3.74    0.29
   9   0   2    3.40    0.38
 -10   0  -2    2.59    0.26
  10  -1  -2    0.62    0.32
 -10   1   2    0.49    0.20
   9  -1  -2   -0.14    0.27
  -9   1   2    0.51    0.28
  -9   1   2    0.40    0.18
  -8   1   2    1.21    0.15
  -8   1   2    1.34    0.20
  -8   1   2    1.81    0.29
  -7   1   2    8.91    0.39
  -7   1   2   10.05    0.63
  -7   1   2    8.19    0.42
   6  -1  -2   15.48    0.61
  -6   1   2   14.90    0.61
  -6   1   2   15.18    0.79
  -6   1   2   14.40    0.61
  -6   1   2   15.14    0.57
   5  -1  -2    1.23    0.14
  -5   1   2    1.55    0.14
  -5   1   2    1.27    0.11
  -5   1   2    1.26    0.23
  -5   1   2    1.08    0.12
  -5   1   2    1.44    0.13
  -5   1   2    1.12    0.14
   4  -1  -2   84.22    3.09
   4  -1  -2   89.40    3.12
  -4   1   2   85.22    3.03
  -4   1   2   81.74    3.03
  -4   1   2   82.30    3.11
  -4   1   2   77.07    3.74
  -4   1   2   87.08    3.08
  -4   1   2   83.49    2.90
   3  -1  -2    1.55    0.13
   3  -1  -2    1.45    0.14
   3  -1  -2    1.51    0.14
  -3   1   2    1.50    0.14
  -3   1   2    1.48    0.14
  -3   1   2    1.63    0.14
  -3   1   2    1.42    0.14
  -3   1   2    1.48    0.13
   2  -1  -2   21.29    0.88
   2  -1  -2   19.98    0.77
   2  -1  -2   21.14    0.74
   2  -1  -2   19.78    0.79
   2  -1  -2   21.59    0.80
  -2   1   2   20.68    0.77
  -2   1   2   19.60    0.77
  -2   1   2   20.64    0.79
  -2   1   2   20.86    0.74
  -2   1   2   21.76    0.79
   1  -1  -2   34.81    1.40
   1  -1  -2   36.19    1.42
   1  -1  -2   41.02    1.55
   1  -1  -2   37.12    1.38
   1  -1  -2   37.00    1.32
   1  -1  -2   39.18    1.38
  -1   1   2   37.50    1.38
  -1   1   2   37.96    1.37
  -1   1   2   39.16    1.55
  -1   1   2   36.86    1.32
  -1   1   2   38.43    1.42
  -1   1   2   37.49    1.41
  -1   1   2   38.40    1.42
   0  -1  -2    0.45    0.07
   0  -1  -2    0.52    0.08
   0  -1  -2    0.35    0.08
   0  -1  -2    0.59    0.08
   0  -1  -2    0.56    0.10
   0   1   2    0.30    0.08
   0   1   2    0.30    0.08
   0   1   2    0.48    0.08
   0   1   2    0.42    0.08
   0   1   2    0.62    0.10
  -1  -1  -2   24.72    0.97
  -1  -1  -2   24.99    0.97
  -1  -1  -2   23.36    0.96
  -1  -1  -2   25.13    0.95
  -1  -1  -2   26.84    1.03
  -1  -1  -2   26.79    1.07
  -1  -1  -2   26.91    0.98
  -1  -1  -2   25.04    0.95
   1   1   2   25.09    0.95
   1   1   2   25.77    0.98
   1   1   2   26.63    0.97
   1   1   2   26.82    1.07
   1   1   2   26.09    1.03
   1   1   2   25.84    0.91
   1   1   2   25.74    0.98
   1   1   2   24.58    0.95
  -2  -1  -2   11.49    0.47
  -2  -1  -2   11.97    0.47
  -2  -1  -2   11.54    0.47
  -2  -1  -2   10.67    0.47
  -2  -1  -2   11.52    0.48
  -2  -1  -2   10.63    0.47
   2   1   2   11.12    0.49
   2   1   2   12.21    0.48
   2   1   2   11.07    0.45
   2   1   2   11.09    0.50
   2   1   2   11.74    0.48
   2   1   2   10.69    0.48
   2   1   2   12.70    0.54
  -3  -1  -2    0.88    0.11
  -3  -1  -2    0.82    0.12
  -3  -1  -2    0.71    0.11
  -3  -1  -2    0.81    0.11
  -3  -1  -2    0.92    0.12
  -3  -1  -2    1.04    0.13
   3   1   2    0.79    0.13
   3   1   2    0.78    0.16
   3   1   2    0.64    0.13
   3   1   2    0.77    0.14
   3   1   2    0.84    0.13
  -4  -1  -2   29.56    1.10
  -4  -1  -2   30.18    1.11
  -4  -1  -2   29.42    1.11
  -4  -1  -2   28.72    1.10
   4   1   2   29.52    1.19
   4   1   2   28.86    1.12
   4   1   2   29.88    1.26
  -5  -1  -2    0.28    0.13
  -5  -1  -2    0.25    0.11
  -5  -1  -2    0.29    0.15
  -5  -1  -2    0.43    0.11
   5   1   2    0.12    0.19
   5   1   2    0.39    0.13
   5   1   2    0.14    0.14
  -6  -1  -2   17.16    0.69
  -6  -1  -2   16.63    0.68
   6   1   2   16.49    0.81
  -7  -1  -2    2.11    0.22
  -7  -1  -2    2.26    0.21
   7   1   2    2.25    0.31
   7   1   2    2.38    0.22
  -8  -1  -2    6.05    0.37
  -8  -1  -2    6.14    0.36
   8   1   2    5.93    0.47
  -9  -1  -2    1.47    0.23
   9   1   2    1.57    0.34
  10  -2  -2    0.99    0.32
 -10   2   2    0.10    0.19
  -9   2   2    2.01    0.34
  -9   2   2    1.58    0.21
  -8   2   2    4.51    0.48
  -8   2   2    4.06    0.29
  -7   2   2    0.46    0.16
  -7   2   2    0.69    0.16
  -7   2   2    0.44    0.26
  -7   2   2    0.60    0.14
   6  -2  -2    0.19    0.14
  -6   2   2    0.40    0.24
  -6   2   2    0.24    0.14
  -6   2   2    0.26    0.14
  -6   2   2    0.03    0.12
   5  -2  -2    4.28    0.25
  -5   2   2    5.72    0.41
  -5   2   2    4.42    0.26
  -5   2   2    4.31    0.23
  -5   2   2    4.08    0.22
  -5   2   2    4.01    0.25
  -5   2   2    4.22    0.24
   4  -2  -2    5.33    0.27
  -4   2   2    5.44    0.26
  -4   2   2    5.20    0.26
  -4   2   2    5.56    0.27
  -4   2   2    4.74    0.26
  -4   2   2    5.28    0.27
  -4   2   2    5.13    0.28
  -4   2   2    5.13    0.41
   3  -2  -2   18.23    0.72
   3  -2  -2   17.27    0.72
   3  -2  -2   18.77    0.69
   3  -2  -2   18.28    0.68
  -3   2   2   18.60    0.72
  -3   2   2   17.90    0.68
  -3   2   2   18.66    0.71
  -3   2   2   19.60    0.72
  -3   2   2   17.54    0.71
  -3   2   2   17.96    0.72
   2  -2  -2    0.20    0.08
   2  -2  -2   -0.06    0.09
   2  -2  -2   -0.02    0.09
   2  -2  -2   -0.01    0.10
   2  -2  -2    0.08    0.09
  -2   2   2    0.00    0.13
  -2   2   2    0.10    0.11
  -2   2   2   -0.05    0.11
  -2   2   2    0.08    0.10
  -2   2   2    0.08    0.10
  -2   2   2    0.03    0.10
  -2   2   2    0.03    0.10
   1  -2  -2    0.93    0.11
   1  -2  -2    1.15    0.11
   1  -2  -2    1.19    0.12
   1  -2  -2    1.18    0.11
   1  -2  -2    1.20    0.12
   1  -2  -2    1.17    0.11
   1  -2  -2    1.05    0.10
  -1   2   2    1.10    0.13
  -1   2   2    0.94    0.11
  -1   2   2    0.97    0.09
  -1   2   2    1.09    0.11
  -1   2   2    0.99    0.12
  -1   2   2    1.09    0.11
  -1   2   2    1.26    0.12
   0  -2  -2   19.11    0.71
   0  -2  -2   19.00    0.73
   0  -2  -2   17.78    0.71
   0  -2  -2   17.46    0.72
   0  -2  -2   18.63    0.72
   0  -2  -2   17.55    0.73
   0   2   2   19.50    0.73
   0   2   2   19.43    0.80
   0   2   2   18.69    0.73
   0   2   2   19.08    0.71
   0   2   2   18.99    0.72
   0   2   2   18.06    0.70
   0   2   2   18.09    0.77
  -1  -2  -2    1.21    0.14
  -1  -2  -2    1.29    0.15
  -1  -2  -2    1.31    0.15
  -1  -2  -2    1.10    0.15
  -1  -2  -2    1.20    0.13
  -1  -2  -2    1.37    0.15
   1   2   2    1.22    0.15
   1   2   2    1.32    0.18
   1   2   2    1.05    0.15
   1   2   2    1.50    0.18
   1   2   2    1.18    0.15
   1   2   2    1.05    0.15
   1   2   2    1.28    0.15
  -2  -2  -2    1.16    0.15
  -2  -2  -2    1.09    0.14
  -2  -2  -2    1.18    0.13
  -2  -2  -2    1.22    0.14
  -2  -2  -2    1.14    0.14
  -2  -2  -2    1.12    0.13
  -2  -2  -2    1.24    0.14
   2   2   2    1.18    0.17
   2   2   2    1.24    0.16
   2   2   2    1.25    0.15
   2   2   2    1.22    0.15
   2   2   2    1.15    0.18
  -3  -2  -2    2.07    0.20
  -3  -2  -2    2.01    0.17
  -3  -2  -2    1.90    0.18
  -3  -2  -2    1.66    0.16
  -3  -2  -2    2.11    0.20
  -3  -2  -2    1.61    0.15
   3   2   2    1.91    0.17
   3   2   2    2.07    0.18
   3   2   2    2.12    0.20
   3   2   2    2.12    0.20
   3   2   2    2.08    0.18
  -4  -2  -2    4.09    0.25
  -4  -2  -2    3.93    0.26
  -4  -2  -2    3.84    0.26
  -4  -2  -2    4.01    0.26
   4   2   2    4.13    0.34
   4   2   2    3.70    0.29
   4   2   2    4.32    0.28
  -5  -2  -2   11.43    0.52
  -5  -2  -2   11.77    0.50
  -5  -2  -2   11.10    0.51
   5   2   2   12.65    0.50
   5   2   2   11.36    0.61
   5   2   2   11.25    0.55
   5   2   2   11.08    0.53
  -6  -2  -2    1.91    0.21
  -6  -2  -2    2.06    0.22
  -6  -2  -2    1.92    0.18
   6   2   2    2.10    0.30
  -7  -2  -2    5.14    0.35
   7   2   2    4.68    0.43
  -8  -2  -2    9.24    0.49
   8   2   2    8.79    0.59
  -9  -2  -2    0.84    0.24
 -10   3   2   -0.49    0.33
 -10   3   2    0.18    0.19
  -9   3   2    3.94    0.29
  -9   3   2    3.89    0.43
  -8   3   2    5.99    0.35
  -8   3   2    6.40    0.65
  -8   3   2    5.65    0.34
  -7   3   2    1.81    0.17
  -7   3   2    1.56    0.19
  -7   3   2    2.06    0.31
  -7   3   2    1.98    0.20
   6  -3  -2    0.60    0.14
  -6   3   2    0.52    0.14
  -6   3   2    0.42    0.25
  -6   3   2    0.57    0.15
  -6   3   2    0.55    0.15
   5  -3  -2    2.58    0.21
  -5   3   2    2.58    0.21
  -5   3   2    2.49    0.28
  -5   3   2    2.10    0.17
  -5   3   2    2.28    0.21
  -5   3   2    2.21    0.19
  -5   3   2    2.37    0.21
  -5   3   2    2.29    0.17
   4  -3  -2   41.80    1.44
   4  -3  -2   39.45    1.48
  -4   3   2   40.13    1.39
  -4   3   2   39.19    1.45
  -4   3   2   39.92    1.48
  -4   3   2   38.96    1.48
  -4   3   2   41.17    1.48
  -4   3   2   34.74    1.80
  -4   3   2   37.99    1.45
   3  -3  -2    1.69    0.16
   3  -3  -2    1.43    0.15
   3  -3  -2    1.44    0.14
  -3   3   2    1.43    0.15
  -3   3   2    1.68    0.16
  -3   3   2    1.44    0.15
  -3   3   2    1.34    0.15
  -3   3   2    1.32    0.15
  -3   3   2    1.54    0.15
   2  -3  -2  107.62    3.98
   2  -3  -2  106.90    4.06
   2  -3  -2  113.98    4.10
   2  -3  -2  112.80    4.10
   2  -3  -2  105.67    3.98
  -2   3   2  109.77    3.98
  -2   3   2  109.33    4.10
  -2   3   2  106.76    4.10
  -2   3   2  112.47    3.98
  -2   3   2  113.51    4.49
  -2   3   2  118.69    4.06
  -2   3   2  108.74    3.81
  -2   3   2  107.63    3.98
   1  -3  -2   11.89    0.53
   1  -3  -2   11.63    0.53
   1  -3  -2   12.25    0.52
   1  -3  -2   12.36    0.51
   1  -3  -2   12.31    0.55
   1  -3  -2   11.39    0.51
  -1   3   2   12.63    0.52
  -1   3   2   12.24    0.52
  -1   3   2   12.76    0.54
  -1   3   2   11.81    0.48
  -1   3   2   13.22    0.59
  -1   3   2   12.12    0.52
  -1   3   2   12.12    0.50
   0  -3  -2   15.20    0.66
   0  -3  -2   15.48    0.64
   0  -3  -2   14.06    0.63
   0  -3  -2   15.60    0.62
   0  -3  -2   15.62    0.63
   0  -3  -2   14.27    0.62
   0   3   2   15.18    0.67
   0   3   2   16.33    0.60
   0   3   2   14.69    0.60
   0   3   2   16.23    0.64
   0   3   2   14.98    0.62
   0   3   2   15.15    0.69
   0   3   2   16.14    0.63
  -1  -3  -2   32.40    1.25
  -1  -3  -2   33.89    1.35
  -1  -3  -2   33.83    1.28
  -1  -3  -2   32.58    1.27
  -1  -3  -2   32.88    1.28
   1   3   2   33.92    1.40
   1   3   2   34.51    1.25
   1   3   2   32.54    1.28
   1   3   2   33.10    1.29
   1   3   2   31.34    1.35
   1   3   2   34.87    1.29
  -2  -3  -2    6.66    0.32
  -2  -3  -2    6.92    0.34
  -2  -3  -2    6.18    0.34
  -2  -3  -2    7.00    0.33
  -2  -3  -2    6.27    0.34
  -2  -3  -2    6.60    0.33
   2   3   2    6.42    0.34
   2   3   2    6.32    0.36
   2   3   2    7.11    0.35
   2   3   2    6.85    0.39
   2   3   2    6.34    0.35
   2   3   2    6.05    0.31
  -3  -3  -2    3.94    0.27
  -3  -3  -2    3.81    0.27
  -3  -3  -2    4.16    0.25
  -3  -3  -2    3.62    0.24
  -3  -3  -2    3.63    0.26
   3   3   2    3.51    0.31
   3   3   2    3.75    0.24
   3   3   2    3.85    0.28
   3   3   2    4.26    0.28
   3   3   2    3.48    0.28
   3   3   2    3.37    0.29
  -4  -3  -2   21.09    0.85
  -4  -3  -2   22.78    0.87
  -4  -3  -2   21.20    0.85
  -4  -3  -2   22.26    0.86
   4   3   2   20.97    0.87
   4   3   2   20.13    0.91
   4   3   2   20.09    0.96
   4   3   2   21.82    0.84
  -5  -3  -2    2.43    0.23
  -5  -3  -2    2.83    0.27
  -5  -3  -2    2.82    0.24
  -5  -3  -2    2.56    0.24
   5   3   2    2.69    0.25
   5   3   2    2.47    0.30
  -6  -3  -2    4.76    0.35
  -6  -3  -2    5.45    0.32
   6   3   2    4.49    0.44
  -7  -3  -2    3.24    0.29
   7   3   2    3.12    0.37
  -8  -3  -2    4.22    0.37
   8   3   2    3.99    0.42
 -10   4   2    2.39    0.24
 -10   4   2    2.86    0.41
  -9   4   2    0.49    0.19
  -9   4   2    0.44    0.18
  -9   4   2    0.36    0.34
  -8   4   2    0.02    0.13
  -8   4   2   -0.26    0.30
  -8   4   2    0.20    0.17
  -8   4   2   -0.12    0.17
  -7   4   2    2.27    0.35
  -7   4   2    2.05    0.21
  -7   4   2    2.54    0.21
  -7   4   2    2.55    0.21
   6  -4  -2    1.61    0.17
  -6   4   2    1.52    0.18
  -6   4   2    1.69    0.31
  -6   4   2    1.65    0.17
  -6   4   2    1.37    0.18
   5  -4  -2   14.51    0.61
  -5   4   2   13.72    0.80
  -5   4   2   14.52    0.60
  -5   4   2   15.29    0.58
  -5   4   2   14.71    0.60
  -5   4   2   14.74    0.60
  -5   4   2   15.60    0.61
  -5   4   2   14.81    0.61
   4  -4  -2   12.14    0.51
   4  -4  -2   12.58    0.48
  -4   4   2   11.55    0.68
  -4   4   2   11.40    0.51
  -4   4   2   11.95    0.51
  -4   4   2   12.01    0.51
  -4   4   2   11.93    0.51
  -4   4   2   13.34    0.52
  -4   4   2   11.54    0.48
   3  -4  -2   10.91    0.45
   3  -4  -2   11.22    0.47
   3  -4  -2   10.47    0.48
   3  -4  -2   10.41    0.47
  -3   4   2   10.92    0.47
  -3   4   2   11.44    0.54
  -3   4   2   11.70    0.49
  -3   4   2   10.84    0.45
  -3   4   2   10.98    0.47
  -3   4   2   10.11    0.47
  -3   4   2   10.93    0.61
  -3   4   2   10.74    0.47
   2  -4  -2   34.37    1.38
   2  -4  -2   36.11    1.47
   2  -4  -2   37.65    1.39
   2  -4  -2   36.72    1.34
   2  -4  -2   34.93    1.35
   2  -4  -2   35.62    1.38
  -2   4   2   35.37    1.32
  -2   4   2   35.61    1.39
  -2   4   2   37.37    1.36
  -2   4   2   35.78    1.39
  -2   4   2   36.77    1.52
  -2   4   2   37.40    1.35
  -2   4   2   36.46    1.30
   1  -4  -2  110.25    4.06
   1  -4  -2  115.69    4.18
   1  -4  -2  111.82    4.42
   1  -4  -2  115.54    4.18
   1  -4  -2  103.36    4.14
  -1   4   2  108.52    4.05
  -1   4   2  111.29    3.88
  -1   4   2  112.57    4.18
  -1   4   2  114.70    4.57
  -1   4   2  113.62    4.18
  -1   4   2  116.55    4.06
   0  -4  -2    2.49    0.21
   0  -4  -2    2.44    0.19
   0  -4  -2    2.37    0.21
   0  -4  -2    2.16    0.18
   0  -4  -2    2.22    0.19
   0  -4  -2    2.12    0.22
   0   4   2    2.54    0.22
   0   4   2    2.19    0.20
   0   4   2    2.19    0.21
   0   4   2    2.27    0.21
   0   4   2    2.35    0.20
   0   4   2    2.41    0.20
   0   4   2    2.31    0.18
  -1  -4  -2    4.38    0.29
  -1  -4  -2    4.79    0.27
  -1  -4  -2    4.19    0.27
  -1  -4  -2    4.86    0.28
  -1  -4  -2    4.47    0.29
  -1  -4  -2    4.18    0.29
   1   4   2    4.76    0.28
   1   4   2    4.55    0.29
   1   4   2    4.81    0.29
   1   4   2    4.75    0.33
   1   4   2    4.30    0.25
   1   4   2    5.17    0.32
   1   4   2    4.85    0.29
  -2  -4  -2    2.17    0.19
  -2  -4  -2    1.79    0.18
  -2  -4  -2    1.85    0.19
  -2  -4  -2    2.39    0.22
  -2  -4  -2    2.42    0.20
   2   4   2    1.99    0.23
   2   4   2    2.38    0.22
   2   4   2    2.19    0.21
   2   4   2    1.65    0.19
   2   4   2    2.06    0.23
  -3  -4  -2    2.71    0.24
  -3  -4  -2    2.61    0.24
  -3  -4  -2    3.00    0.28
  -3  -4  -2    2.57    0.22
  -3  -4  -2    2.60    0.22
   3   4   2    2.68    0.28
   3   4   2    3.03    0.26
   3   4   2    2.94    0.24
  -4  -4  -2   -0.10    0.17
  -4  -4  -2    0.12    0.18
  -4  -4  -2    0.04    0.16
   4   4   2   -0.06    0.23
   4   4   2   -0.10    0.20
  -5  -4  -2    0.55    0.18
  -5  -4  -2    0.69    0.19
  -5  -4  -2    0.61    0.21
   5   4   2    0.84    0.23
   5   4   2    0.89    0.27
  -6  -4  -2   -0.09    0.21
  -6  -4  -2   -0.12    0.16
   6   4   2   -0.33    0.26
  -7  -4  -2    0.08    0.23
   7   4   2    0.00    0.29
  -8  -4  -2    1.16    0.28
 -10   5   2    1.50    0.22
 -10   5   2    1.58    0.39
 -10   5   2    1.74    0.23
  -9   5   2    8.28    0.63
  -9   5   2    6.88    0.39
  -9   5   2    7.35    0.41
  -8   5   2    1.12    0.17
  -8   5   2    1.38    0.33
  -8   5   2    1.03    0.19
  -8   5   2    1.31    0.20
  -7   5   2   11.98    0.54
  -7   5   2   11.48    0.73
  -7   5   2   12.21    0.50
  -7   5   2   12.42    0.55
   6  -5  -2    0.02    0.15
  -6   5   2   -0.26    0.16
  -6   5   2    0.11    0.12
  -6   5   2    0.09    0.17
  -6   5   2    0.30    0.16
  -6   5   2    0.07    0.12
  -6   5   2   -0.64    0.27
   5  -5  -2    4.46    0.28
  -5   5   2    4.22    0.26
  -5   5   2    4.43    0.28
  -5   5   2    4.50    0.30
  -5   5   2    4.12    0.26
  -5   5   2    3.90    0.39
  -5   5   2    4.33    0.31
   4  -5  -2    0.06    0.11
   4  -5  -2    0.21    0.14
  -4   5   2   -0.27    0.15
  -4   5   2   -0.12    0.16
  -4   5   2   -0.01    0.16
  -4   5   2   -0.07    0.15
  -4   5   2    0.06    0.14
  -4   5   2   -0.07    0.24
  -4   5   2   -0.01    0.14
   3  -5  -2    2.67    0.22
   3  -5  -2    2.96    0.25
   3  -5  -2    2.98    0.26
   3  -5  -2    3.32    0.25
   3  -5  -2    2.72    0.27
  -3   5   2    2.95    0.24
  -3   5   2    3.13    0.24
  -3   5   2    3.61    0.26
  -3   5   2    3.21    0.24
  -3   5   2    2.65    0.23
  -3   5   2    3.27    0.38
  -3   5   2    2.88    0.31
   2  -5  -2    1.81    0.18
   2  -5  -2    1.64    0.18
   2  -5  -2    1.64    0.17
   2  -5  -2    1.56    0.18
   2  -5  -2    1.58    0.15
   2  -5  -2    1.90    0.17
  -2   5   2    1.58    0.18
  -2   5   2    1.35    0.24
  -2   5   2    1.77    0.15
  -2   5   2    1.60    0.21
  -2   5   2    1.58    0.18
  -2   5   2    1.53    0.19
  -2   5   2    1.52    0.18
   1  -5  -2    1.65    0.18
   1  -5  -2    2.07    0.19
   1  -5  -2    1.69    0.17
   1  -5  -2    1.74    0.19
  -1   5   2    1.84    0.20
  -1   5   2    1.90    0.18
  -1   5   2    1.99    0.20
  -1   5   2    1.76    0.19
  -1   5   2    1.83    0.19
  -1   5   2    1.75    0.20
  -1   5   2    1.52    0.20
   0  -5  -2   35.49    1.49
   0  -5  -2   35.89    1.40
   0  -5  -2   35.82    1.41
   0  -5  -2   35.43    1.41
   0  -5  -2   36.18    1.37
   0  -5  -2   37.80    1.38
   0   5   2   34.94    1.42
   0   5   2   36.87    1.33
   0   5   2   37.51    1.38
   0   5   2   35.97    1.42
   0   5   2   40.10    1.40
   0   5   2   35.97    1.54
   0   5   2   34.84    1.36
  -1  -5  -2    9.39    0.47
  -1  -5  -2    9.54    0.46
  -1  -5  -2    9.50    0.46
  -1  -5  -2    9.59    0.46
  -1  -5  -2    9.36    0.45
   1   5   2    9.44    0.47
   1   5   2    9.78    0.51
   1   5   2    9.52    0.49
   1   5   2    8.90    0.42
   1   5   2    8.52    0.48
  -2  -5  -2   -0.01    0.16
  -2  -5  -2   -0.08    0.15
  -2  -5  -2    0.36    0.17
  -2  -5  -2   -0.01    0.17
   2   5   2    0.02    0.13
   2   5   2    0.16    0.22
   2   5   2    0.24    0.22
  -3  -5  -2    0.44    0.17
  -3  -5  -2    0.61    0.19
  -3  -5  -2    0.39    0.17
  -3  -5  -2    0.75    0.20
   3   5   2    0.46    0.24
   3   5   2    0.52    0.24
  -4  -5  -2    1.34    0.22
  -4  -5  -2    1.64    0.23
  -4  -5  -2    1.63    0.24
   4   5   2    1.87    0.30
   4   5   2    1.52    0.28
  -5  -5  -2    0.07    0.19
  -5  -5  -2    0.19    0.22
  -5  -5  -2    0.29    0.20
   5   5   2    0.30    0.27
   5   5   2    0.59    0.26
  -6  -5  -2    0.80    0.21
  -6  -5  -2    0.71    0.21
   6   5   2    0.53    0.30
 -10   6   2    0.23    0.35
 -10   6   2   -0.08    0.20
  -9   6   2    3.19    0.42
  -9   6   2    2.52    0.26
  -9   6   2    2.78    0.25
  -8   6   2    0.08    0.19
  -8   6   2    0.24    0.16
  -8   6   2   -0.06    0.30
  -8   6   2   -0.24    0.19
  -7   6   2    1.18    0.33
  -7   6   2    1.48    0.22
  -7   6   2    1.83    0.20
  -7   6   2    1.28    0.22
  -6   6   2    8.42    0.41
  -6   6   2    7.45    0.61
  -6   6   2    8.18    0.39
  -6   6   2    8.90    0.44
  -6   6   2    7.95    0.39
  -6   6   2    8.61    0.45
   5  -6  -2    8.13    0.40
  -5   6   2    7.66    0.41
  -5   6   2    6.95    0.38
  -5   6   2    7.03    0.38
  -5   6   2    7.19    0.59
  -5   6   2    7.53    0.38
  -5   6   2    7.69    0.43
   4  -6  -2    0.86    0.15
   4  -6  -2    0.98    0.19
   4  -6  -2    1.19    0.20
  -4   6   2    0.95    0.21
  -4   6   2    0.85    0.21
  -4   6   2    1.09    0.18
  -4   6   2    1.10    0.20
  -4   6   2    0.90    0.18
  -4   6   2    0.71    0.29
   3  -6  -2    2.28    0.22
   3  -6  -2    2.22    0.22
   3  -6  -2    1.93    0.18
  -3   6   2    1.68    0.23
  -3   6   2    1.84    0.24
  -3   6   2    1.64    0.21
  -3   6   2    2.06    0.31
  -3   6   2    1.89    0.21
  -3   6   2    1.70    0.21
  -3   6   2    1.80    0.24
   2  -6  -2   14.62    0.61
   2  -6  -2   13.00    0.60
   2  -6  -2   12.78    0.56
   2  -6  -2   12.95    0.59
   2  -6  -2   13.76    0.63
  -2   6   2   12.93    0.53
  -2   6   2   13.94    0.66
  -2   6   2   13.56    0.59
  -2   6   2   14.82    0.74
  -2   6   2   12.23    0.59
  -2   6   2   12.42    0.56
  -2   6   2   12.85    0.60
   1  -6  -2    3.06    0.26
   1  -6  -2    3.12    0.30
  -1   6   2    3.52    0.34
  -1   6   2    3.47    0.29
  -1   6   2    3.52    0.24
  -1   6   2    2.92    0.28
  -1   6   2    3.32    0.38
  -1   6   2    2.99    0.29
  -1   6   2    2.94    0.27
   0  -6  -2   -0.32    0.17
   0  -6  -2   -0.21    0.15
   0  -6  -2    0.13    0.18
   0   6   2   -0.06    0.18
   0   6   2   -0.26    0.18
   0   6   2   -0.03    0.14
   0   6   2   -0.08    0.21
  -1  -6  -2   34.20    1.41
  -1  -6  -2   36.66    1.41
   1   6   2   36.30    1.36
   1   6   2   34.54    1.54
   1   6   2   36.94    1.41
  -2  -6  -2    7.90    0.43
  -2  -6  -2    7.91    0.45
   2   6   2    7.60    0.51
   2   6   2    8.66    0.50
  -3  -6  -2    1.59    0.23
  -3  -6  -2    1.43    0.24
   3   6   2    1.40    0.28
   3   6   2    1.95    0.29
  -4  -6  -2    4.66    0.37
   4   6   2    5.06    0.43
   4   6   2    3.81    0.39
  -5  -6  -2   -0.09    0.21
   5   6   2    0.19    0.29
   5   6   2   -0.02    0.27
  -6  -6  -2    3.97    0.36
   6   6   2    3.45    0.42
 -10   7   2    0.10    0.22
  -9   7   2    0.79    0.23
  -9   7   2    0.91    0.37
  -8   7   2   -0.15    0.17
  -8   7   2   -0.14    0.31
  -8   7   2    0.22    0.21
  -7   7   2    1.11    0.33
  -7   7   2    1.11    0.20
  -7   7   2    0.59    0.22
   6  -7  -2    0.64    0.22
  -6   7   2    0.64    0.32
  -6   7   2    0.40    0.16
  -6   7   2    0.62    0.17
  -6   7   2    0.83    0.22
  -6   7   2    0.40    0.19
   5  -7  -2    4.92    0.34
   5  -7  -2    4.82    0.37
  -5   7   2    4.64    0.51
  -5   7   2    4.98    0.32
  -5   7   2    4.68    0.34
  -5   7   2    5.00    0.35
  -5   7   2    4.40    0.31
   4  -7  -2   24.89    1.04
   4  -7  -2   23.48    0.98
  -4   7   2   26.18    1.22
  -4   7   2   24.32    0.97
  -4   7   2   22.01    0.97
  -4   7   2   23.45    0.93
  -4   7   2   23.24    0.98
   3  -7  -2    0.44    0.20
   3  -7  -2    0.02    0.19
  -3   7   2    0.32    0.20
  -3   7   2   -0.38    0.29
  -3   7   2    0.06    0.22
  -3   7   2    0.49    0.20
  -3   7   2    0.28    0.22
  -3   7   2    0.41    0.19
   2  -7  -2    5.26    0.38
   2  -7  -2    5.43    0.37
  -2   7   2    4.83    0.38
  -2   7   2    4.78    0.40
  -2   7   2    5.04    0.35
  -2   7   2    6.28    0.49
  -2   7   2    5.21    0.37
  -2   7   2    5.21    0.27
  -2   7   2    5.03    0.35
   1  -7  -2    0.25    0.20
  -1   7   2    0.16    0.14
  -1   7   2    0.19    0.23
   0  -7  -2   -0.07    0.19
   0   7   2   -0.09    0.23
   0   7   2    0.11    0.15
  -1  -7  -2    3.68    0.34
   1   7   2    4.34    0.39
  -2  -7  -2    5.75    0.40
   2   7   2    4.97    0.42
   2   7   2    5.12    0.42
  -3  -7  -2    4.17    0.38
   3   7   2    3.43    0.36
   3   7   2    4.10    0.42
  -4  -7  -2    2.70    0.30
   4   7   2    2.81    0.36
   4   7   2    2.87    0.36
   5   7   2    1.67    0.35
   9  -8  -2    1.61    0.28
  -9   8   2    1.62    0.27
  -9   8   2    1.10    0.39
   8  -8  -2    0.03    0.23
  -8   8   2    0.18    0.24
  -8   8   2   -0.16    0.36
  -8   8   2   -0.04    0.19
   7  -8  -2    0.64    0.24
  -7   8   2    0.05    0.14
  -7   8   2    0.68    0.33
  -7   8   2    0.31    0.20
  -7   8   2    0.22    0.16
  -7   8   2    0.40    0.24
   6  -8  -2    6.42    0.41
  -6   8   2    5.68    0.40
  -6   8   2    5.03    0.33
  -6   8   2    5.72    0.37
  -6   8   2    5.69    0.34
  -6   8   2    6.28    0.54
   5  -8  -2    0.04    0.21
   5  -8  -2    0.06    0.19
  -5   8   2   -0.05    0.18
  -5   8   2    0.30    0.19
  -5   8   2   -0.17    0.31
  -5   8   2    0.10    0.22
  -5   8   2   -0.02    0.21
   4  -8  -2    5.40    0.41
   4  -8  -2    5.25    0.38
  -4   8   2    5.17    0.37
  -4   8   2    5.53    0.38
  -4   8   2    6.71    0.53
  -4   8   2    5.10    0.36
  -4   8   2    5.12    0.41
   3  -8  -2   11.56    0.59
  -3   8   2   11.85    0.56
  -3   8   2   11.31    0.63
  -3   8   2   13.14    0.74
  -3   8   2   11.60    0.59
   2  -8  -2    3.40    0.30
  -2   8   2    3.17    0.37
  -2   8   2    3.01    0.22
  -2   8   2    3.78    0.37
   1  -8  -2   -0.02    0.21
  -1   8   2    0.03    0.14
  -1   8   2    0.02    0.24
   0  -8  -2    4.53    0.38
   0   8   2    4.22    0.41
   0   8   2    3.89    0.30
  -1  -8  -2    0.33    0.23
   1   8   2    0.56    0.27
  -2  -8  -2    0.88    0.25
   2   8   2    0.99    0.29
  -3  -8  -2    0.12    0.23
   3   8   2   -0.03    0.28
   4   8   2    2.30    0.38
   8  -9  -2    0.43    0.27
  -8   9   2   -0.22    0.36
  -8   9   2   -0.02    0.22
  -8   9   2    0.56    0.27
   7  -9  -2    0.86    0.26
  -7   9   2    0.90    0.24
  -7   9   2    0.81    0.19
  -7   9   2    0.64    0.36
  -7   9   2    0.55    0.18
  -7   9   2    0.65    0.27
   6  -9  -2    2.29    0.29
  -6   9   2    2.43    0.39
  -6   9   2    2.04    0.31
  -6   9   2    1.76    0.23
  -6   9   2    2.02    0.24
  -6   9   2    1.57    0.26
  -5   9   2    3.25    0.31
  -5   9   2    3.59    0.42
  -5   9   2    3.02    0.31
  -5   9   2    3.37    0.33
  -5   9   2    3.40    0.32
   4  -9  -2   -0.05    0.21
  -4   9   2    0.00    0.22
  -4   9   2   -0.02    0.32
   3  -9  -2    0.94    0.24
  -3   9   2    1.43    0.34
  -3   9   2    1.21    0.28
   2  -9  -2    0.29    0.22
  -2   9   2    0.11    0.26
   1  -9  -2    1.67    0.26
  -1   9   2    1.68    0.30
   0  -9  -2    0.34    0.23
   0   9   2   -0.16    0.27
  -1  -9  -2    1.93    0.29
   1   9   2    1.51    0.33
   2   9   2    4.63    0.47
   3   9   2    0.72    0.33
  -7  10   2    0.18    0.38
  -7  10   2    0.47    0.24
  -6  10   2    0.29    0.36
  -6  10   2   -0.21    0.21
  -5  10   2    0.47    0.25
  -5  10   2    0.93    0.36
   4 -10  -2    1.65    0.28
  -4  10   2    2.06    0.38
   3 -10  -2    4.12    0.39
  -3  10   2    4.18    0.42
   2 -10  -2    0.18    0.24
  -2  10   2    0.07    0.28
   1 -10  -2    0.61    0.26
  -1  10   2    0.49    0.29
   0  10   2    0.22    0.30
   1  10   2    2.10    0.38
  -3  11   2    0.71    0.32
  -2  11   2    3.37    0.40
   1 -12   3    0.34    0.27
   2 -12   3    1.31    0.28
  -4  12  -3    0.26    0.24
  -5  12  -3    4.45    0.34
  -5  12  -3    4.76    0.38
  -5  12  -3    5.04    0.50
  -5  12  -3    4.46    0.34
  -6  12  -3   -0.20    0.22
  -6  12  -3   -0.44    0.36
   1  11  -3    0.34    0.28
  -1 -11   3    0.62    0.26
   0  11  -3    0.73    0.27
   0 -11   3    0.66    0.25
  -1  11  -3   -0.04    0.26
   1 -11   3    0.03    0.23
  -2  11  -3    0.26    0.26
   2 -11   3   -0.10    0.21
  -3  11  -3    2.96    0.31
   3 -11   3    2.63    0.29
  -4  11  -3    5.35    0.52
  -4  11  -3    4.70    0.34
  -4  11  -3    5.33    0.37
  -5  11  -3    1.82    0.22
  -5  11  -3    1.85    0.35
  -5  11  -3    1.46    0.21
   5 -11   3    1.66    0.25
  -6  11  -3    2.96    0.28
  -6  11  -3    3.85    0.44
   6 -11   3    3.68    0.36
  -7  11  -3    0.22    0.20
  -7  11  -3    0.01    0.34
  -7  11  -3   -0.05    0.19
   7 -11   3   -0.24    0.21
   8 -11   3    0.58    0.24
   4  10  -3    1.62    0.33
   3  10  -3    0.51    0.27
   3  10  -3    0.00    0.29
   2  10  -3    7.73    0.51
   2  10  -3    7.59    0.50
  -2 -10   3    6.71    0.49
   1  10  -3   15.00    0.73
   1  10  -3   13.87    0.72
  -1 -10   3   14.95    0.72
   0  10  -3   -0.15    0.24
   0 -10   3   -0.10    0.22
  -1  10  -3    2.17    0.29
   1 -10   3    2.31    0.28
  -2  10  -3   -0.18    0.22
  -2  10  -3    0.29    0.23
   2 -10   3   -0.11    0.21
  -3  10  -3    0.57    0.22
  -3  10  -3    0.58    0.23
  -3  10  -3    0.25    0.19
  -3  10  -3    0.26    0.28
   3 -10   3    0.41    0.20
   3 -10   3    0.34    0.22
  -4  10  -3    3.58    0.38
  -4  10  -3    3.59    0.30
  -4  10  -3    3.17    0.28
   4 -10   3    3.59    0.33
  -5  10  -3    1.46    0.33
  -5  10  -3    1.25    0.18
  -5  10  -3    1.20    0.18
  -5  10  -3    1.43    0.23
   5 -10   3    1.07    0.23
  -6  10  -3    0.36    0.19
  -6  10  -3    0.49    0.20
  -6  10  -3    0.09    0.31
   6 -10   3    0.57    0.21
  -7  10  -3    2.18    0.37
  -7  10  -3    2.06    0.21
  -7  10  -3    1.75    0.21
   7 -10   3    1.67    0.24
  -8  10  -3   14.65    0.92
   8 -10   3   15.67    0.71
  -9  10  -3    1.61    0.23
   5   9  -3    2.69    0.37
   5   9  -3    1.94    0.37
   4   9  -3    1.55    0.32
   4   9  -3    1.72    0.32
  -4  -9   3    1.52    0.28
   3   9  -3    0.12    0.25
   3   9  -3   -0.17    0.26
  -3  -9   3    0.05    0.24
   2   9  -3    2.19    0.28
   2   9  -3    2.11    0.30
  -2  -9   3    2.21    0.29
   1   9  -3    0.61    0.21
   1   9  -3    0.59    0.25
   1   9  -3    0.08    0.15
  -1  -9   3    0.07    0.22
   0   9  -3   14.08    0.67
   0   9  -3   13.80    0.67
   0   9  -3   13.70    0.57
   0  -9   3   13.70    0.67
  -1   9  -3    5.32    0.37
  -1   9  -3    5.62    0.40
  -1   9  -3    5.73    0.40
   1  -9   3    5.16    0.38
   1  -9   3    5.47    0.41
  -2   9  -3    2.27    0.23
  -2   9  -3    2.37    0.27
  -2   9  -3    2.66    0.27
  -2   9  -3    2.43    0.25
   2  -9   3    3.00    0.27
   2  -9   3    2.52    0.26
  -3   9  -3    0.75    0.24
  -3   9  -3    0.38    0.19
  -3   9  -3    0.67    0.27
  -3   9  -3    0.54    0.21
  -3   9  -3    0.71    0.22
   3  -9   3    0.55    0.21
   3  -9   3    0.83    0.21
  -4   9  -3    2.77    0.26
  -4   9  -3    3.11    0.27
  -4   9  -3    2.54    0.34
  -4   9  -3    2.55    0.24
   4  -9   3    2.78    0.26
   4  -9   3    2.57    0.25
  -5   9  -3    3.61    0.38
  -5   9  -3    2.39    0.22
  -5   9  -3    3.00    0.25
  -5   9  -3    2.84    0.22
   5  -9   3    2.99    0.30
  -6   9  -3    4.88    0.30
  -6   9  -3    4.19    0.33
  -6   9  -3    3.97    0.42
  -6   9  -3    3.98    0.28
   6  -9   3    4.23    0.32
  -7   9  -3    0.44    0.14
  -7   9  -3    0.14    0.31
  -7   9  -3    0.53    0.19
   7  -9   3    0.19    0.18
  -8   9  -3    2.87    0.28
  -8   9  -3    2.94    0.41
   8  -9   3    3.29    0.28
  -9   9  -3    7.06    0.64
   6   8  -3    0.44    0.31
   5   8  -3    0.08    0.26
   5   8  -3    0.16    0.28
  -5  -8   3   -0.15    0.24
   4   8  -3    0.41    0.25
   4   8  -3    0.30    0.26
  -4  -8   3    0.50    0.25
   3   8  -3   -0.02    0.22
   3   8  -3    0.10    0.24
  -3  -8   3   -0.09    0.22
   2   8  -3    8.85    0.52
   2   8  -3    9.39    0.46
   2   8  -3    9.86    0.53
  -2  -8   3   10.37    0.52
   1   8  -3    7.32    0.45
   1   8  -3    7.26    0.43
   1   8  -3    6.74    0.36
  -1  -8   3    7.46    0.44
   0   8  -3    0.03    0.21
   0   8  -3   -0.06    0.13
   0   8  -3    0.22    0.17
   0   8  -3   -0.09    0.21
   0  -8   3   -0.02    0.20
  -1   8  -3    9.43    0.48
  -1   8  -3   10.04    0.51
  -1   8  -3    9.29    0.49
  -1   8  -3    8.58    0.49
  -1   8  -3   10.47    0.49
   1  -8   3    8.80    0.51
   1  -8   3   10.24    0.46
   1  -8   3    9.23    0.52
  -2   8  -3   27.42    1.09
  -2   8  -3   27.76    1.10
  -2   8  -3   27.40    1.09
  -2   8  -3   26.81    1.16
  -2   8  -3   27.40    1.04
  -2   8  -3   25.98    1.09
  -2   8  -3   27.78    1.30
   2  -8   3   28.17    1.06
   2  -8   3   27.13    1.10
   2  -8   3   27.33    1.17
  -3   8  -3    1.20    0.21
  -3   8  -3    1.10    0.18
  -3   8  -3    1.48    0.28
  -3   8  -3    1.50    0.20
  -3   8  -3    0.81    0.22
  -3   8  -3    1.06    0.22
   3  -8   3    1.44    0.21
   3  -8   3    1.27    0.16
   3  -8   3    1.29    0.20
  -4   8  -3    6.59    0.40
  -4   8  -3    7.07    0.35
  -4   8  -3    6.99    0.53
  -4   8  -3    6.72    0.34
  -4   8  -3    7.43    0.38
   4  -8   3    6.65    0.39
   4  -8   3    7.26    0.40
  -5   8  -3    5.46    0.35
  -5   8  -3    5.04    0.50
  -5   8  -3    5.96    0.32
   5  -8   3    5.51    0.34
  -6   8  -3    4.37    0.31
  -6   8  -3    5.64    0.28
  -6   8  -3    4.42    0.26
  -6   8  -3    5.13    0.50
   6  -8   3    4.67    0.31
  -7   8  -3    7.28    0.57
  -7   8  -3    6.88    0.37
   7  -8   3    7.58    0.39
  -8   8  -3    0.23    0.31
  -9   8  -3    0.02    0.34
   6   7  -3    0.94    0.29
   6   7  -3    1.41    0.32
  -6  -7   3    1.10    0.26
   5   7  -3    3.68    0.36
   5   7  -3    3.52    0.35
  -5  -7   3    4.62    0.40
   4   7  -3    5.08    0.40
   4   7  -3    5.28    0.42
  -4  -7   3    5.03    0.40
   3   7  -3    0.38    0.21
   3   7  -3    0.22    0.22
  -3  -7   3    0.27    0.20
  -3  -7   3    0.31    0.14
   2   7  -3    1.36    0.18
   2   7  -3    0.96    0.22
   2   7  -3    1.31    0.24
  -2  -7   3    1.62    0.22
  -2  -7   3    1.45    0.16
   1   7  -3   10.74    0.55
   1   7  -3   11.02    0.49
   1   7  -3   10.63    0.55
   1   7  -3   12.07    0.56
  -1  -7   3   11.82    0.56
  -1  -7   3   11.89    0.50
   0   7  -3    1.46    0.15
   0   7  -3    1.74    0.22
   0   7  -3    1.29    0.20
   0   7  -3    1.18    0.21
   0   7  -3    1.41    0.22
   0   7  -3    1.49    0.18
   0   7  -3    1.66    0.21
   0  -7   3    1.27    0.20
   0  -7   3    1.58    0.20
   0  -7   3    1.45    0.19
   0  -7   3    1.38    0.15
  -1   7  -3   -0.74    0.17
  -1   7  -3   -0.24    0.18
  -1   7  -3   -0.59    0.18
  -1   7  -3   -0.24    0.17
  -1   7  -3   -0.47    0.15
   1  -7   3   -0.03    0.16
   1  -7   3   -0.19    0.16
   1  -7   3   -0.35    0.12
   1  -7   3   -0.41    0.15
   1  -7   3    0.01    0.15
  -2   7  -3    5.59    0.34
  -2   7  -3    5.91    0.44
  -2   7  -3    6.26    0.32
  -2   7  -3    5.64    0.36
  -2   7  -3    6.05    0.36
  -2   7  -3    5.58    0.33
  -2   7  -3    6.36    0.35
   2  -7   3    6.17    0.35
   2  -7   3    5.39    0.31
   2  -7   3    5.93    0.35
   2  -7   3    6.22    0.36
   2  -7   3    5.86    0.32
  -3   7  -3    3.07    0.30
  -3   7  -3    2.69    0.23
  -3   7  -3    2.54    0.25
  -3   7  -3    2.46    0.21
  -3   7  -3    2.20    0.21
  -3   7  -3    2.66    0.22
   3  -7   3    2.63    0.21
   3  -7   3    2.92    0.26
   3  -7   3    2.61    0.21
   3  -7   3    2.35    0.21
  -4   7  -3    2.19    0.19
  -4   7  -3    2.35    0.20
  -4   7  -3    2.37    0.22
  -4   7  -3    3.15    0.32
  -4   7  -3    2.63    0.21
   4  -7   3    2.70    0.21
   4  -7   3    2.50    0.24
  -5   7  -3    0.97    0.16
  -5   7  -3    0.80    0.17
  -5   7  -3    0.34    0.28
   5  -7   3    0.83    0.15
  -6   7  -3    6.64    0.34
  -6   7  -3    6.85    0.55
  -7   7  -3    1.60    0.33
  -8   7  -3    3.39    0.41
  -9   7  -3    0.05    0.35
 -10   7  -3    0.05    0.38
   7   6  -3    3.68    0.40
  -7  -6   3    4.36    0.40
   6   6  -3    5.17    0.40
   6   6  -3    4.02    0.43
  -6  -6   3    4.54    0.40
   5   6  -3    2.49    0.29
   5   6  -3    2.50    0.31
  -5  -6   3    2.55    0.27
   4   6  -3    0.79    0.23
   4   6  -3    0.96    0.24
  -4  -6   3    0.95    0.22
  -4  -6   3    0.75    0.21
  -4  -6   3    0.92    0.21
   3   6  -3   28.88    1.12
   3   6  -3   28.48    1.16
   3   6  -3   27.24    1.25
  -3  -6   3   28.02    1.16
  -3  -6   3   29.93    1.09
  -3  -6   3   30.44    1.09
  -3  -6   3   28.80    1.14
  -3  -6   3   29.68    1.17
   2   6  -3    1.25    0.21
   2   6  -3    0.84    0.19
   2   6  -3    1.27    0.19
   2   6  -3    0.98    0.15
   2   6  -3    1.37    0.20
   2   6  -3    1.25    0.19
  -2  -6   3    1.27    0.19
  -2  -6   3    1.09    0.19
  -2  -6   3    1.08    0.17
  -2  -6   3    1.22    0.19
  -2  -6   3    1.09    0.13
   1   6  -3   -0.42    0.15
   1   6  -3   -0.65    0.16
   1   6  -3   -0.06    0.16
   1   6  -3    0.09    0.13
   1   6  -3   -0.30    0.11
   1   6  -3   -0.51    0.16
   1   6  -3   -0.30    0.15
  -1  -6   3   -0.28    0.13
  -1  -6   3   -0.13    0.14
  -1  -6   3   -0.31    0.14
  -1  -6   3   -0.11    0.12
  -1  -6   3   -0.23    0.10
   0   6  -3   -0.09    0.13
   0   6  -3    0.01    0.11
   0   6  -3   -0.03    0.14
   0   6  -3   -0.15    0.14
   0   6  -3   -0.01    0.13
   0   6  -3    0.08    0.10
   0  -6   3    0.07    0.10
   0  -6   3    0.13    0.14
   0  -6   3   -0.08    0.12
   0  -6   3    0.01    0.11
   0  -6   3    0.04    0.13
  -1   6  -3   11.43    0.52
  -1   6  -3   12.24    0.52
  -1   6  -3   11.45    0.50
  -1   6  -3   11.79    0.53
  -1   6  -3   11.95    0.52
  -1   6  -3   11.70    0.62
  -1   6  -3   12.14    0.53
   1  -6   3   12.81    0.55
   1  -6   3   11.92    0.49
   1  -6   3   11.42    0.52
   1  -6   3   12.93    0.53
   1  -6   3   11.77    0.51
  -2   6  -3   19.49    0.76
  -2   6  -3   19.90    0.81
  -2   6  -3   19.05    0.81
  -2   6  -3   20.75    0.80
  -2   6  -3   20.82    0.99
  -2   6  -3   21.26    0.81
   2  -6   3   20.83    0.82
   2  -6   3   18.89    0.81
   2  -6   3   20.94    0.82
   2  -6   3   20.92    0.78
   2  -6   3   21.65    0.86
  -3   6  -3    0.10    0.20
  -3   6  -3   -0.33    0.14
  -3   6  -3   -0.49    0.12
   3  -6   3   -0.46    0.11
   3  -6   3   -0.39    0.12
  -4   6  -3    0.09    0.22
  -4   6  -3    0.18    0.12
  -4   6  -3    0.15    0.14
   4  -6   3    0.24    0.12
   4  -6   3    0.11    0.12
   4  -6   3    0.30    0.11
  -5   6  -3   15.39    0.81
  -5   6  -3   14.68    0.59
   5  -6   3   14.43    0.59
  -6   6  -3   -0.35    0.26
  -7   6  -3    4.28    0.42
  -8   6  -3    0.56    0.32
   8  -6   3    0.87    0.23
  -9   6  -3    5.47    0.57
 -10   6  -3    2.74    0.46
   8   5  -3    0.43    0.31
  -8  -5   3    0.20    0.19
   7   5  -3   -0.22    0.26
  -7  -5   3    0.52    0.23
  -7  -5   3    0.19    0.19
  -7  -5   3    0.02    0.23
   6   5  -3    7.06    0.52
   6   5  -3    8.60    0.49
  -6  -5   3    8.08    0.45
  -6  -5   3    8.22    0.47
  -6  -5   3    9.02    0.47
   5   5  -3    5.52    0.39
   5   5  -3    5.91    0.43
  -5  -5   3    5.80    0.38
  -5  -5   3    5.40    0.34
  -5  -5   3    5.38    0.38
  -5  -5   3    5.57    0.37
   4   5  -3    0.35    0.21
   4   5  -3    0.35    0.22
  -4  -5   3    0.07    0.16
  -4  -5   3   -0.06    0.19
  -4  -5   3    0.09    0.18
  -4  -5   3    0.06    0.17
   3   5  -3    3.98    0.26
   3   5  -3    3.41    0.28
   3   5  -3    3.50    0.31
   3   5  -3    3.82    0.32
   3   5  -3    4.27    0.31
   3   5  -3    4.60    0.33
   3   5  -3    3.83    0.32
  -3  -5   3    4.10    0.31
  -3  -5   3    3.74    0.29
  -3  -5   3    4.17    0.24
  -3  -5   3    4.21    0.32
  -3  -5   3    4.19    0.29
   2   5  -3    7.10    0.34
   2   5  -3    7.12    0.41
   2   5  -3    7.38    0.38
   2   5  -3    7.02    0.38
   2   5  -3    7.08    0.39
   2   5  -3    6.97    0.35
  -2  -5   3    7.65    0.38
  -2  -5   3    7.32    0.35
  -2  -5   3    7.47    0.37
  -2  -5   3    7.13    0.38
  -2  -5   3    7.17    0.33
   1   5  -3   14.47    0.56
   1   5  -3   14.74    0.59
   1   5  -3   14.09    0.60
   1   5  -3   13.55    0.55
   1   5  -3   13.89    0.59
   1   5  -3   14.35    0.62
   1   5  -3   14.62    0.60
   1   5  -3   13.88    0.62
  -1  -5   3   14.08    0.56
  -1  -5   3   13.69    0.60
  -1  -5   3   13.74    0.59
  -1  -5   3   13.18    0.58
  -1  -5   3   13.22    0.55
   0   5  -3    3.38    0.24
   0   5  -3    3.47    0.25
   0   5  -3    3.43    0.24
   0   5  -3    3.37    0.20
   0   5  -3    3.75    0.26
   0   5  -3    3.30    0.22
   0  -5   3    3.06    0.25
   0  -5   3    3.20    0.22
   0  -5   3    2.87    0.25
   0  -5   3    3.22    0.25
   0  -5   3    3.32    0.23
  -1   5  -3    2.76    0.23
  -1   5  -3    2.79    0.21
  -1   5  -3    3.14    0.24
  -1   5  -3    3.09    0.32
  -1   5  -3    2.91    0.24
  -1   5  -3    2.82    0.22
   1  -5   3    2.97    0.23
   1  -5   3    3.00    0.20
   1  -5   3    3.10    0.24
   1  -5   3    2.56    0.23
   1  -5   3    2.31    0.23
   1  -5   3    2.91    0.20
  -2   5  -3    1.99    0.19
  -2   5  -3    2.50    0.18
  -2   5  -3    2.24    0.18
  -2   5  -3    2.58    0.21
  -2   5  -3    3.01    0.26
  -2   5  -3    2.13    0.18
   2  -5   3    2.33    0.18
   2  -5   3    2.05    0.16
   2  -5   3    2.35    0.21
   2  -5   3    2.28    0.21
   2  -5   3    2.26    0.20
  -3   5  -3    2.82    0.21
  -3   5  -3    3.20    0.19
  -3   5  -3    3.34    0.28
  -3   5  -3    2.85    0.18
  -3   5  -3    2.89    0.17
  -3   5  -3    2.81    0.19
   3  -5   3    3.28    0.20
   3  -5   3    3.13    0.21
  -4   5  -3   14.78    0.56
  -4   5  -3   14.17    0.75
  -4   5  -3   14.07    0.53
   4  -5   3   14.25    0.56
  -5   5  -3    3.93    0.42
  -6   5  -3    1.37    0.30
  -7   5  -3    3.75    0.41
   7  -5   3    4.53    0.34
  -8   5  -3   -0.40    0.30
   8  -5   3    0.00    0.22
  -9   5  -3    3.16    0.43
   9  -5   3    2.69    0.32
  -9  -4   3    4.81    0.42
   8   4  -3   10.08    0.68
  -8  -4   3   13.30    0.58
  -8  -4   3   11.63    0.59
  -8  -4   3   10.91    0.53
   7   4  -3    1.84    0.32
  -7  -4   3    1.99    0.22
  -7  -4   3    1.95    0.26
  -7  -4   3    1.91    0.25
   6   4  -3   11.80    0.59
   6   4  -3   11.37    0.64
  -6  -4   3   11.61    0.57
  -6  -4   3   12.59    0.56
  -6  -4   3   11.46    0.53
  -6  -4   3   12.27    0.57
   5   4  -3    1.85    0.27
   5   4  -3    1.49    0.23
  -5  -4   3    1.62    0.22
  -5  -4   3    1.70    0.20
  -5  -4   3    1.65    0.20
  -5  -4   3    1.55    0.22
   4   4  -3   15.67    0.68
   4   4  -3   16.75    0.69
   4   4  -3   15.51    0.64
   4   4  -3   15.57    0.75
   4   4  -3   15.76    0.69
  -4  -4   3   16.03    0.68
  -4  -4   3   15.78    0.67
  -4  -4   3   15.11    0.63
  -4  -4   3   16.19    0.68
   3   4  -3    3.65    0.26
   3   4  -3    3.98    0.30
   3   4  -3    3.94    0.27
   3   4  -3    3.82    0.25
   3   4  -3    3.84    0.28
  -3  -4   3    3.34    0.20
  -3  -4   3    3.64    0.28
  -3  -4   3    3.76    0.25
  -3  -4   3    3.61    0.25
  -3  -4   3    3.88    0.28
   2   4  -3   -0.07    0.14
   2   4  -3    0.00    0.13
   2   4  -3   -0.13    0.11
   2   4  -3    0.29    0.14
   2   4  -3    0.18    0.14
   2   4  -3    0.50    0.14
  -2  -4   3   -0.09    0.13
  -2  -4   3   -0.08    0.13
  -2  -4   3   -0.24    0.09
  -2  -4   3    0.06    0.13
  -2  -4   3   -0.03    0.12
   1   4  -3   22.28    0.86
   1   4  -3   21.73    0.94
   1   4  -3   21.82    0.82
   1   4  -3   22.04    0.84
   1   4  -3   22.15    0.93
   1   4  -3   22.58    0.88
   1   4  -3   21.96    0.88
   1   4  -3   22.88    0.88
  -1  -4   3   21.70    0.88
  -1  -4   3   21.23    0.82
  -1  -4   3   23.19    0.84
  -1  -4   3   22.04    0.88
  -1  -4   3   22.17    0.86
   0   4  -3   88.82    3.35
   0   4  -3   87.92    3.35
   0   4  -3   89.88    3.32
   0   4  -3   94.86    3.12
   0   4  -3   84.47    3.65
   0  -4   3   91.84    3.12
   0  -4   3   85.92    3.32
   0  -4   3   89.96    3.99
   0  -4   3   91.81    3.26
   0  -4   3   94.32    3.36
   0  -4   3   90.80    3.26
  -1   4  -3    0.52    0.14
  -1   4  -3    0.65    0.14
  -1   4  -3    0.98    0.13
  -1   4  -3    0.61    0.13
  -1   4  -3    0.70    0.14
   1  -4   3    0.59    0.12
   1  -4   3    0.56    0.14
   1  -4   3    0.45    0.10
   1  -4   3    0.52    0.13
   1  -4   3    0.76    0.13
   1  -4   3    0.63    0.12
  -2   4  -3    4.59    0.24
  -2   4  -3    4.01    0.22
  -2   4  -3    3.87    0.23
  -2   4  -3    3.91    0.26
  -2   4  -3    4.16    0.23
  -2   4  -3    4.31    0.41
   2  -4   3    3.83    0.25
   2  -4   3    4.67    0.25
   2  -4   3    4.21    0.25
   2  -4   3    4.41    0.22
   2  -4   3    4.50    0.25
  -3   4  -3   37.66    1.35
  -3   4  -3   37.09    1.70
  -3   4  -3   36.88    1.29
   3  -4   3   36.71    1.37
   3  -4   3   36.33    1.37
  -4   4  -3    0.22    0.20
  -5   4  -3    3.57    0.40
   5  -4   3    3.34    0.27
  -6   4  -3    0.20    0.27
   6  -4   3    0.39    0.19
  -7   4  -3    1.15    0.32
   7  -4   3    0.95    0.22
  -8   4  -3   -0.19    0.31
   8  -4   3   -0.45    0.22
   9  -4   3    1.14    0.27
  10  -4   3   -0.28    0.27
   9   3  -3    1.13    0.35
  -9  -3   3    1.65    0.27
   8   3  -3    0.30    0.29
  -8  -3   3    0.04    0.21
  -8  -3   3    0.01    0.14
  -8  -3   3   -0.42    0.18
   7   3  -3   33.31    1.53
  -7  -3   3   34.85    1.35
  -7  -3   3   32.50    1.33
  -7  -3   3   33.23    1.27
  -7  -3   3   37.94    1.35
   6   3  -3    6.77    0.40
   6   3  -3    6.25    0.46
  -6  -3   3    6.24    0.36
  -6  -3   3    5.77    0.35
  -6  -3   3    7.33    0.39
  -6  -3   3    6.93    0.39
   5   3  -3   14.38    0.62
   5   3  -3   14.30    0.70
   5   3  -3   14.30    0.58
  -5  -3   3   13.04    0.57
  -5  -3   3   14.41    0.61
  -5  -3   3   13.13    0.60
  -5  -3   3   14.22    0.61
   4   3  -3    6.77    0.33
   4   3  -3    6.70    0.36
   4   3  -3    6.97    0.36
   4   3  -3    7.31    0.41
  -4  -3   3    6.78    0.36
  -4  -3   3    6.49    0.35
  -4  -3   3    6.30    0.36
  -4  -3   3    6.61    0.33
   3   3  -3   42.77    1.53
   3   3  -3   46.07    1.65
   3   3  -3   43.75    1.80
   3   3  -3   41.76    1.63
   3   3  -3   43.91    1.59
  -3  -3   3   43.38    1.58
  -3  -3   3   43.05    1.53
  -3  -3   3   41.69    1.64
  -3  -3   3   41.51    1.63
  -3  -3   3   44.32    1.61
   2   3  -3    0.09    0.13
   2   3  -3    0.03    0.14
   2   3  -3    0.07    0.15
  -2  -3   3    0.09    0.13
  -2  -3   3    0.15    0.13
  -2  -3   3    0.05    0.14
  -2  -3   3   -0.01    0.09
  -2  -3   3    0.08    0.14
   1   3  -3   37.50    1.28
   1   3  -3   35.47    1.36
   1   3  -3   35.28    1.32
   1   3  -3   38.66    1.34
  -1  -3   3   37.31    1.28
  -1  -3   3   37.80    1.36
  -1  -3   3   34.78    1.37
  -1  -3   3   33.87    1.32
  -1  -3   3   35.22    1.33
  -1  -3   3   34.18    1.36
   0   3  -3   14.75    0.52
   0   3  -3   13.11    0.55
   0   3  -3   14.79    0.58
   0   3  -3   14.17    0.56
   0   3  -3   12.85    0.58
   0  -3   3   14.03    0.53
   0  -3   3   13.03    0.54
   0  -3   3   14.56    0.56
   0  -3   3   14.63    0.52
   0  -3   3   13.98    0.56
  -1   3  -3   16.92    0.62
  -1   3  -3   17.44    0.65
  -1   3  -3   17.73    0.65
  -1   3  -3   16.01    0.65
   1  -3   3   17.40    0.61
   1  -3   3   17.85    0.66
   1  -3   3   15.21    0.64
   1  -3   3   17.18    0.66
  -2   3  -3   91.00    3.39
  -2   3  -3   90.63    3.29
  -2   3  -3   93.10    3.36
  -2   3  -3   88.40    3.15
  -2   3  -3   87.93    3.39
   2  -3   3   97.02    3.60
   2  -3   3   93.79    3.15
   2  -3   3   88.69    3.36
   2  -3   3   92.49    3.39
  -3   3  -3    0.79    0.22
   3  -3   3    0.75    0.13
  -4   3  -3   52.04    2.39
   4  -3   3   53.37    2.16
  -5   3  -3   41.45    1.89
   5  -3   3   40.27    1.70
  -6   3  -3    1.41    0.29
   6  -3   3    1.23    0.22
   7  -3   3    5.55    0.41
   8  -3   3    0.10    0.23
   9  -3   3   -0.02    0.26
  10  -3   3    1.49    0.33
   9   2  -3    1.10    0.35
  -9  -2   3    0.53    0.25
   8   2  -3    0.88    0.30
  -8  -2   3    0.43    0.20
  -8  -2   3    0.17    0.17
   7   2  -3   -0.18    0.25
  -7  -2   3   -0.35    0.18
  -7  -2   3   -0.39    0.15
  -7  -2   3   -0.49    0.16
  -7  -2   3   -0.29    0.14
   6   2  -3   37.40    1.64
   6   2  -3   40.61    1.43
   6   2  -3   37.94    1.47
  -6  -2   3   37.29    1.45
  -6  -2   3   37.27    1.47
  -6  -2   3   39.35    1.46
  -6  -2   3   36.94    1.38
   5   2  -3   12.46    0.54
   5   2  -3   11.99    0.50
  -5  -2   3   11.47    0.53
  -5  -2   3   13.51    0.54
  -5  -2   3   11.62    0.53
  -5  -2   3   11.94    0.50
  -5  -2   3   11.36    0.52
   4   2  -3    2.53    0.22
   4   2  -3    2.76    0.19
   4   2  -3    2.39    0.22
  -4  -2   3    2.48    0.19
  -4  -2   3    3.38    0.25
  -4  -2   3    2.35    0.21
  -4  -2   3    2.62    0.23
  -4  -2   3    2.82    0.22
   3   2  -3   -0.20    0.13
   3   2  -3    0.47    0.12
   3   2  -3   -0.22    0.10
   3   2  -3   -0.04    0.13
   3   2  -3   -0.04    0.12
  -3  -2   3    0.04    0.14
  -3  -2   3    0.05    0.13
  -3  -2   3   -0.09    0.13
  -3  -2   3    0.09    0.12
  -3  -2   3   -0.03    0.13
   2   2  -3    3.78    0.24
   2   2  -3    3.17    0.24
   2   2  -3    3.53    0.24
   2   2  -3    3.37    0.26
   2   2  -3    3.62    0.24
  -2  -2   3    3.29    0.20
  -2  -2   3    4.03    0.28
  -2  -2   3    3.74    0.25
  -2  -2   3    3.82    0.24
  -2  -2   3    3.56    0.23
   1   2  -3   87.31    3.27
   1   2  -3   90.71    3.20
   1   2  -3   86.75    3.20
   1   2  -3   92.42    3.06
  -1  -2   3   84.58    3.06
  -1  -2   3   89.37    3.20
  -1  -2   3   94.18    3.27
  -1  -2   3   86.80    3.21
  -1  -2   3   86.84    3.30
   0   2  -3    0.40    0.08
   0   2  -3    0.32    0.07
   0   2  -3    0.29    0.06
   0   2  -3    0.25    0.08
   0   2  -3    0.38    0.08
   0  -2   3    0.39    0.08
   0  -2   3    0.40    0.08
   0  -2   3    0.42    0.07
   0  -2   3    0.39    0.08
  -1   2  -3    7.85    0.32
  -1   2  -3    7.52    0.32
  -1   2  -3    7.45    0.31
  -1   2  -3    8.17    0.32
  -1   2  -3    7.51    0.30
  -1   2  -3    7.91    0.32
   1  -2   3    7.35    0.31
   1  -2   3    8.15    0.32
   1  -2   3    7.71    0.30
   1  -2   3    7.76    0.32
  -2   2  -3    5.45    0.24
  -2   2  -3    5.12    0.24
  -2   2  -3    5.41    0.23
  -2   2  -3    5.37    0.23
   2  -2   3    5.37    0.22
   2  -2   3    5.44    0.24
   2  -2   3    5.73    0.27
   2  -2   3    5.43    0.25
   3  -2   3    9.30    0.44
   4  -2   3    7.47    0.39
   5  -2   3    4.72    0.32
   6  -2   3   12.23    0.61
   7  -2   3    0.29    0.23
   8  -2   3    0.96    0.26
   9  -2   3    0.18    0.26
  10  -2   3   -0.01    0.29
 -10  -1   3   -0.34    0.23
   9   1  -3    1.29    0.33
  -9  -1   3    0.71    0.18
  -9  -1   3    0.74    0.23
   8   1  -3    3.24    0.37
  -8  -1   3    3.52    0.26
  -8  -1   3    3.73    0.31
  -7  -1   3    1.81    0.20
  -7  -1   3    2.23    0.23
  -7  -1   3    2.04    0.19
  -7  -1   3    2.31    0.19
   6   1  -3    7.99    0.41
   6   1  -3    8.58    0.39
  -6  -1   3    7.42    0.39
  -6  -1   3    8.25    0.42
  -6  -1   3    9.01    0.42
  -6  -1   3    8.76    0.40
   5   1  -3    3.23    0.25
   5   1  -3    3.52    0.22
  -5  -1   3    3.63    0.24
  -5  -1   3    3.65    0.26
  -5  -1   3    4.08    0.26
  -5  -1   3    3.31    0.33
  -5  -1   3    3.52    0.26
  -5  -1   3    3.02    0.23
   4   1  -3   18.53    0.73
   4   1  -3   20.47    0.77
   4   1  -3   18.51    0.76
  -4  -1   3   18.62    0.75
  -4  -1   3   19.65    0.77
  -4  -1   3   21.32    0.76
  -4  -1   3   17.88    0.76
  -4  -1   3   19.01    0.72
   3   1  -3    1.60    0.14
   3   1  -3    1.91    0.16
   3   1  -3    1.97    0.18
   3   1  -3    1.92    0.16
   3   1  -3    2.12    0.17
  -3  -1   3    1.71    0.16
  -3  -1   3    2.16    0.17
  -3  -1   3    1.65    0.17
  -3  -1   3    1.72    0.17
   2   1  -3    3.25    0.21
   2   1  -3    2.99    0.21
   2   1  -3    2.95    0.17
   2   1  -3    3.50    0.20
   2   1  -3    3.72    0.20
   2   1  -3    3.17    0.19
  -2  -1   3    3.10    0.22
  -2  -1   3    2.97    0.19
  -2  -1   3    3.32    0.22
  -2  -1   3    3.04    0.17
  -2  -1   3    2.87    0.20
   1   1  -3   76.71    2.85
   1   1  -3   78.05    2.73
   1   1  -3   77.70    2.91
   1   1  -3   78.62    2.85
  -1  -1   3   80.12    2.94
  -1  -1   3   77.38    2.73
  -1  -1   3   83.94    2.91
  -1  -1   3   79.65    2.85
  -1  -1   3   78.95    2.85
   0   1  -3   57.01    2.07
   0   1  -3   55.84    2.25
   0   1  -3   55.57    2.01
   0   1  -3   56.59    1.92
   0   1  -3   53.00    2.05
   0  -1   3   52.83    2.01
   0  -1   3   59.32    2.05
   0  -1   3   57.19    1.92
   0  -1   3   53.26    2.26
   0  -1   3   53.49    2.06
   0  -1   3   55.94    2.01
  -1   1  -3    7.65    0.31
  -1   1  -3    7.36    0.31
  -1   1  -3    8.30    0.34
  -1   1  -3    7.57    0.32
  -1   1  -3    6.82    0.30
  -1   1  -3    7.05    0.30
  -1   1  -3    7.45    0.30
   1  -1   3    7.44    0.29
   1  -1   3    7.56    0.31
   1  -1   3    8.00    0.34
   1  -1   3    6.94    0.30
   1  -1   3    7.91    0.32
  -2   1  -3    5.36    0.25
  -2   1  -3    5.76    0.25
  -2   1  -3    5.28    0.25
  -2   1  -3    5.50    0.27
  -2   1  -3    6.26    0.30
  -2   1  -3    5.79    0.25
  -2   1  -3    5.45    0.25
   2  -1   3    6.15    0.29
   2  -1   3    5.61    0.26
   2  -1   3    5.43    0.26
   2  -1   3    6.12    0.25
   2  -1   3    5.67    0.26
  -3   1  -3    0.20    0.10
  -3   1  -3    0.22    0.09
   3  -1   3    0.03    0.09
   3  -1   3    0.24    0.14
  -4   1  -3   12.27    0.50
  -4   1  -3   12.58    0.49
   4  -1   3   13.74    0.59
  -5   1  -3   11.91    0.48
  -5   1  -3   12.00    0.49
   5  -1   3   12.99    0.60
  -6   1  -3    0.15    0.12
  -6   1  -3    0.39    0.13
   6  -1   3    0.22    0.21
  -7   1  -3   14.65    0.57
  -7   1  -3   13.38    0.57
   7  -1   3   14.30    0.71
  -8   1  -3    5.10    0.29
  -8   1  -3    5.29    0.29
   8  -1   3    5.16    0.42
   8  -1   3    4.64    0.30
   9  -1   3    0.34    0.27
  10   0  -3   -0.07    0.31
 -10   0   3   -0.03    0.22
   9   0  -3    1.48    0.33
  -9   0   3    1.38    0.19
  -9   0   3    1.99    0.24
  -8   0   3    0.50    0.15
  -8   0   3    0.08    0.26
  -8   0   3   -0.08    0.18
  -7   0   3    4.13    0.32
  -7   0   3    4.82    0.43
  -7   0   3    5.17    0.29
  -7   0   3    4.93    0.30
   6   0  -3   13.53    0.58
  -6   0   3   13.20    0.58
  -6   0   3   13.08    0.73
  -6   0   3   13.65    0.54
  -6   0   3   13.46    0.56
  -6   0   3   14.17    0.57
   5   0  -3   44.83    1.71
   5   0  -3   49.34    1.66
  -5   0   3   45.86    1.70
  -5   0   3   44.47    1.72
  -5   0   3   44.66    1.60
  -5   0   3   43.71    2.07
  -5   0   3   45.24    1.68
  -5   0   3   45.18    1.68
   4   0  -3    0.96    0.11
   4   0  -3    1.08    0.14
   4   0  -3    1.10    0.13
  -4   0   3    1.12    0.14
  -4   0   3    0.84    0.14
  -4   0   3    1.05    0.13
  -4   0   3    0.85    0.14
  -4   0   3    1.20    0.13
   3   0  -3    0.17    0.09
   3   0  -3    0.07    0.12
   3   0  -3   -0.06    0.12
   3   0  -3   -0.02    0.13
   3   0  -3    0.16    0.11
  -3   0   3    0.13    0.13
  -3   0   3    0.15    0.12
  -3   0   3    0.11    0.13
  -3   0   3    0.12    0.13
  -3   0   3    0.14    0.13
   2   0  -3    0.90    0.11
   2   0  -3    0.95    0.11
   2   0  -3    0.87    0.11
   2   0  -3    0.82    0.10
   2   0  -3    0.87    0.11
  -2   0   3    1.02    0.11
  -2   0   3    0.84    0.08
  -2   0   3    0.95    0.11
  -2   0   3    0.98    0.11
  -2   0   3    0.81    0.12
  -2   0   3    0.80    0.11
   1   0  -3  413.71   14.87
   1   0  -3  414.11   16.72
   1   0  -3  392.93   14.85
   1   0  -3  423.41   15.19
   1   0  -3  414.02   14.20
  -1   0   3  449.10   15.16
  -1   0   3  428.93   14.23
  -1   0   3  405.99   16.76
  -1   0   3  396.29   14.85
  -1   0   3  410.15   15.30
   0   0  -3   16.69    0.66
   0   0  -3   14.61    0.60
   0   0  -3   15.23    0.59
   0   0  -3   14.27    0.56
   0   0  -3   14.59    0.59
   0   0   3   15.08    0.58
   0   0   3   15.53    0.60
   0   0   3   14.98    0.65
   0   0   3   15.75    0.60
   0   0   3   16.39    0.59
  -1   0  -3  116.45    4.51
  -1   0  -3  116.87    4.42
  -1   0  -3  132.30    4.98
  -1   0  -3  123.95    4.83
  -1   0  -3  124.82    4.42
  -1   0  -3  123.03    4.55
  -1   0  -3  117.06    4.23
   1   0   3  122.86    4.98
   1   0   3  125.34    4.23
   1   0   3  130.60    4.51
   1   0   3  117.03    4.42
   1   0   3  126.08    4.55
  -2   0  -3  137.07    5.05
  -2   0  -3  139.99    5.19
  -2   0  -3  136.39    5.05
  -2   0  -3  140.06    5.15
  -2   0  -3  142.46    5.14
   2   0   3  138.67    5.15
   2   0   3  143.90    4.83
   2   0   3  138.12    5.69
   2   0   3  140.26    5.19
   2   0   3  139.35    5.51
   2   0   3  148.94    5.20
  -3   0  -3    0.55    0.10
  -3   0  -3    0.43    0.10
  -3   0  -3    0.42    0.11
  -3   0  -3    0.54    0.09
  -3   0  -3    0.38    0.09
   3   0   3    0.34    0.11
   3   0   3    0.51    0.15
  -4   0  -3    4.11    0.23
  -4   0  -3    4.41    0.24
   4   0   3    4.13    0.24
   4   0   3    4.98    0.32
  -5   0  -3    4.81    0.28
  -5   0  -3    5.06    0.28
   5   0   3    5.64    0.38
   5   0   3    5.16    0.29
   5   0   3    5.26    0.29
  -6   0  -3    0.05    0.14
  -6   0  -3    0.00    0.15
   6   0   3    0.01    0.13
   6   0   3    0.02    0.22
  -7   0  -3    4.19    0.29
  -7   0  -3    4.46    0.28
   7   0   3    4.06    0.40
   7   0   3    4.23    0.29
  -8   0  -3    3.27    0.27
  -8   0  -3    3.33    0.28
   8   0   3    3.30    0.36
  -9   0  -3   -0.06    0.19
  -9   0  -3   -0.10    0.17
   9   0   3    0.15    0.29
  10  -1  -3    0.84    0.32
 -10   1   3    0.73    0.22
  -9   1   3   -0.04    0.14
  -9   1   3   -0.28    0.27
  -9   1   3    0.07    0.19
  -8   1   3    0.61    0.16
  -8   1   3    0.13    0.18
  -8   1   3    0.41    0.27
  -7   1   3    5.22    0.32
  -7   1   3    5.23    0.29
  -7   1   3    5.03    0.46
   6  -1  -3   19.12    0.77
   6  -1  -3   20.49    0.73
  -6   1   3   18.76    0.76
  -6   1   3   19.74    0.76
  -6   1   3   18.47    0.75
  -6   1   3   17.81    0.75
  -6   1   3   18.48    0.71
  -6   1   3   18.45    0.97
   5  -1  -3   48.18    1.69
   5  -1  -3   45.60    1.74
  -5   1   3   46.94    1.73
  -5   1   3   45.81    1.75
  -5   1   3   47.53    1.63
  -5   1   3   46.68    1.71
  -5   1   3   44.52    2.11
  -5   1   3   45.01    1.71
   4  -1  -3   66.08    2.46
   4  -1  -3   62.91    2.43
   4  -1  -3   66.40    2.38
  -4   1   3   65.10    2.29
  -4   1   3   66.67    2.39
  -4   1   3   66.60    2.43
  -4   1   3   65.32    2.45
  -4   1   3   65.96    2.39
   3  -1  -3   21.95    0.87
   3  -1  -3   21.19    0.87
   3  -1  -3   21.95    0.85
   3  -1  -3   22.47    0.82
  -3   1   3   22.53    0.82
  -3   1   3   22.49    0.86
  -3   1   3   22.45    0.86
  -3   1   3   23.88    0.87
  -3   1   3   21.89    0.87
   2  -1  -3   -0.03    0.10
   2  -1  -3    0.09    0.11
   2  -1  -3   -0.01    0.10
   2  -1  -3    0.31    0.12
  -2   1   3    0.45    0.12
  -2   1   3    0.14    0.11
  -2   1   3   -0.01    0.10
  -2   1   3    0.16    0.12
  -2   1   3    0.00    0.07
  -2   1   3    0.06    0.12
   1  -1  -3    2.90    0.20
   1  -1  -3    3.02    0.21
   1  -1  -3    3.36    0.20
   1  -1  -3    3.33    0.20
  -1   1   3    3.28    0.19
  -1   1   3    2.83    0.19
  -1   1   3    3.49    0.24
  -1   1   3    3.41    0.22
  -1   1   3    3.20    0.20
   0  -1  -3    4.55    0.24
   0  -1  -3    4.85    0.24
   0  -1  -3    5.00    0.26
   0  -1  -3    4.29    0.25
   0   1   3    5.15    0.26
   0   1   3    5.29    0.28
   0   1   3    4.73    0.25
   0   1   3    4.95    0.27
   0   1   3    4.61    0.25
   0   1   3    4.87    0.24
  -1  -1  -3    1.67    0.16
  -1  -1  -3    1.46    0.15
  -1  -1  -3    1.70    0.15
  -1  -1  -3    1.67    0.15
  -1  -1  -3    1.85    0.19
  -1  -1  -3    1.81    0.15
   1   1   3    1.98    0.19
   1   1   3    1.98    0.17
   1   1   3    1.71    0.16
   1   1   3    1.73    0.15
   1   1   3    1.67    0.16
   1   1   3    1.82    0.15
  -2  -1  -3   32.31    1.28
  -2  -1  -3   33.97    1.28
  -2  -1  -3   32.19    1.26
  -2  -1  -3   33.64    1.29
  -2  -1  -3   34.08    1.26
   2   1   3   34.52    1.43
   2   1   3   35.43    1.30
   2   1   3   35.15    1.30
   2   1   3   34.87    1.21
   2   1   3   33.28    1.37
  -3  -1  -3   34.73    1.29
  -3  -1  -3   35.41    1.29
  -3  -1  -3   36.28    1.31
  -3  -1  -3   34.63    1.30
  -3  -1  -3   34.56    1.32
   3   1   3   34.36    1.33
   3   1   3   34.02    1.40
   3   1   3   33.64    1.46
  -4  -1  -3    1.09    0.13
  -4  -1  -3    0.70    0.12
  -4  -1  -3    1.01    0.14
  -4  -1  -3    0.92    0.15
   4   1   3    1.28    0.16
   4   1   3    1.25    0.20
   4   1   3    0.75    0.14
  -5  -1  -3    5.81    0.33
  -5  -1  -3    5.89    0.32
   5   1   3    5.56    0.35
   5   1   3    6.36    0.42
   5   1   3    5.67    0.35
  -6  -1  -3    0.27    0.15
  -6  -1  -3    0.23    0.17
   6   1   3   -0.03    0.15
   6   1   3    0.35    0.24
  -7  -1  -3    0.13    0.18
  -7  -1  -3    0.10    0.16
   7   1   3    0.30    0.26
  -8  -1  -3    1.04    0.20
   8   1   3    0.78    0.30
  -9  -1  -3    0.36    0.21
   9   1   3    0.17    0.33
 -10   2   3    4.39    0.45
 -10   2   3    4.33    0.34
  -9   2   3    7.42    0.41
  -9   2   3    8.19    0.61
  -9   2   3    7.17    0.35
  -8   2   3    3.39    0.36
  -8   2   3    2.85    0.26
  -8   2   3    3.25    0.29
  -8   2   3    3.31    0.24
  -7   2   3    3.28    0.24
  -7   2   3    3.74    0.29
  -7   2   3    2.99    0.35
  -7   2   3    3.34    0.28
   6  -2  -3    4.40    0.29
  -6   2   3    4.05    0.29
  -6   2   3    4.14    0.26
  -6   2   3    4.19    0.24
  -6   2   3    4.43    0.24
  -6   2   3    4.58    0.45
  -6   2   3    3.99    0.30
   5  -2  -3    7.13    0.36
  -5   2   3    7.09    0.37
  -5   2   3    7.22    0.35
  -5   2   3    7.64    0.37
  -5   2   3    7.99    0.36
  -5   2   3    7.30    0.34
  -5   2   3    7.77    0.34
  -5   2   3    7.49    0.50
   4  -2  -3    6.15    0.32
   4  -2  -3    6.77    0.32
  -4   2   3    6.40    0.31
  -4   2   3    6.54    0.33
  -4   2   3    6.34    0.32
  -4   2   3    7.00    0.32
  -4   2   3    6.42    0.31
  -4   2   3    6.42    0.31
   3  -2  -3   83.02    3.02
   3  -2  -3   82.74    2.90
   3  -2  -3   80.58    3.09
   3  -2  -3   86.71    3.12
  -3   2   3   82.42    3.11
  -3   2   3   84.37    3.11
  -3   2   3   87.87    3.09
  -3   2   3   83.73    3.03
  -3   2   3   82.63    2.90
  -3   2   3   81.14    3.03
   2  -2  -3   21.94    0.87
   2  -2  -3   21.42    0.87
   2  -2  -3   22.27    0.85
   2  -2  -3   21.77    0.82
  -2   2   3   22.22    0.88
  -2   2   3   21.89    0.87
  -2   2   3   22.39    0.86
  -2   2   3   22.50    0.97
  -2   2   3   20.90    0.82
  -2   2   3   23.51    0.88
  -2   2   3   22.96    0.83
  -2   2   3   21.96    0.85
   1  -2  -3   10.27    0.46
   1  -2  -3   10.93    0.50
   1  -2  -3   11.29    0.48
   1  -2  -3   11.33    0.49
  -1   2   3   11.44    0.49
  -1   2   3   11.14    0.46
  -1   2   3   11.76    0.50
  -1   2   3   11.71    0.50
  -1   2   3   11.46    0.47
  -1   2   3   12.02    0.52
  -1   2   3   11.35    0.50
  -1   2   3   11.97    0.55
   0  -2  -3    0.01    0.13
   0  -2  -3    0.12    0.13
   0  -2  -3    0.00    0.12
   0  -2  -3    0.05    0.13
   0   2   3    0.11    0.15
   0   2   3    0.17    0.14
   0   2   3    0.50    0.17
   0   2   3    0.17    0.15
  -1  -2  -3    1.21    0.15
  -1  -2  -3    0.94    0.15
  -1  -2  -3    1.00    0.13
  -1  -2  -3    1.19    0.15
  -1  -2  -3    1.35    0.15
   1   2   3    0.94    0.15
   1   2   3    0.97    0.18
   1   2   3    1.35    0.16
   1   2   3    1.18    0.17
   1   2   3    1.25    0.16
   1   2   3    1.17    0.16
  -2  -2  -3   37.05    1.36
  -2  -2  -3   36.66    1.38
  -2  -2  -3   34.82    1.39
  -2  -2  -3   36.12    1.38
  -2  -2  -3   35.97    1.35
   2   2   3   35.91    1.53
   2   2   3   36.39    1.40
   2   2   3   38.79    1.31
   2   2   3   34.70    1.35
   2   2   3   38.81    1.40
   2   2   3   35.05    1.47
  -3  -2  -3   22.70    0.87
  -3  -2  -3   22.10    0.86
  -3  -2  -3   21.40    0.87
  -3  -2  -3   22.39    0.87
  -3  -2  -3   22.05    0.86
   3   2   3   21.92    0.88
   3   2   3   22.58    0.90
   3   2   3   21.53    0.93
   3   2   3   22.08    0.98
   3   2   3   23.54    0.84
  -4  -2  -3    7.91    0.39
  -4  -2  -3    7.81    0.40
  -4  -2  -3    8.27    0.38
  -4  -2  -3    7.42    0.37
   4   2   3    8.14    0.47
   4   2   3    7.89    0.42
   4   2   3    7.43    0.41
  -5  -2  -3    2.76    0.24
  -5  -2  -3    3.22    0.24
  -5  -2  -3    2.80    0.26
   5   2   3    3.14    0.26
   5   2   3    2.47    0.23
   5   2   3    2.95    0.31
  -6  -2  -3    0.74    0.18
  -6  -2  -3    0.36    0.14
  -6  -2  -3    0.47    0.20
   6   2   3    0.47    0.26
  -7  -2  -3    4.10    0.33
   7   2   3    4.17    0.42
  -8  -2  -3    0.46    0.22
   8   2   3    0.48    0.31
 -10   3   3    6.50    0.58
 -10   3   3    4.89    0.36
  -9   3   3   21.26    0.85
  -9   3   3   19.77    0.84
  -9   3   3   23.11    1.18
  -9   3   3   19.50    0.78
  -8   3   3    5.35    0.36
  -8   3   3    5.68    0.50
  -8   3   3    5.56    0.30
  -8   3   3    5.46    0.34
  -7   3   3   -0.09    0.15
  -7   3   3    0.20    0.28
  -7   3   3   -0.11    0.16
  -7   3   3   -0.19    0.16
   6  -3  -3    9.57    0.46
  -6   3   3   10.28    0.47
  -6   3   3    9.64    0.42
  -6   3   3   10.39    0.46
  -6   3   3    9.75    0.43
  -6   3   3    9.30    0.43
  -6   3   3   10.01    0.64
   5  -3  -3    5.95    0.32
  -5   3   3    6.20    0.31
  -5   3   3    5.67    0.32
  -5   3   3    5.56    0.48
  -5   3   3    5.92    0.30
  -5   3   3    5.96    0.30
  -5   3   3    5.51    0.30
  -5   3   3    5.81    0.33
   4  -3  -3    5.33    0.29
   4  -3  -3    5.03    0.29
  -4   3   3    5.56    0.31
  -4   3   3    5.16    0.28
  -4   3   3    5.20    0.29
  -4   3   3    4.91    0.28
  -4   3   3    5.64    0.28
  -4   3   3    5.41    0.29
   3  -3  -3    1.38    0.15
   3  -3  -3    1.69    0.15
   3  -3  -3    1.22    0.15
  -3   3   3    1.38    0.16
  -3   3   3    1.43    0.16
  -3   3   3    1.33    0.15
  -3   3   3    1.46    0.16
  -3   3   3    1.27    0.15
  -3   3   3    1.67    0.16
   2  -3  -3   22.64    0.86
   2  -3  -3   21.18    0.84
   2  -3  -3   19.52    0.85
  -2   3   3   21.95    0.86
  -2   3   3   21.99    0.84
  -2   3   3   21.94    0.81
  -2   3   3   21.55    0.81
  -2   3   3   22.70    0.95
  -2   3   3   21.02    0.86
   1  -3  -3    2.22    0.18
   1  -3  -3    2.09    0.17
   1  -3  -3    1.98    0.18
   1  -3  -3    2.15    0.18
  -1   3   3    2.16    0.19
  -1   3   3    2.21    0.21
  -1   3   3    2.06    0.19
  -1   3   3    1.79    0.19
  -1   3   3    2.36    0.19
  -1   3   3    2.07    0.18
  -1   3   3    2.07    0.18
   0  -3  -3   15.05    0.59
   0  -3  -3   14.49    0.60
   0  -3  -3   13.75    0.59
   0  -3  -3   13.74    0.58
   0  -3  -3   13.39    0.59
   0   3   3   13.80    0.59
   0   3   3   14.02    0.60
   0   3   3   14.89    0.66
   0   3   3   13.65    0.57
   0   3   3   15.00    0.60
  -1  -3  -3   15.65    0.66
  -1  -3  -3   14.93    0.68
  -1  -3  -3   15.67    0.64
  -1  -3  -3   15.11    0.65
  -1  -3  -3   15.16    0.64
   1   3   3   15.98    0.72
   1   3   3   15.83    0.62
   1   3   3   16.43    0.66
   1   3   3   16.47    0.64
   1   3   3   16.19    0.69
   1   3   3   15.81    0.66
  -2  -3  -3    3.02    0.24
  -2  -3  -3    2.95    0.25
  -2  -3  -3    2.58    0.24
  -2  -3  -3    2.91    0.22
  -2  -3  -3    2.94    0.24
   2   3   3    2.63    0.21
   2   3   3    2.81    0.26
   2   3   3    2.76    0.22
   2   3   3    3.00    0.25
   2   3   3    2.80    0.25
   2   3   3    3.34    0.29
   2   3   3    3.01    0.25
  -3  -3  -3    5.70    0.34
  -3  -3  -3    5.80    0.33
  -3  -3  -3    5.78    0.34
  -3  -3  -3    5.67    0.34
  -3  -3  -3    5.42    0.31
   3   3   3    5.55    0.37
   3   3   3    5.85    0.35
   3   3   3    6.22    0.41
   3   3   3    6.15    0.36
   3   3   3    5.93    0.32
   3   3   3    5.59    0.37
  -4  -3  -3   15.39    0.66
  -4  -3  -3   14.62    0.65
  -4  -3  -3   16.54    0.66
  -4  -3  -3   15.61    0.66
   4   3   3   15.35    0.76
   4   3   3   15.78    0.69
  -5  -3  -3    3.50    0.31
  -5  -3  -3    3.82    0.28
   5   3   3    3.43    0.34
   5   3   3    3.40    0.30
  -6  -3  -3    2.07    0.20
  -6  -3  -3    1.86    0.24
   6   3   3    1.31    0.30
  -7  -3  -3    0.10    0.22
   7   3   3    0.13    0.29
  -8  -3  -3    2.15    0.29
 -10   4   3   -0.09    0.20
 -10   4   3   -0.31    0.35
  -9   4   3    1.25    0.18
  -9   4   3    1.66    0.36
  -9   4   3    1.20    0.22
  -9   4   3    1.11    0.23
  -8   4   3   10.99    0.71
  -8   4   3   11.39    0.52
  -8   4   3   11.44    0.54
  -8   4   3   11.69    0.49
  -7   4   3   -0.17    0.30
  -7   4   3    0.05    0.17
  -7   4   3   -0.01    0.16
  -7   4   3    0.17    0.18
   6  -4  -3   11.34    0.53
  -6   4   3   11.31    0.72
  -6   4   3   11.60    0.50
  -6   4   3   12.17    0.53
  -6   4   3   12.62    0.51
  -6   4   3   12.03    0.54
  -6   4   3   11.98    0.51
   5  -4  -3    0.53    0.17
  -5   4   3    0.80    0.15
  -5   4   3    0.81    0.17
  -5   4   3    0.95    0.26
  -5   4   3    0.61    0.17
  -5   4   3    0.95    0.18
  -5   4   3    0.86    0.16
   4  -4  -3    4.09    0.28
   4  -4  -3    3.91    0.27
  -4   4   3    3.59    0.28
  -4   4   3    3.99    0.26
  -4   4   3    4.05    0.29
  -4   4   3    3.75    0.25
  -4   4   3    3.76    0.26
  -4   4   3    3.44    0.41
   3  -4  -3    6.95    0.37
   3  -4  -3    8.39    0.39
  -3   4   3    7.46    0.36
  -3   4   3    7.41    0.38
  -3   4   3    8.10    0.40
  -3   4   3    7.96    0.44
  -3   4   3    7.80    0.38
  -3   4   3    7.26    0.38
   2  -4  -3    7.58    0.39
   2  -4  -3    7.09    0.37
   2  -4  -3    7.15    0.37
   2  -4  -3    7.87    0.39
   2  -4  -3    7.56    0.38
  -2   4   3    7.73    0.38
  -2   4   3    8.04    0.43
  -2   4   3    7.41    0.36
  -2   4   3    7.48    0.33
  -2   4   3    7.33    0.38
  -2   4   3    7.54    0.38
   1  -4  -3    3.74    0.27
   1  -4  -3    3.48    0.26
   1  -4  -3    3.57    0.27
   1  -4  -3    3.47    0.26
  -1   4   3    3.71    0.22
  -1   4   3    3.82    0.26
  -1   4   3    4.21    0.28
  -1   4   3    3.66    0.26
  -1   4   3    3.99    0.30
  -1   4   3    3.81    0.29
  -1   4   3    3.92    0.26
   0  -4  -3    0.68    0.15
   0  -4  -3    0.46    0.14
   0  -4  -3    0.50    0.13
   0  -4  -3    0.30    0.14
   0  -4  -3    0.60    0.13
   0   4   3    0.36    0.15
   0   4   3    0.44    0.15
   0   4   3    0.38    0.11
   0   4   3    0.73    0.18
   0   4   3    0.36    0.15
  -1  -4  -3    8.97    0.45
  -1  -4  -3    9.61    0.46
  -1  -4  -3    9.47    0.45
  -1  -4  -3    9.08    0.43
  -1  -4  -3    9.65    0.46
   1   4   3    9.00    0.47
   1   4   3    8.85    0.43
   1   4   3    8.36    0.41
   1   4   3    9.13    0.45
   1   4   3    8.60    0.46
   1   4   3    8.94    0.45
   1   4   3    9.59    0.49
  -2  -4  -3    7.71    0.41
  -2  -4  -3    7.97    0.41
  -2  -4  -3    7.60    0.39
  -2  -4  -3    7.58    0.41
   2   4   3    7.03    0.46
   2   4   3    7.15    0.41
   2   4   3    7.37    0.40
   2   4   3    7.18    0.42
  -3  -4  -3    0.17    0.18
  -3  -4  -3    0.53    0.16
  -3  -4  -3    0.29    0.18
  -3  -4  -3    0.40    0.18
   3   4   3    0.25    0.23
   3   4   3    0.28    0.22
  -4  -4  -3   12.75    0.57
  -4  -4  -3   12.52    0.57
  -4  -4  -3   12.08    0.57
  -4  -4  -3   11.72    0.56
   4   4   3   11.80    0.65
   4   4   3   12.46    0.61
  -5  -4  -3    1.64    0.24
  -5  -4  -3    1.88    0.22
   5   4   3    1.47    0.30
   5   4   3    1.62    0.28
  -6  -4  -3    3.83    0.31
  -6  -4  -3    4.47    0.36
   6   4   3    3.73    0.39
  -7  -4  -3    0.51    0.25
   7   4   3    0.03    0.30
 -10   5   3    1.70    0.24
 -10   5   3    1.50    0.42
  -9   5   3    0.21    0.33
  -9   5   3    0.34    0.21
  -9   5   3    0.14    0.16
  -8   5   3    3.72    0.28
  -8   5   3    3.86    0.42
  -8   5   3    3.94    0.32
  -8   5   3    4.26    0.34
  -7   5   3    2.59    0.36
  -7   5   3    2.21    0.24
  -7   5   3    2.27    0.24
  -7   5   3    1.96    0.22
   6  -5  -3    5.86    0.35
  -6   5   3    5.59    0.31
  -6   5   3    5.31    0.33
  -6   5   3    5.46    0.31
  -6   5   3    5.94    0.35
  -6   5   3    5.75    0.39
  -6   5   3    5.29    0.54
   5  -5  -3    7.41    0.40
  -5   5   3    7.32    0.41
  -5   5   3    7.59    0.59
  -5   5   3    8.13    0.43
  -5   5   3    7.54    0.39
  -5   5   3    7.53    0.39
  -5   5   3    7.30    0.38
   4  -5  -3    0.01    0.16
  -4   5   3   -0.24    0.15
  -4   5   3    0.14    0.17
  -4   5   3   -0.16    0.18
  -4   5   3    0.02    0.24
  -4   5   3   -0.13    0.18
  -4   5   3    0.04    0.16
   3  -5  -3    6.72    0.39
   3  -5  -3    6.62    0.37
   3  -5  -3    6.41    0.37
  -3   5   3    6.36    0.36
  -3   5   3    6.64    0.40
  -3   5   3    5.99    0.42
  -3   5   3    6.46    0.36
  -3   5   3    6.51    0.37
  -3   5   3    6.46    0.37
   2  -5  -3   17.09    0.71
   2  -5  -3   16.68    0.73
   2  -5  -3   16.00    0.72
   2  -5  -3   17.92    0.73
   2  -5  -3   17.19    0.76
  -2   5   3   16.41    0.72
  -2   5   3   15.57    0.68
  -2   5   3   16.94    0.73
  -2   5   3   18.31    0.80
  -2   5   3   16.90    0.66
  -2   5   3   17.38    0.71
   1  -5  -3   10.74    0.50
   1  -5  -3   10.72    0.51
   1  -5  -3   10.57    0.53
   1  -5  -3   10.77    0.50
  -1   5   3   10.41    0.51
  -1   5   3   10.79    0.56
  -1   5   3   10.35    0.46
  -1   5   3   10.08    0.48
  -1   5   3   10.94    0.51
   0  -5  -3    4.93    0.33
   0  -5  -3    4.50    0.31
   0  -5  -3    5.09    0.35
   0  -5  -3    4.97    0.34
   0   5   3    4.81    0.34
   0   5   3    4.86    0.32
   0   5   3    5.52    0.38
   0   5   3    4.69    0.34
   0   5   3    4.80    0.29
   0   5   3    5.11    0.34
  -1  -5  -3    6.71    0.41
  -1  -5  -3    7.92    0.42
  -1  -5  -3    7.16    0.42
  -1  -5  -3    7.26    0.39
   1   5   3    7.46    0.46
   1   5   3    7.31    0.37
  -2  -5  -3    2.85    0.27
  -2  -5  -3    2.59    0.25
  -2  -5  -3    3.07    0.29
  -2  -5  -3    2.84    0.25
   2   5   3    2.90    0.31
  -3  -5  -3    8.45    0.45
  -3  -5  -3    8.20    0.44
  -3  -5  -3    7.90    0.45
  -3  -5  -3    8.19    0.45
   3   5   3    7.55    0.50
  -4  -5  -3    1.75    0.22
  -4  -5  -3    1.12    0.21
  -4  -5  -3    1.17    0.24
  -4  -5  -3    1.50    0.22
   4   5   3    1.35    0.29
  -5  -5  -3    0.67    0.21
   5   5   3    0.79    0.30
  -6  -5  -3    5.68    0.39
   6   5   3    5.16    0.49
 -10   6   3    0.71    0.24
  -9   6   3    1.16    0.36
  -9   6   3    0.99    0.19
  -9   6   3    0.39    0.22
  -8   6   3    2.60    0.39
  -8   6   3    2.97    0.26
  -8   6   3    2.43    0.27
  -7   6   3   13.38    0.77
  -7   6   3   11.97    0.54
  -7   6   3   11.34    0.52
  -7   6   3   12.27    0.53
  -7   6   3   12.96    0.58
   6  -6  -3    0.68    0.20
  -6   6   3    0.81    0.18
  -6   6   3    0.60    0.20
  -6   6   3    0.84    0.34
  -6   6   3    0.78    0.18
  -6   6   3    0.75    0.22
   5  -6  -3    0.29    0.18
  -5   6   3    0.34    0.21
  -5   6   3   -0.12    0.31
  -5   6   3    0.02    0.19
  -5   6   3    0.27    0.18
  -5   6   3    0.12    0.17
   4  -6  -3    3.06    0.31
   4  -6  -3    3.12    0.30
  -4   6   3    3.17    0.37
  -4   6   3    2.82    0.27
  -4   6   3    2.86    0.28
  -4   6   3    2.39    0.26
  -4   6   3    3.34    0.29
   3  -6  -3    6.63    0.40
   3  -6  -3    6.63    0.39
  -3   6   3    6.79    0.40
  -3   6   3    6.69    0.39
  -3   6   3    6.08    0.38
  -3   6   3    7.07    0.53
  -3   6   3    6.96    0.45
  -3   6   3    6.09    0.38
   2  -6  -3    4.51    0.34
   2  -6  -3    4.73    0.37
  -2   6   3    4.79    0.34
  -2   6   3    4.67    0.39
  -2   6   3    4.78    0.27
  -2   6   3    4.95    0.36
  -2   6   3    4.46    0.34
  -2   6   3    5.13    0.35
   1  -6  -3    2.58    0.25
  -1   6   3    2.45    0.27
  -1   6   3    2.64    0.26
  -1   6   3    2.58    0.29
  -1   6   3    2.50    0.26
  -1   6   3    2.63    0.24
   0  -6  -3    8.24    0.47
   0   6   3    9.18    0.44
   0   6   3    8.75    0.52
  -1  -6  -3    0.96    0.21
   1   6   3    0.74    0.25
  -2  -6  -3    4.05    0.35
   2   6   3    3.55    0.37
  -3  -6  -3    0.22    0.21
   3   6   3   -0.30    0.26
  -4  -6  -3    6.02    0.41
   4   6   3    6.02    0.48
  -5  -6  -3    0.74    0.24
   5   6   3    0.67    0.31
  -9   7   3    1.73    0.39
  -9   7   3    1.66    0.22
  -9   7   3    1.55    0.26
  -8   7   3    0.62    0.21
  -8   7   3    0.72    0.24
  -8   7   3    0.67    0.33
  -7   7   3    7.41    0.38
  -7   7   3    8.47    0.62
  -7   7   3    7.63    0.39
  -7   7   3    8.04    0.46
  -7   7   3    8.03    0.42
   6  -7  -3    1.68    0.26
  -6   7   3    1.46    0.26
  -6   7   3    1.72    0.24
  -6   7   3    1.76    0.36
  -6   7   3    1.40    0.20
  -6   7   3    1.51    0.21
   5  -7  -3    0.83    0.23
   5  -7  -3    0.48    0.21
  -5   7   3    0.50    0.22
  -5   7   3    0.93    0.35
  -5   7   3    0.31    0.20
  -5   7   3    0.47    0.24
  -5   7   3    0.47    0.20
   4  -7  -3    5.57    0.39
   4  -7  -3    5.65    0.41
  -4   7   3    6.17    0.39
  -4   7   3    7.00    0.57
  -4   7   3    6.30    0.40
  -4   7   3    6.05    0.38
  -4   7   3    6.74    0.42
   3  -7  -3    2.24    0.25
   3  -7  -3    2.42    0.27
  -3   7   3    2.52    0.27
  -3   7   3    2.10    0.27
  -3   7   3    2.42    0.37
  -3   7   3    2.11    0.29
  -3   7   3    2.48    0.26
   2  -7  -3    4.73    0.36
  -2   7   3    5.46    0.49
  -2   7   3    4.45    0.27
  -2   7   3    4.51    0.40
   1  -7  -3    3.95    0.36
  -1   7   3    4.65    0.41
  -1   7   3    5.24    0.45
  -1   7   3    4.55    0.30
   0  -7  -3    3.36    0.30
   0   7   3    3.03    0.34
   0   7   3    3.51    0.30
  -1  -7  -3    2.67    0.28
   1   7   3    2.42    0.32
  -2  -7  -3    0.59    0.23
   2   7   3    0.90    0.29
  -3  -7  -3    0.47    0.23
   3   7   3    0.84    0.30
  -4  -7  -3    1.16    0.25
   4   7   3    0.86    0.32
   9  -8  -3    1.83    0.30
  -9   8   3    1.27    0.29
   8  -8  -3    1.82    0.30
  -8   8   3    1.03    0.24
  -8   8   3    1.44    0.38
  -8   8   3    1.34    0.28
   7  -8  -3    0.08    0.24
  -7   8   3    0.40    0.35
  -7   8   3   -0.15    0.17
  -7   8   3    0.14    0.26
  -7   8   3    0.16    0.17
  -7   8   3    0.21    0.22
   6  -8  -3   -0.12    0.22
  -6   8   3    0.28    0.21
  -6   8   3    0.36    0.25
  -6   8   3    0.37    0.19
  -6   8   3   -0.20    0.34
  -6   8   3    0.13    0.19
   5  -8  -3    1.09    0.24
   5  -8  -3    2.08    0.27
  -5   8   3    1.38    0.26
  -5   8   3    1.13    0.23
  -5   8   3    1.25    0.28
  -5   8   3    1.38    0.36
  -5   8   3    1.07    0.23
   4  -8  -3    7.09    0.45
  -4   8   3    7.37    0.50
  -4   8   3    6.73    0.44
  -4   8   3    7.65    0.61
   3  -8  -3    0.12    0.21
  -3   8   3    0.08    0.32
  -3   8   3    0.15    0.25
   2  -8  -3    0.22    0.21
  -2   8   3    0.59    0.26
   1  -8  -3    0.49    0.22
  -1   8   3    1.03    0.27
  -1   8   3    0.74    0.16
   0  -8  -3    1.20    0.25
   0   8   3    1.43    0.29
  -1  -8  -3    9.49    0.56
   1   8   3   10.51    0.62
  -2  -8  -3   -0.04    0.22
   2   8   3   -0.11    0.28
   3   8   3   -0.12    0.29
  -8   9   3    2.18    0.29
  -8   9   3    1.68    0.32
  -7   9   3    0.17    0.35
  -7   9   3   -0.05    0.19
  -7   9   3   -0.07    0.19
  -7   9   3   -0.08    0.23
  -7   9   3    0.12    0.28
  -6   9   3    0.17    0.35
  -6   9   3    0.40    0.22
  -6   9   3   -0.17    0.24
  -5   9   3    0.30    0.23
  -5   9   3   -0.03    0.35
   4  -9  -3    1.02    0.24
  -4   9   3    1.36    0.31
  -4   9   3    0.59    0.35
   3  -9  -3    0.18    0.22
  -3   9   3   -0.13    0.33
  -3   9   3    0.22    0.26
   2  -9  -3    0.37    0.23
  -2   9   3    0.00    0.28
   1  -9  -3    0.87    0.25
  -1   9   3    1.08    0.29
   0  -9  -3    0.83    0.25
   0   9   3    0.57    0.31
   1   9   3    2.32    0.37
   2   9   3    3.75    0.43
  -6  10   3   -0.09    0.38
  -6  10   3   -0.34    0.24
  -5  10   3    3.73    0.47
   4 -10  -3    0.84    0.27
  -4  10   3    1.26    0.38
   3 -10  -3    4.32    0.42
  -3  10   3    4.76    0.46
   2 -10  -3    0.82    0.27
  -2  10   3    0.74    0.32
  -1  10   3    0.75    0.33
   0  10   3    0.21    0.32
   1 -12   4    1.31    0.28
  -2  12  -4    4.64    0.43
   2 -12   4    4.72    0.42
  -4  12  -4    4.73    0.36
  -5  12  -4   -0.34    0.38
  -5  12  -4   -0.33    0.18
  -5  12  -4    0.24    0.19
  -6  12  -4   -0.35    0.21
  -6  12  -4   -0.19    0.40
   6 -12   4    0.13    0.25
   1  11  -4    0.54    0.27
  -1 -11   4   -0.27    0.25
   0  11  -4    3.52    0.35
   0 -11   4    3.56    0.34
  -1  11  -4    4.91    0.42
   1 -11   4    5.53    0.43
  -2  11  -4    0.10    0.24
   2 -11   4   -0.06    0.22
  -3  11  -4    7.48    0.45
  -3  11  -4    6.47    0.43
   3 -11   4    6.44    0.46
  -4  11  -4   -0.40    0.19
  -4  11  -4   -0.31    0.18
  -4  11  -4   -0.66    0.32
   4 -11   4   -0.11    0.21
  -5  11  -4    4.24    0.28
  -5  11  -4    3.70    0.28
  -5  11  -4    4.58    0.53
   5 -11   4    4.12    0.36
  -6  11  -4    7.27    0.63
  -6  11  -4    6.72    0.38
   6 -11   4    6.74    0.43
  -7  11  -4   -0.43    0.38
  -7  11  -4    0.19    0.19
  -7  11  -4    0.32    0.18
   7 -11   4    0.07    0.22
   8 -11   4    0.44    0.23
   3  10  -4    2.09    0.35
  -3 -10   4    2.17    0.32
   2  10  -4    4.15    0.38
  -2 -10   4    4.80    0.43
   1  10  -4    8.77    0.53
  -1 -10   4    8.48    0.54
   0  10  -4    0.94    0.26
   0 -10   4    1.32    0.25
  -1  10  -4    3.99    0.38
   1 -10   4    4.12    0.39
  -2  10  -4   15.13    0.69
  -2  10  -4   15.42    0.68
   2 -10   4   13.83    0.69
  -3  10  -4    4.52    0.34
  -3  10  -4    5.26    0.37
  -3  10  -4    4.47    0.49
  -3  10  -4    4.12    0.32
   3 -10   4    4.25    0.38
   3 -10   4    5.18    0.39
  -4  10  -4   -0.38    0.31
  -4  10  -4   -0.14    0.16
  -4  10  -4   -0.28    0.17
   4 -10   4   -0.34    0.21
  -5  10  -4    1.70    0.23
  -5  10  -4    1.75    0.18
  -5  10  -4    1.43    0.17
  -5  10  -4    1.63    0.36
   5 -10   4    1.54    0.22
  -6  10  -4   14.98    0.61
  -6  10  -4   14.75    0.86
  -6  10  -4   14.10    0.60
   6 -10   4   14.57    0.69
  -7  10  -4    1.01    0.17
  -7  10  -4    0.55    0.22
  -7  10  -4    1.48    0.39
   7 -10   4    1.09    0.22
  -8  10  -4   -0.57    0.21
  -8  10  -4   -0.34    0.37
   8 -10   4   -0.50    0.20
   5   9  -4    0.58    0.30
   5   9  -4    0.64    0.31
   4   9  -4    0.28    0.28
   4   9  -4   -0.11    0.25
  -4  -9   4    0.40    0.25
   3   9  -4   12.97    0.70
   3   9  -4   14.35    0.70
  -3  -9   4   14.04    0.69
   2   9  -4    0.36    0.24
   2   9  -4    0.18    0.22
  -2  -9   4   -0.07    0.22
   1   9  -4   14.08    0.68
   1   9  -4   14.37    0.61
   1   9  -4   14.52    0.69
  -1  -9   4   14.09    0.68
   0   9  -4   30.96    1.29
   0   9  -4   31.90    1.37
   0  -9   4   33.62    1.30
  -1   9  -4    0.10    0.22
  -1   9  -4   -0.55    0.18
  -1   9  -4   -0.24    0.20
   1  -9   4    0.16    0.20
  -2   9  -4    1.58    0.23
  -2   9  -4    1.74    0.24
  -2   9  -4    1.43    0.23
   2  -9   4    1.38    0.23
   2  -9   4    1.62    0.23
  -3   9  -4   27.60    1.06
  -3   9  -4   25.82    1.30
  -3   9  -4   26.95    1.07
  -3   9  -4   24.74    1.06
  -3   9  -4   26.18    1.01
   3  -9   4   27.10    1.14
   3  -9   4   27.39    1.08
  -4   9  -4    1.31    0.33
  -4   9  -4    0.84    0.18
  -4   9  -4    1.14    0.21
  -4   9  -4    0.77    0.17
  -4   9  -4    0.92    0.23
   4  -9   4    1.37    0.21
   4  -9   4    0.82    0.20
  -5   9  -4    5.07    0.32
  -5   9  -4    5.01    0.35
  -5   9  -4    4.42    0.50
   5  -9   4    4.66    0.34
  -6   9  -4    0.07    0.16
  -6   9  -4   -0.07    0.19
  -6   9  -4    0.02    0.15
  -6   9  -4    0.19    0.32
   6  -9   4    0.29    0.18
  -7   9  -4    3.85    0.30
  -7   9  -4    3.73    0.45
   7  -9   4    3.81    0.30
  -8   9  -4   -0.28    0.34
  -9   9  -4    1.14    0.42
   6   8  -4    0.11    0.30
   6   8  -4    0.96    0.31
   5   8  -4    4.77    0.45
   5   8  -4    5.27    0.46
  -5  -8   4    5.68    0.45
   4   8  -4    0.26    0.25
   4   8  -4    0.58    0.25
  -4  -8   4    0.61    0.24
   3   8  -4    4.03    0.37
   3   8  -4    4.67    0.38
  -3  -8   4    4.33    0.38
   2   8  -4   -0.47    0.16
   2   8  -4    0.10    0.20
   2   8  -4   -0.19    0.23
  -2  -8   4   -0.06    0.21
   1   8  -4    0.46    0.23
   1   8  -4    0.28    0.15
   1   8  -4    0.31    0.19
  -1  -8   4    0.38    0.21
   0   8  -4    5.39    0.37
   0   8  -4    5.23    0.33
   0   8  -4    5.38    0.38
   0   8  -4    4.73    0.35
   0  -8   4    4.75    0.39
  -1   8  -4   22.82    0.92
  -1   8  -4   21.99    0.92
  -1   8  -4   22.07    0.95
  -1   8  -4   21.57    0.87
  -1   8  -4   22.99    0.93
   1  -8   4   23.39    0.89
   1  -8   4   21.20    0.92
  -2   8  -4    0.19    0.20
  -2   8  -4    0.04    0.18
  -2   8  -4   -0.28    0.22
  -2   8  -4   -0.27    0.20
  -2   8  -4    0.10    0.20
   2  -8   4    0.39    0.19
   2  -8   4    0.43    0.19
   2  -8   4    0.02    0.15
  -3   8  -4    2.03    0.21
  -3   8  -4    1.78    0.24
  -3   8  -4    2.08    0.22
  -3   8  -4    1.99    0.32
  -3   8  -4    1.95    0.20
  -3   8  -4    1.80    0.20
   3  -8   4    2.01    0.23
   3  -8   4    2.17    0.21
  -4   8  -4   18.03    0.96
  -4   8  -4   18.97    0.71
  -4   8  -4   18.78    0.75
  -4   8  -4   17.06    0.72
  -4   8  -4   17.52    0.73
   4  -8   4   18.24    0.79
   4  -8   4   18.51    0.76
  -5   8  -4    5.44    0.31
  -5   8  -4    5.16    0.52
  -5   8  -4    5.46    0.33
   5  -8   4    5.65    0.34
  -6   8  -4   -0.53    0.29
  -6   8  -4   -0.56    0.16
   6  -8   4   -0.06    0.15
  -7   8  -4    0.29    0.16
  -7   8  -4    0.48    0.33
  -8   8  -4    7.34    0.63
  -9   8  -4    5.89    0.62
   7   7  -4    4.94    0.50
   6   7  -4    2.35    0.31
   6   7  -4    2.64    0.34
  -6  -7   4    2.51    0.31
   5   7  -4    1.89    0.30
   5   7  -4    1.94    0.29
  -5  -7   4    2.25    0.28
   4   7  -4    0.94    0.25
   4   7  -4    0.92    0.26
  -4  -7   4    0.86    0.24
   3   7  -4   -0.35    0.21
   3   7  -4   -0.35    0.19
  -3  -7   4   -0.27    0.19
  -3  -7   4    0.07    0.13
   2   7  -4   10.05    0.46
   2   7  -4   10.49    0.52
   2   7  -4    9.48    0.52
  -2  -7   4    9.79    0.51
  -2  -7   4   10.45    0.46
   1   7  -4    1.15    0.17
   1   7  -4    1.00    0.23
   1   7  -4    1.27    0.23
   1   7  -4    0.95    0.22
   1   7  -4    1.60    0.19
  -1  -7   4    1.45    0.16
  -1  -7   4    1.51    0.22
   0   7  -4    3.72    0.29
   0   7  -4    4.14    0.27
   0   7  -4    3.99    0.30
   0   7  -4    4.11    0.30
   0   7  -4    4.22    0.32
   0  -7   4    3.69    0.27
   0  -7   4    4.18    0.27
   0  -7   4    3.93    0.31
   0  -7   4    3.71    0.31
   0  -7   4    4.45    0.32
  -1   7  -4   20.18    0.83
  -1   7  -4   20.06    0.83
  -1   7  -4   19.77    0.83
  -1   7  -4   20.90    0.83
  -1   7  -4   19.52    0.78
   1  -7   4   20.98    0.84
   1  -7   4   21.78    0.80
   1  -7   4   19.47    0.77
   1  -7   4   19.27    0.83
  -2   7  -4   28.31    1.04
  -2   7  -4   28.68    1.11
  -2   7  -4   28.91    1.10
  -2   7  -4   28.44    1.10
  -2   7  -4   27.49    1.10
   2  -7   4   29.02    1.07
   2  -7   4   26.98    1.10
   2  -7   4   28.36    1.17
  -3   7  -4   16.92    0.71
  -3   7  -4   17.73    0.68
  -3   7  -4   17.69    0.71
  -3   7  -4   18.27    0.91
  -3   7  -4   17.14    0.71
  -3   7  -4   18.45    0.72
   3  -7   4   17.89    0.72
   3  -7   4   17.59    0.76
   3  -7   4   17.54    0.69
  -4   7  -4    2.36    0.18
  -4   7  -4    3.00    0.34
  -4   7  -4    2.46    0.19
  -4   7  -4    2.31    0.21
   4  -7   4    2.16    0.20
   4  -7   4    2.50    0.20
  -5   7  -4   27.41    1.39
  -5   7  -4   28.50    1.02
  -5   7  -4   28.35    1.08
   5  -7   4   29.15    1.16
  -6   7  -4    2.18    0.18
  -6   7  -4    1.70    0.36
  -7   7  -4    6.79    0.58
  -8   7  -4    4.15    0.46
  -9   7  -4    3.22    0.45
   7   6  -4   -0.35    0.27
  -7  -6   4   -0.28    0.23
   6   6  -4    1.82    0.29
   6   6  -4    1.49    0.30
  -6  -6   4    1.74    0.26
   5   6  -4    9.13    0.52
   5   6  -4    8.56    0.53
  -5  -6   4    8.92    0.50
   4   6  -4   16.15    0.71
   4   6  -4   14.92    0.75
  -4  -6   4   15.84    0.70
  -4  -6   4   16.27    0.66
  -4  -6   4   14.80    0.70
   3   6  -4    0.47    0.20
   3   6  -4    0.14    0.17
   3   6  -4    0.40    0.22
  -3  -6   4    0.30    0.21
  -3  -6   4    0.16    0.13
  -3  -6   4    0.39    0.20
  -3  -6   4    0.31    0.20
  -3  -6   4    0.11    0.19
   2   6  -4    1.48    0.20
   2   6  -4    2.10    0.22
   2   6  -4    1.89    0.17
   2   6  -4    1.85    0.22
   2   6  -4    2.32    0.21
  -2  -6   4    1.72    0.21
  -2  -6   4    2.04    0.16
  -2  -6   4    2.13    0.21
  -2  -6   4    1.76    0.21
  -2  -6   4    1.85    0.20
   1   6  -4   33.64    1.17
   1   6  -4   29.70    1.18
   1   6  -4   30.26    1.19
   1   6  -4   28.49    1.10
   1   6  -4   29.09    1.26
   1   6  -4   30.16    1.13
   1   6  -4   29.74    1.17
  -1  -6   4   28.80    1.15
  -1  -6   4   30.49    1.19
  -1  -6   4   29.42    1.18
  -1  -6   4   30.30    1.13
   0   6  -4   22.80    0.90
   0   6  -4   20.70    0.94
   0   6  -4   21.90    0.90
   0   6  -4   22.04    0.84
   0   6  -4   23.01    0.91
   0  -6   4   22.54    0.88
   0  -6   4   22.57    0.90
   0  -6   4   22.25    0.84
   0  -6   4   23.34    0.86
   0  -6   4   23.28    0.91
  -1   6  -4   33.11    1.28
  -1   6  -4   33.53    1.27
  -1   6  -4   32.26    1.29
  -1   6  -4   34.21    1.21
  -1   6  -4   34.25    1.30
   1  -6   4   35.36    1.25
   1  -6   4   31.73    1.29
   1  -6   4   33.59    1.30
   1  -6   4   34.09    1.21
   1  -6   4   33.33    1.26
  -2   6  -4   29.71    1.13
  -2   6  -4   29.16    1.13
  -2   6  -4   29.25    1.06
  -2   6  -4   28.91    1.14
  -2   6  -4   29.23    1.11
   2  -6   4   30.53    1.20
   2  -6   4   30.39    1.10
   2  -6   4   28.70    1.06
   2  -6   4   28.77    1.13
  -3   6  -4   11.29    0.65
  -3   6  -4   10.96    0.47
  -3   6  -4   11.63    0.48
  -3   6  -4   11.36    0.47
  -3   6  -4   11.76    0.49
  -3   6  -4   11.56    0.46
   3  -6   4   11.68    0.51
   3  -6   4   11.57    0.49
  -4   6  -4   23.09    0.83
  -4   6  -4   23.26    0.87
  -4   6  -4   22.76    1.13
   4  -6   4   23.53    0.94
   4  -6   4   21.79    0.88
  -5   6  -4    6.31    0.31
  -5   6  -4    6.82    0.53
  -6   6  -4   17.75    0.97
   6  -6   4   18.24    0.80
  -7   6  -4    6.38    0.57
   7  -6   4    6.47    0.40
  -8   6  -4    5.42    0.55
   8   5  -4    2.24    0.36
  -8  -5   4    1.94    0.28
  -8  -5   4    2.44    0.26
   7   5  -4   -0.38    0.26
  -7  -5   4    0.03    0.18
  -7  -5   4   -0.14    0.21
  -7  -5   4   -0.28    0.19
   6   5  -4   -0.05    0.26
   6   5  -4   -0.10    0.23
  -6  -5   4   -0.12    0.22
  -6  -5   4   -0.09    0.19
  -6  -5   4    0.04    0.19
  -6  -5   4   -0.12    0.21
   5   5  -4    8.89    0.48
   5   5  -4    8.03    0.52
  -5  -5   4    8.98    0.48
  -5  -5   4    8.31    0.44
  -5  -5   4    8.36    0.46
  -5  -5   4    8.43    0.46
   4   5  -4   32.60    1.27
   4   5  -4   30.22    1.39
  -4  -5   4   33.23    1.27
  -4  -5   4   32.31    1.26
  -4  -5   4   32.94    1.20
  -4  -5   4   31.67    1.28
   3   5  -4   19.03    0.81
   3   5  -4   19.41    0.80
   3   5  -4   18.05    0.75
   3   5  -4   19.25    0.86
   3   5  -4   18.83    0.76
   3   5  -4   18.60    0.80
  -3  -5   4   18.82    0.75
  -3  -5   4   19.73    0.79
  -3  -5   4   19.75    0.80
  -3  -5   4   19.36    0.74
  -3  -5   4   18.94    0.80
   2   5  -4    0.07    0.14
   2   5  -4   -0.07    0.13
   2   5  -4   -0.01    0.15
   2   5  -4   -0.12    0.11
   2   5  -4   -0.12    0.14
   2   5  -4   -0.26    0.13
  -2  -5   4   -0.03    0.14
  -2  -5   4   -0.22    0.09
  -2  -5   4   -0.26    0.13
  -2  -5   4   -0.24    0.12
  -2  -5   4   -0.02    0.13
   1   5  -4    0.01    0.14
   1   5  -4   -0.11    0.10
   1   5  -4    0.03    0.11
   1   5  -4   -0.12    0.13
   1   5  -4   -0.07    0.13
   1   5  -4    0.02    0.13
   1   5  -4   -0.12    0.12
  -1  -5   4   -0.09    0.13
  -1  -5   4   -0.13    0.12
  -1  -5   4   -0.14    0.12
  -1  -5   4   -0.05    0.10
   0   5  -4   12.01    0.49
   0   5  -4   11.28    0.48
   0   5  -4   11.15    0.46
   0   5  -4   10.86    0.49
   0   5  -4   10.51    0.48
   0  -5   4   11.25    0.46
   0  -5   4   11.24    0.49
   0  -5   4   11.41    0.50
   0  -5   4   11.00    0.48
   0  -5   4   10.99    0.45
  -1   5  -4   17.86    0.72
  -1   5  -4   18.20    0.71
  -1   5  -4   19.10    0.71
  -1   5  -4   17.49    0.67
  -1   5  -4   18.36    0.72
   1  -5   4   18.51    0.72
   1  -5   4   18.86    0.69
   1  -5   4   17.53    0.67
   1  -5   4   15.78    0.71
   1  -5   4   16.69    0.70
  -2   5  -4   51.86    1.90
  -2   5  -4   49.66    1.79
  -2   5  -4   51.11    1.92
  -2   5  -4   51.74    1.87
  -2   5  -4   49.49    1.92
   2  -5   4   49.27    1.90
   2  -5   4   51.99    1.78
   2  -5   4   53.46    2.03
  -3   5  -4    0.14    0.10
  -3   5  -4    0.14    0.11
  -3   5  -4    0.07    0.09
  -3   5  -4    0.09    0.07
   3  -5   4    0.11    0.10
   3  -5   4    0.07    0.09
  -4   5  -4   14.94    0.57
  -4   5  -4   14.47    0.54
  -4   5  -4   14.78    0.79
   4  -5   4   14.70    0.58
  -5   5  -4    2.11    0.31
   5  -5   4    2.26    0.23
  -6   5  -4   20.21    1.05
   6  -5   4   20.24    0.90
  -7   5  -4    7.55    0.61
   7  -5   4    8.16    0.46
   8  -5   4    0.33    0.22
   9  -5   4    6.69    0.46
   8   4  -4    4.92    0.50
  -8  -4   4    6.30    0.37
  -8  -4   4    4.36    0.42
  -8  -4   4    5.12    0.43
  -8  -4   4    4.70    0.35
   7   4  -4    1.30    0.30
  -7  -4   4    0.81    0.24
  -7  -4   4    1.09    0.22
  -7  -4   4    0.70    0.22
  -7  -4   4    1.23    0.21
   6   4  -4    3.19    0.35
   6   4  -4    3.36    0.30
  -6  -4   4    3.09    0.28
  -6  -4   4    3.17    0.29
  -6  -4   4    3.01    0.27
  -6  -4   4    3.12    0.29
   5   4  -4    7.62    0.43
   5   4  -4    8.07    0.50
  -5  -4   4    7.60    0.43
  -5  -4   4    7.44    0.43
  -5  -4   4    7.86    0.42
  -5  -4   4    7.94    0.40
   4   4  -4   10.64    0.51
   4   4  -4   11.40    0.52
   4   4  -4   11.55    0.57
  -4  -4   4   10.93    0.52
  -4  -4   4   10.21    0.51
  -4  -4   4   11.03    0.53
  -4  -4   4   10.76    0.48
   3   4  -4   18.94    0.76
   3   4  -4   18.77    0.72
   3   4  -4   18.10    0.76
   3   4  -4   18.37    0.82
  -3  -4   4   18.26    0.76
  -3  -4   4   18.13    0.71
  -3  -4   4   18.55    0.71
  -3  -4   4   17.89    0.75
  -3  -4   4   19.40    0.77
   2   4  -4   25.88    1.02
   2   4  -4   27.22    1.06
   2   4  -4   27.12    1.15
   2   4  -4   27.93    1.00
  -2  -4   4   27.14    1.07
  -2  -4   4   28.16    1.05
  -2  -4   4   26.29    1.02
  -2  -4   4   27.53    1.06
  -2  -4   4   27.99    1.00
   1   4  -4    0.51    0.14
   1   4  -4    0.26    0.15
   1   4  -4    0.38    0.13
   1   4  -4    0.41    0.13
   1   4  -4    0.27    0.15
  -1  -4   4    0.41    0.15
  -1  -4   4    0.16    0.13
  -1  -4   4    0.48    0.11
  -1  -4   4    0.25    0.13
   0   4  -4   31.19    1.25
   0   4  -4   32.32    1.26
   0   4  -4   33.20    1.17
   0  -4   4   32.34    1.17
   0  -4   4   33.65    1.26
   0  -4   4   33.88    1.23
   0  -4   4   32.59    1.21
  -1   4  -4   70.32    2.55
  -1   4  -4   65.55    2.37
  -1   4  -4   71.98    2.54
  -1   4  -4   66.58    2.52
  -1   4  -4   66.47    2.48
   1  -4   4   67.74    2.47
   1  -4   4   67.68    2.36
   1  -4   4   68.59    2.55
  -2   4  -4   28.04    1.01
  -2   4  -4   26.93    1.07
  -2   4  -4   28.00    1.07
  -2   4  -4   28.56    1.05
  -2   4  -4   28.77    1.06
   2  -4   4   28.87    1.00
   2  -4   4   27.93    1.08
  -3   4  -4    6.75    0.28
  -3   4  -4    6.60    0.30
   4  -4   4   24.29    1.02
   5  -4   4    2.19    0.20
   6  -4   4    4.41    0.33
   7  -4   4   20.49    0.93
   8  -4   4   10.47    0.57
   9  -4   4    0.21    0.24
  10  -4   4   20.22    0.98
   9   3  -4    3.12    0.41
  -9  -3   4    2.93    0.32
   8   3  -4   -0.05    0.29
  -8  -3   4    0.18    0.22
  -8  -3   4   -0.05    0.16
  -8  -3   4    0.00    0.19
  -8  -3   4   -0.04    0.19
   7   3  -4    0.21    0.29
  -7  -3   4    0.01    0.21
  -7  -3   4   -0.23    0.22
  -7  -3   4   -0.19    0.20
  -7  -3   4    0.16    0.18
   6   3  -4    2.30    0.25
   6   3  -4    2.97    0.32
  -6  -3   4    2.29    0.23
  -6  -3   4    2.16    0.22
  -6  -3   4    1.98    0.24
  -6  -3   4    2.08    0.23
   5   3  -4    0.00    0.18
   5   3  -4    0.02    0.14
  -5  -3   4   -0.22    0.15
  -5  -3   4   -0.01    0.15
  -5  -3   4   -0.07    0.17
  -5  -3   4   -0.07    0.17
   4   3  -4    4.62    0.30
   4   3  -4    4.27    0.29
   4   3  -4    4.02    0.25
  -4  -3   4    3.79    0.30
  -4  -3   4    4.00    0.28
  -4  -3   4    4.35    0.30
  -4  -3   4    4.16    0.29
   3   3  -4   13.53    0.54
   3   3  -4   13.42    0.56
   3   3  -4   13.07    0.57
   3   3  -4   14.53    0.58
  -3  -3   4   13.41    0.58
  -3  -3   4   13.30    0.53
  -3  -3   4   13.11    0.58
  -3  -3   4   13.83    0.55
  -3  -3   4   14.60    0.57
   2   3  -4   54.96    1.82
   2   3  -4   50.45    1.89
   2   3  -4   53.50    1.90
   2   3  -4   50.69    1.94
   2   3  -4   54.19    1.90
  -2  -3   4   49.66    1.95
  -2  -3   4   51.14    1.89
  -2  -3   4   49.99    1.90
  -2  -3   4   50.77    1.82
   1   3  -4   14.69    0.57
   1   3  -4   15.40    0.61
   1   3  -4   15.07    0.60
   1   3  -4   15.60    0.61
   1   3  -4   13.71    0.60
  -1  -3   4   13.25    0.57
  -1  -3   4   14.12    0.59
  -1  -3   4   14.52    0.61
   0   3  -4    0.38    0.12
   0   3  -4    0.31    0.13
   0   3  -4    0.25    0.08
   0   3  -4    0.22    0.12
   0  -3   4    0.14    0.11
   0  -3   4    0.32    0.12
   0  -3   4    0.15    0.11
  -1   3  -4    4.91    0.26
  -1   3  -4    5.17    0.27
  -1   3  -4    4.91    0.26
  -1   3  -4    5.22    0.28
   1  -3   4    4.77    0.27
   1  -3   4    4.89    0.29
   1  -3   4    5.15    0.27
   1  -3   4    4.80    0.25
  -2   3  -4   50.94    1.81
  -2   3  -4   51.45    1.90
  -2   3  -4   52.35    1.95
  -2   3  -4   52.97    1.93
  -2   3  -4   52.11    1.90
   2  -3   4   52.84    1.95
   2  -3   4   52.41    1.81
   2  -3   4   52.20    1.93
  -3   3  -4    0.79    0.10
  -3   3  -4    0.83    0.10
  -3   3  -4    0.77    0.10
   3  -3   4    1.01    0.11
   3  -3   4    0.93    0.12
   4  -3   4   33.02    1.37
   5  -3   4   19.00    0.84
   6  -3   4    0.20    0.19
   7  -3   4   14.53    0.71
   8  -3   4    0.75    0.24
   9  -3   4    2.98    0.33
  10  -3   4    1.03    0.32
   9   2  -4    2.10    0.37
  -9  -2   4    2.20    0.24
  -9  -2   4    2.79    0.30
   8   2  -4   -0.23    0.28
  -8  -2   4   -0.10    0.20
  -8  -2   4   -0.05    0.14
  -8  -2   4   -0.08    0.16
  -8  -2   4   -0.17    0.17
  -7  -2   4    1.03    0.19
  -7  -2   4    1.30    0.19
  -7  -2   4    1.23    0.18
  -7  -2   4    1.15    0.22
   6   2  -4   -0.13    0.18
  -6  -2   4   -0.07    0.17
  -6  -2   4    0.00    0.15
  -6  -2   4   -0.24    0.17
  -6  -2   4    0.24    0.18
   5   2  -4    4.48    0.27
   5   2  -4    4.73    0.31
  -5  -2   4    4.90    0.32
  -5  -2   4    4.42    0.31
  -5  -2   4    4.49    0.29
  -5  -2   4    4.64    0.29
   4   2  -4    0.03    0.10
   4   2  -4    0.24    0.13
   4   2  -4    0.10    0.14
  -4  -2   4    0.21    0.12
  -4  -2   4    0.24    0.13
  -4  -2   4    0.05    0.13
  -4  -2   4    0.10    0.14
   3   2  -4    9.55    0.39
   3   2  -4    8.44    0.41
   3   2  -4    8.26    0.37
   3   2  -4    9.59    0.41
   3   2  -4    9.32    0.42
  -3  -2   4    8.68    0.39
  -3  -2   4    8.28    0.40
  -3  -2   4    8.90    0.36
  -3  -2   4    9.14    0.41
   2   2  -4   65.47    2.37
   2   2  -4   64.36    2.27
   2   2  -4   67.08    2.37
   2   2  -4   65.32    2.44
   2   2  -4   60.40    2.41
  -2  -2   4   67.38    2.42
  -2  -2   4   65.95    2.44
  -2  -2   4   66.24    2.37
  -2  -2   4   63.62    2.36
  -2  -2   4   64.09    2.27
   1   2  -4   92.26    3.28
   1   2  -4   84.17    3.35
   1   2  -4   87.30    3.38
   1   2  -4   93.93    3.14
   1   2  -4   95.90    3.29
  -1  -2   4   87.99    3.29
  -1  -2   4   94.33    3.35
  -1  -2   4   91.79    3.38
  -1  -2   4   90.03    3.28
   0   2  -4   10.13    0.43
   0   2  -4   10.67    0.43
   0   2  -4   10.54    0.41
   0   2  -4   10.16    0.43
   0   2  -4    9.62    0.45
   0  -2   4   11.02    0.44
   0  -2   4   10.05    0.40
   0  -2   4   10.89    0.44
   0  -2   4    9.91    0.42
  -1   2  -4    6.22    0.30
  -1   2  -4    5.87    0.28
  -1   2  -4    6.17    0.29
  -1   2  -4    5.94    0.29
  -1   2  -4    6.37    0.30
  -1   2  -4    5.99    0.29
   1  -2   4    6.28    0.28
   1  -2   4    5.66    0.28
   1  -2   4    6.12    0.31
   1  -2   4    6.85    0.29
   1  -2   4    6.52    0.30
  -2   2  -4    0.51    0.11
  -2   2  -4    0.49    0.11
  -2   2  -4    0.59    0.10
  -2   2  -4    0.87    0.13
  -2   2  -4    0.61    0.12
  -2   2  -4    0.50    0.11
   2  -2   4    0.43    0.11
   2  -2   4    0.69    0.13
   2  -2   4    0.71    0.11
   2  -2   4    0.46    0.12
  -3   2  -4   -0.07    0.09
  -3   2  -4    0.08    0.09
  -3   2  -4    0.12    0.09
   3  -2   4    0.02    0.09
   3  -2   4    0.14    0.12
  -4   2  -4    0.02    0.08
  -4   2  -4   -0.17    0.08
   4  -2   4   -0.13    0.13
  -5   2  -4   16.33    0.64
   5  -2   4   17.67    0.77
   6  -2   4    0.28    0.20
   7  -2   4    0.30    0.23
   8  -2   4    4.26    0.39
   9  -2   4    1.88    0.32
  10  -2   4    0.73    0.33
 -10  -1   4    2.75    0.30
   9   1  -4    2.46    0.39
  -9  -1   4    2.90    0.26
  -9  -1   4    3.09    0.30
  -8  -1   4    0.31    0.17
  -8  -1   4    0.39    0.21
  -8  -1   4    0.51    0.17
  -7  -1   4    1.68    0.18
  -7  -1   4    1.83    0.21
  -7  -1   4    1.82    0.21
  -7  -1   4    1.67    0.23
   6   1  -4    5.70    0.35
   6   1  -4    6.06    0.32
  -6  -1   4    5.70    0.36
  -6  -1   4    5.43    0.33
  -6  -1   4    5.77    0.33
  -6  -1   4    6.20    0.45
  -6  -1   4    5.91    0.35
   5   1  -4    1.00    0.13
   5   1  -4    0.80    0.17
  -5  -1   4    0.97    0.17
  -5  -1   4    0.70    0.16
  -5  -1   4    0.83    0.16
  -5  -1   4    0.87    0.15
  -5  -1   4    0.96    0.17
  -5  -1   4    0.86    0.22
   4   1  -4    0.86    0.15
   4   1  -4    0.95    0.11
   4   1  -4    0.81    0.14
  -4  -1   4    0.97    0.15
  -4  -1   4    0.89    0.15
  -4  -1   4    1.12    0.15
  -4  -1   4    0.83    0.14
  -4  -1   4    0.79    0.14
   3   1  -4   41.87    1.51
   3   1  -4   39.36    1.54
   3   1  -4   40.52    1.44
   3   1  -4   41.32    1.55
  -3  -1   4   40.59    1.51
  -3  -1   4   41.77    1.48
  -3  -1   4   40.03    1.51
  -3  -1   4   38.40    1.55
  -3  -1   4   39.28    1.44
  -3  -1   4   43.80    1.54
   2   1  -4    0.49    0.13
   2   1  -4    0.60    0.14
   2   1  -4    0.46    0.14
   2   1  -4    0.54    0.14
   2   1  -4    0.63    0.13
  -2  -1   4    0.45    0.14
  -2  -1   4    0.51    0.14
  -2  -1   4    0.59    0.14
  -2  -1   4    0.58    0.10
  -2  -1   4    0.76    0.14
   1   1  -4   69.41    2.91
   1   1  -4   71.70    2.48
   1   1  -4   74.51    2.60
   1   1  -4   68.55    2.64
   1   1  -4   68.75    2.59
  -1  -1   4   73.11    2.48
  -1  -1   4   71.05    2.59
  -1  -1   4   71.75    2.60
  -1  -1   4   73.26    2.65
  -1  -1   4   73.66    2.67
   0   1  -4   33.02    1.34
   0   1  -4   33.44    1.23
   0   1  -4   31.23    1.22
   0   1  -4   32.56    1.20
   0   1  -4   32.96    1.15
   0  -1   4   32.30    1.34
   0  -1   4   33.02    1.20
   0  -1   4   30.89    1.20
   0  -1   4   33.20    1.15
   0  -1   4   30.98    1.23
   0  -1   4   33.39    1.23
  -1   1  -4   19.85    0.82
  -1   1  -4   18.92    0.75
  -1   1  -4   19.35    0.74
  -1   1  -4   20.20    0.71
  -1   1  -4   19.55    0.75
  -1   1  -4   19.05    0.74
  -1   1  -4   19.68    0.79
   1  -1   4   18.27    0.73
   1  -1   4   19.64    0.82
   1  -1   4   19.80    0.76
   1  -1   4   18.56    0.75
   1  -1   4   19.06    0.70
  -2   1  -4    6.87    0.31
  -2   1  -4    6.28    0.33
  -2   1  -4    6.67    0.31
  -2   1  -4    6.83    0.31
  -2   1  -4    6.86    0.32
   2  -1   4    7.21    0.37
   2  -1   4    6.25    0.32
   2  -1   4    7.01    0.35
   2  -1   4    7.16    0.31
  -3   1  -4    5.50    0.26
  -3   1  -4    5.50    0.25
  -3   1  -4    5.59    0.25
  -3   1  -4    5.10    0.27
  -3   1  -4    5.30    0.24
   3  -1   4    4.99    0.28
   3  -1   4    6.17    0.32
  -4   1  -4    2.97    0.20
  -4   1  -4    2.80    0.21
   4  -1   4    2.97    0.27
   4  -1   4    3.36    0.20
  -5   1  -4    2.49    0.20
  -5   1  -4    2.41    0.21
  -6   1  -4    7.04    0.34
  -6   1  -4    6.74    0.33
   6  -1   4    7.12    0.45
  -7   1  -4    0.24    0.16
  -7   1  -4    0.44    0.15
   7  -1   4    0.64    0.25
  -8   1  -4   -0.50    0.16
  -8   1  -4   -0.21    0.15
   8  -1   4   -0.21    0.26
  -9   1  -4    4.71    0.30
   9  -1   4    4.65    0.47
 -10   0   4    2.15    0.27
  -9   0   4    6.67    0.36
  -9   0   4    7.25    0.42
  -8   0   4    7.64    0.40
  -8   0   4    7.24    0.43
  -8   0   4    8.34    0.55
  -7   0   4    2.09    0.19
  -7   0   4    2.61    0.22
  -7   0   4    2.71    0.22
  -7   0   4    2.22    0.31
  -7   0   4    2.00    0.23
   6   0  -4   12.44    0.50
   6   0  -4   11.75    0.54
  -6   0   4   11.93    0.54
  -6   0   4   13.06    0.54
  -6   0   4   11.23    0.51
  -6   0   4   12.39    0.70
  -6   0   4   11.74    0.53
   5   0  -4    5.28    0.27
   5   0  -4    4.82    0.31
  -5   0   4    5.59    0.31
  -5   0   4    5.26    0.32
  -5   0   4    5.31    0.31
  -5   0   4    5.57    0.29
  -5   0   4    5.18    0.29
   4   0  -4    0.51    0.12
   4   0  -4    0.54    0.13
  -4   0   4    0.44    0.13
  -4   0   4    0.42    0.12
  -4   0   4    0.39    0.13
  -4   0   4    0.56    0.13
  -4   0   4    0.37    0.13
   3   0  -4   20.64    0.81
   3   0  -4   19.92    0.79
   3   0  -4   19.32    0.81
   3   0  -4   21.32    0.76
  -3   0   4   20.68    0.81
  -3   0   4   19.74    0.76
  -3   0   4   21.00    0.80
  -3   0   4   19.45    0.80
  -3   0   4   21.44    0.81
   2   0  -4   -0.05    0.11
   2   0  -4   -0.01    0.12
   2   0  -4    0.02    0.14
   2   0  -4   -0.03    0.12
   2   0  -4   -0.09    0.12
  -2   0   4   -0.06    0.14
  -2   0   4    0.02    0.13
  -2   0   4    0.03    0.13
  -2   0   4   -0.09    0.13
   1   0  -4    0.61    0.13
   1   0  -4    0.56    0.13
   1   0  -4    0.47    0.13
   1   0  -4    0.83    0.12
  -1   0   4    0.59    0.14
  -1   0   4    0.84    0.15
  -1   0   4    0.76    0.13
  -1   0   4    0.50    0.12
  -1   0   4    0.55    0.13
  -1   0   4    0.68    0.13
   0   0  -4   14.53    0.55
   0   0  -4   14.68    0.57
   0   0  -4   14.19    0.58
   0   0  -4   13.55    0.57
   0   0   4   13.26    0.57
   0   0   4   13.60    0.54
   0   0   4   15.12    0.58
   0   0   4   13.77    0.56
   0   0   4   14.07    0.63
   0   0   4   14.41    0.59
  -1   0  -4   21.23    0.78
  -1   0  -4   22.15    0.83
  -1   0  -4   20.68    0.83
  -1   0  -4   19.95    0.81
  -1   0  -4   22.08    0.87
  -1   0  -4   21.43    0.81
   1   0   4   19.89    0.91
   1   0   4   21.25    0.81
   1   0   4   22.66    0.84
   1   0   4   19.98    0.78
  -2   0  -4   10.59    0.45
  -2   0  -4   10.43    0.42
  -2   0  -4   10.76    0.44
  -2   0  -4   10.77    0.45
  -2   0  -4   10.07    0.44
  -2   0  -4   10.82    0.45
   2   0   4    9.42    0.47
   2   0   4   10.95    0.51
   2   0   4   10.34    0.43
   2   0   4   10.64    0.46
   2   0   4    9.64    0.45
  -3   0  -4    2.10    0.19
  -3   0  -4    2.43    0.16
  -3   0  -4    2.30    0.18
  -3   0  -4    2.32    0.19
  -3   0  -4    2.27    0.19
   3   0   4    2.05    0.20
   3   0   4    2.93    0.24
  -4   0  -4    1.11    0.14
  -4   0  -4    1.20    0.11
  -4   0  -4    1.07    0.14
  -4   0  -4    1.22    0.12
  -4   0  -4    0.87    0.11
   4   0   4    1.27    0.14
   4   0   4    0.94    0.19
  -5   0  -4    4.91    0.29
  -5   0  -4    4.86    0.30
   5   0   4    4.67    0.30
   5   0   4    5.73    0.39
  -6   0  -4    1.39    0.18
  -6   0  -4    1.12    0.17
   6   0   4    1.26    0.27
   6   0   4    1.26    0.17
  -7   0  -4    5.83    0.35
  -7   0  -4    5.81    0.33
   7   0   4    5.74    0.45
   7   0   4    5.92    0.35
  -8   0  -4   -0.59    0.17
  -8   0  -4   -0.30    0.17
   8   0   4    0.18    0.28
  -9   0  -4    0.84    0.21
   9   0   4    0.68    0.34
 -10   1   4    8.04    0.46
 -10   1   4    7.20    0.37
  -9   1   4    2.28    0.23
  -9   1   4    2.83    0.38
  -9   1   4    2.24    0.26
  -8   1   4    2.94    0.35
  -8   1   4    2.89    0.26
  -8   1   4    2.98    0.26
  -7   1   4    3.48    0.30
  -7   1   4    3.46    0.24
  -7   1   4    3.67    0.27
  -7   1   4    3.03    0.22
  -7   1   4    3.77    0.32
  -7   1   4    3.85    0.28
  -7   1   4    3.29    0.36
   6  -1  -4   10.13    0.47
   6  -1  -4    9.63    0.42
  -6   1   4   10.06    0.47
  -6   1   4    9.49    0.61
  -6   1   4    9.73    0.47
  -6   1   4    9.32    0.44
  -6   1   4    9.43    0.43
   5  -1  -4    0.06    0.14
  -5   1   4   -0.12    0.14
  -5   1   4    0.11    0.15
  -5   1   4   -0.06    0.13
  -5   1   4    0.10    0.13
  -5   1   4    0.01    0.13
   4  -1  -4    3.77    0.25
   4  -1  -4    3.43    0.25
  -4   1   4    4.12    0.26
  -4   1   4    3.40    0.24
  -4   1   4    3.65    0.26
  -4   1   4    3.64    0.24
  -4   1   4    3.95    0.27
   3  -1  -4    4.42    0.28
   3  -1  -4    4.71    0.27
   3  -1  -4    4.42    0.28
   3  -1  -4    4.78    0.29
  -3   1   4    5.27    0.30
  -3   1   4    5.06    0.31
  -3   1   4    4.72    0.27
  -3   1   4    4.98    0.30
  -3   1   4    4.76    0.28
   2  -1  -4    0.10    0.13
   2  -1  -4    0.07    0.12
   2  -1  -4    0.22    0.12
   2  -1  -4    0.21    0.13
  -2   1   4    0.15    0.13
  -2   1   4    0.02    0.17
  -2   1   4    0.00    0.14
  -2   1   4   -0.03    0.13
   1  -1  -4    1.40    0.17
   1  -1  -4    1.37    0.16
   1  -1  -4    1.38    0.15
   1  -1  -4    1.33    0.15
  -1   1   4    1.59    0.20
  -1   1   4    1.30    0.16
  -1   1   4    0.92    0.16
  -1   1   4    1.46    0.17
  -1   1   4    1.39    0.16
   0  -1  -4   59.75    2.33
   0  -1  -4   60.52    2.31
   0  -1  -4   63.19    2.17
   0  -1  -4   62.78    2.27
   0   1   4   60.58    2.33
   0   1   4   60.72    2.26
   0   1   4   63.20    2.55
   0   1   4   63.96    2.33
   0   1   4   63.50    2.27
  -1  -1  -4    2.61    0.23
  -1  -1  -4    2.67    0.22
  -1  -1  -4    2.77    0.22
  -1  -1  -4    2.93    0.25
  -1  -1  -4    2.58    0.25
  -1  -1  -4    2.51    0.19
  -1  -1  -4    2.90    0.22
   1   1   4    2.54    0.22
   1   1   4    3.04    0.23
   1   1   4    3.01    0.27
   1   1   4    2.93    0.24
   1   1   4    3.01    0.25
  -2  -1  -4   17.76    0.72
  -2  -1  -4   16.63    0.71
  -2  -1  -4   17.63    0.72
  -2  -1  -4   18.41    0.72
  -2  -1  -4   16.72    0.70
   2   1   4   17.71    0.80
   2   1   4   19.00    0.74
   2   1   4   18.11    0.77
   2   1   4   18.72    0.69
   2   1   4   19.14    0.73
  -3  -1  -4    0.15    0.11
  -3  -1  -4    0.00    0.11
  -3  -1  -4    0.21    0.13
  -3  -1  -4    0.17    0.11
  -3  -1  -4    0.14    0.12
   3   1   4    0.28    0.17
   3   1   4    0.10    0.13
  -4  -1  -4   12.63    0.53
  -4  -1  -4   12.46    0.53
  -4  -1  -4   11.72    0.51
  -4  -1  -4   12.88    0.52
   4   1   4   11.72    0.57
   4   1   4   12.43    0.62
  -5  -1  -4    5.14    0.32
  -5  -1  -4    4.98    0.31
  -5  -1  -4    5.71    0.29
   5   1   4    4.64    0.33
   5   1   4    5.00    0.40
  -6  -1  -4   10.95    0.50
  -6  -1  -4   10.59    0.49
   6   1   4   10.71    0.60
  -7  -1  -4    1.18    0.20
  -7  -1  -4    1.47    0.22
   7   1   4    1.51    0.30
  -8  -1  -4    0.22    0.20
   8   1   4    0.18    0.29
  -9  -1  -4   -0.24    0.21
 -10   2   4    4.76    0.49
 -10   2   4    5.02    0.38
  -9   2   4    8.42    0.61
  -9   2   4    7.63    0.44
  -9   2   4    8.06    0.39
  -8   2   4    2.12    0.34
  -8   2   4    2.10    0.21
  -8   2   4    1.50    0.24
  -8   2   4    1.96    0.23
  -7   2   4    4.53    0.48
  -7   2   4    4.21    0.25
  -7   2   4    4.47    0.27
  -7   2   4    5.08    0.34
  -7   2   4    4.32    0.33
  -7   2   4    4.45    0.29
   6  -2  -4    3.77    0.29
  -6   2   4    3.42    0.35
  -6   2   4    3.20    0.24
  -6   2   4    3.28    0.26
  -6   2   4    3.32    0.23
  -6   2   4    3.59    0.31
  -6   2   4    3.19    0.29
   5  -2  -4    8.48    0.43
  -5   2   4    9.58    0.41
  -5   2   4    8.40    0.41
  -5   2   4    9.31    0.42
  -5   2   4    8.78    0.43
  -5   2   4    8.93    0.44
  -5   2   4    9.25    0.43
   4  -2  -4    7.57    0.37
   4  -2  -4    7.55    0.37
  -4   2   4    7.51    0.36
  -4   2   4    7.18    0.37
  -4   2   4    7.18    0.37
  -4   2   4    7.44    0.36
  -4   2   4    7.84    0.36
  -4   2   4    8.66    0.39
   3  -2  -4    1.94    0.17
   3  -2  -4    2.00    0.17
   3  -2  -4    2.35    0.21
   3  -2  -4    2.19    0.18
  -3   2   4    2.26    0.20
  -3   2   4    2.22    0.20
  -3   2   4    2.04    0.17
  -3   2   4    1.98    0.18
  -3   2   4    2.36    0.22
  -3   2   4    2.35    0.13
   2  -2  -4    9.87    0.42
   2  -2  -4    9.42    0.44
   2  -2  -4    9.64    0.44
   2  -2  -4    9.84    0.44
  -2   2   4    9.78    0.43
  -2   2   4   10.21    0.40
  -2   2   4    9.61    0.42
  -2   2   4    9.29    0.44
  -2   2   4    9.04    0.44
  -2   2   4    9.79    0.50
   1  -2  -4    2.37    0.19
   1  -2  -4    2.32    0.19
   1  -2  -4    2.45    0.18
   1  -2  -4    2.22    0.18
  -1   2   4    2.63    0.22
  -1   2   4    2.27    0.20
  -1   2   4    2.41    0.19
  -1   2   4    2.27    0.19
  -1   2   4    2.68    0.27
  -1   2   4    2.25    0.19
  -1   2   4    2.10    0.18
   0  -2  -4   42.32    1.64
   0  -2  -4   44.95    1.69
   0  -2  -4   41.85    1.67
   0  -2  -4   44.77    1.64
   0   2   4   45.32    1.64
   0   2   4   44.16    1.85
   0   2   4   47.45    1.70
  -1  -2  -4    4.45    0.28
  -1  -2  -4    4.97    0.29
  -1  -2  -4    4.72    0.28
  -1  -2  -4    4.66    0.27
   1   2   4    5.22    0.30
   1   2   4    5.00    0.30
   1   2   4    4.97    0.28
   1   2   4    4.81    0.32
   1   2   4    5.01    0.30
  -2  -2  -4    9.76    0.45
  -2  -2  -4   10.65    0.46
  -2  -2  -4    9.99    0.46
  -2  -2  -4    9.92    0.45
   2   2   4   10.75    0.48
   2   2   4   10.05    0.52
   2   2   4    9.89    0.49
   2   2   4   10.36    0.45
   2   2   4   10.69    0.48
  -3  -2  -4    0.02    0.14
  -3  -2  -4   -0.31    0.14
  -3  -2  -4   -0.25    0.15
  -3  -2  -4   -0.08    0.13
   3   2   4   -0.14    0.16
   3   2   4   -0.17    0.19
  -4  -2  -4    3.82    0.29
  -4  -2  -4    3.99    0.28
  -4  -2  -4    3.80    0.29
  -4  -2  -4    3.54    0.25
   4   2   4    3.41    0.36
   4   2   4    3.59    0.32
  -5  -2  -4    1.22    0.20
  -5  -2  -4    0.95    0.17
  -5  -2  -4    1.02    0.19
   5   2   4    0.97    0.27
  -6  -2  -4    0.07    0.14
  -6  -2  -4   -0.18    0.18
   6   2   4    0.08    0.26
  -7  -2  -4    0.20    0.21
   7   2   4    0.30    0.29
  -8  -2  -4    3.03    0.29
   8   2   4    2.83    0.40
 -10   3   4    0.59    0.23
 -10   3   4    0.82    0.36
  -9   3   4    0.77    0.33
  -9   3   4    1.04    0.19
  -9   3   4    0.86    0.22
  -8   3   4   27.74    1.06
  -8   3   4   28.63    1.12
  -8   3   4   29.17    1.13
  -7   3   4    8.51    0.62
  -7   3   4    9.41    0.46
  -7   3   4    8.77    0.44
  -7   3   4    8.61    0.40
  -7   3   4    7.93    0.39
  -7   3   4    8.51    0.41
   6  -3  -4   10.00    0.49
  -6   3   4   10.35    0.49
  -6   3   4   10.28    0.46
  -6   3   4   10.11    0.46
  -6   3   4   10.35    0.50
  -6   3   4   10.19    0.47
  -6   3   4   10.55    0.67
   5  -3  -4    7.20    0.38
  -5   3   4    6.44    0.39
  -5   3   4    7.16    0.37
  -5   3   4    6.95    0.36
  -5   3   4    6.71    0.36
  -5   3   4    7.53    0.39
  -5   3   4    7.11    0.53
   4  -3  -4   13.57    0.57
   4  -3  -4   12.27    0.56
  -4   3   4   12.52    0.56
  -4   3   4   13.78    0.58
  -4   3   4   13.30    0.56
  -4   3   4   12.11    0.53
  -4   3   4   12.94    0.56
   3  -3  -4    2.68    0.22
   3  -3  -4    2.11    0.19
   3  -3  -4    2.65    0.24
  -3   3   4    1.98    0.19
  -3   3   4    2.70    0.23
  -3   3   4    2.11    0.19
  -3   3   4    2.16    0.20
  -3   3   4    2.03    0.19
   2  -3  -4   14.94    0.65
   2  -3  -4   15.26    0.61
   2  -3  -4   15.67    0.65
   2  -3  -4   15.43    0.64
  -2   3   4   16.28    0.66
  -2   3   4   15.54    0.62
  -2   3   4   15.73    0.64
  -2   3   4   14.84    0.65
  -2   3   4   16.19    0.61
  -2   3   4   16.10    0.72
   1  -3  -4   14.30    0.64
   1  -3  -4   14.44    0.60
   1  -3  -4   14.57    0.60
   1  -3  -4   13.44    0.61
  -1   3   4   13.70    0.58
  -1   3   4   15.37    0.62
  -1   3   4   14.96    0.63
  -1   3   4   14.87    0.68
  -1   3   4   14.75    0.61
  -1   3   4   14.03    0.62
  -1   3   4   14.83    0.59
   0  -3  -4   -0.21    0.12
   0  -3  -4    0.00    0.12
   0  -3  -4   -0.29    0.13
   0  -3  -4    0.08    0.13
   0   3   4   -0.10    0.14
   0   3   4    0.03    0.16
   0   3   4   -0.02    0.13
   0   3   4   -0.09    0.10
  -1  -3  -4    6.06    0.34
  -1  -3  -4    5.64    0.32
  -1  -3  -4    6.24    0.34
  -1  -3  -4    6.14    0.34
   1   3   4    5.79    0.34
   1   3   4    5.54    0.34
   1   3   4    6.39    0.38
   1   3   4    5.25    0.33
   1   3   4    6.24    0.34
  -2  -3  -4    2.74    0.26
  -2  -3  -4    2.75    0.22
  -2  -3  -4    2.47    0.22
  -2  -3  -4    2.71    0.23
   2   3   4    2.49    0.23
   2   3   4    2.99    0.27
   2   3   4    2.74    0.27
   2   3   4    2.10    0.19
   2   3   4    2.60    0.23
   2   3   4    2.52    0.24
  -3  -3  -4   12.87    0.56
  -3  -3  -4   12.31    0.57
  -3  -3  -4   12.75    0.57
  -3  -3  -4   12.23    0.57
   3   3   4   12.56    0.65
  -4  -3  -4    0.45    0.16
  -4  -3  -4    0.41    0.17
  -4  -3  -4    0.59    0.20
   4   3   4    0.63    0.25
  -5  -3  -4    0.04    0.19
  -5  -3  -4    0.04    0.17
   5   3   4   -0.45    0.24
  -6  -3  -4   -0.04    0.16
  -6  -3  -4   -0.04    0.20
   6   3   4    0.05    0.28
  -7  -3  -4    3.96    0.37
   7   3   4    3.61    0.41
 -10   4   4    0.10    0.22
 -10   4   4    0.14    0.40
  -9   4   4    0.92    0.23
  -9   4   4    1.16    0.19
  -9   4   4    1.36    0.36
  -8   4   4   31.68    1.22
  -8   4   4   30.61    1.54
  -8   4   4   31.56    1.16
  -7   4   4   30.17    1.11
  -7   4   4   27.69    1.15
  -7   4   4   30.78    1.17
  -7   4   4   30.36    1.17
  -7   4   4   29.70    1.47
  -7   4   4   30.40    1.16
   6  -4  -4    4.05    0.31
  -6   4   4    3.65    0.27
  -6   4   4    3.68    0.31
  -6   4   4    4.35    0.49
  -6   4   4    4.28    0.30
  -6   4   4    3.91    0.33
  -6   4   4    3.94    0.28
   5  -4  -4    4.89    0.32
  -5   4   4    4.33    0.47
  -5   4   4    4.68    0.30
  -5   4   4    4.27    0.31
  -5   4   4    4.95    0.37
  -5   4   4    4.62    0.31
  -5   4   4    4.17    0.32
   4  -4  -4    7.15    0.39
   4  -4  -4    6.87    0.38
  -4   4   4    6.49    0.38
  -4   4   4    6.16    0.35
  -4   4   4    6.12    0.40
  -4   4   4    6.67    0.36
  -4   4   4    6.29    0.37
   3  -4  -4    0.42    0.15
   3  -4  -4    0.42    0.17
   3  -4  -4    0.28    0.15
  -3   4   4    0.33    0.18
  -3   4   4    0.25    0.09
  -3   4   4    0.12    0.16
  -3   4   4    0.03    0.18
  -3   4   4    0.63    0.21
  -3   4   4    0.13    0.17
  -3   4   4    0.29    0.17
   2  -4  -4    0.76    0.17
   2  -4  -4    0.57    0.16
   2  -4  -4    0.97    0.16
   2  -4  -4    1.00    0.18
  -2   4   4    0.94    0.13
  -2   4   4    1.26    0.21
  -2   4   4    0.91    0.18
  -2   4   4    0.65    0.18
  -2   4   4    0.63    0.19
  -2   4   4    0.51    0.17
   1  -4  -4    2.15    0.21
   1  -4  -4    1.98    0.20
   1  -4  -4    1.89    0.20
  -1   4   4    1.87    0.16
  -1   4   4    2.21    0.22
  -1   4   4    1.85    0.21
  -1   4   4    2.10    0.21
  -1   4   4    2.07    0.21
  -1   4   4    2.19    0.24
   0  -4  -4    0.40    0.17
   0  -4  -4    0.21    0.15
   0  -4  -4    0.21    0.15
   0  -4  -4   -0.02    0.16
   0   4   4    0.34    0.13
   0   4   4   -0.33    0.17
   0   4   4   -0.09    0.16
   0   4   4    0.37    0.20
  -1  -4  -4    4.24    0.29
  -1  -4  -4    4.01    0.31
  -1  -4  -4    4.26    0.32
   1   4   4    3.70    0.31
   1   4   4    4.14    0.33
   1   4   4    4.44    0.36
   1   4   4    4.37    0.29
  -2  -4  -4    6.87    0.39
  -2  -4  -4    6.73    0.40
  -2  -4  -4    6.55    0.37
   2   4   4    5.88    0.44
  -3  -4  -4    5.65    0.38
  -3  -4  -4    5.39    0.34
  -3  -4  -4    5.35    0.36
   3   4   4    5.22    0.42
  -4  -4  -4    0.23    0.20
  -4  -4  -4    0.15    0.17
  -4  -4  -4    0.42    0.19
   4   4   4    0.58    0.26
  -5  -4  -4    5.87    0.36
  -5  -4  -4    5.18    0.38
   5   4   4    4.58    0.44
  -6  -4  -4    0.16    0.23
  -6  -4  -4    0.08    0.18
   6   4   4    0.14    0.30
  -7  -4  -4    1.16    0.28
 -10   5   4    0.72    0.24
 -10   5   4    0.79    0.41
  -9   5   4    0.24    0.18
  -9   5   4    0.01    0.33
  -9   5   4    0.20    0.22
  -8   5   4   -0.07    0.21
  -8   5   4    0.03    0.18
  -8   5   4   -0.07    0.32
  -7   5   4   20.61    0.83
  -7   5   4   20.59    0.81
  -7   5   4   18.73    0.82
  -7   5   4   21.44    1.10
  -7   5   4   21.07    0.85
   6  -5  -4   16.80    0.74
  -6   5   4   17.51    0.73
  -6   5   4   16.62    0.73
  -6   5   4   16.62    0.70
  -6   5   4   18.66    0.97
  -6   5   4   17.91    0.74
   5  -5  -4    6.20    0.37
  -5   5   4    5.93    0.38
  -5   5   4    6.13    0.36
  -5   5   4    5.96    0.36
  -5   5   4    5.88    0.35
  -5   5   4    6.07    0.53
   4  -5  -4    0.27    0.19
  -4   5   4    0.31    0.21
  -4   5   4   -0.03    0.18
  -4   5   4    0.15    0.18
  -4   5   4   -0.05    0.17
   3  -5  -4    8.75    0.47
   3  -5  -4    7.89    0.44
  -3   5   4    7.67    0.43
  -3   5   4    7.88    0.34
  -3   5   4    8.81    0.50
  -3   5   4    8.26    0.45
  -3   5   4    7.69    0.43
  -3   5   4    7.48    0.43
   2  -5  -4    1.09    0.20
   2  -5  -4    1.38    0.22
  -2   5   4    0.67    0.20
  -2   5   4    0.89    0.23
  -2   5   4    1.17    0.22
  -2   5   4    0.84    0.21
  -2   5   4    1.16    0.24
  -2   5   4    0.85    0.15
   1  -5  -4    0.98    0.20
   1  -5  -4    0.88    0.20
  -1   5   4    1.28    0.21
  -1   5   4    1.19    0.22
  -1   5   4    1.01    0.16
  -1   5   4    0.90    0.22
  -1   5   4    1.10    0.23
  -1   5   4    1.27    0.25
   0  -5  -4    0.69    0.20
   0  -5  -4    0.87    0.17
   0   5   4    0.30    0.24
   0   5   4    0.79    0.16
  -1  -5  -4    4.57    0.35
  -1  -5  -4    5.16    0.33
   1   5   4    4.99    0.31
   1   5   4    4.99    0.40
  -2  -5  -4    8.25    0.44
  -2  -5  -4    8.66    0.46
   2   5   4    7.35    0.50
  -3  -5  -4   10.02    0.49
  -3  -5  -4    8.82    0.48
   3   5   4    8.58    0.55
  -4  -5  -4    0.44    0.21
  -4  -5  -4    0.49    0.19
   4   5   4    0.44    0.28
  -5  -5  -4    0.39    0.21
   5   5   4    0.33    0.29
  -6  -5  -4    1.27    0.25
  -9   6   4   -0.15    0.33
  -9   6   4   -0.19    0.23
  -9   6   4    0.15    0.20
  -8   6   4    5.15    0.34
  -8   6   4    5.39    0.54
  -8   6   4    4.63    0.38
  -7   6   4   -0.16    0.22
  -7   6   4    0.17    0.16
  -7   6   4   -0.16    0.33
  -7   6   4   -0.07    0.19
  -7   6   4   -0.21    0.16
   6  -6  -4    8.03    0.46
  -6   6   4    8.69    0.45
  -6   6   4    8.98    0.64
  -6   6   4    8.58    0.48
  -6   6   4    7.82    0.44
  -6   6   4    9.25    0.45
   5  -6  -4   64.72    2.58
   5  -6  -4   61.40    2.41
  -5   6   4   63.19    2.28
  -5   6   4   68.21    2.94
  -5   6   4   62.31    2.43
  -5   6   4   64.42    2.38
  -5   6   4   61.63    2.43
   4  -6  -4    2.97    0.27
   4  -6  -4    3.52    0.33
  -4   6   4    2.77    0.27
  -4   6   4    2.91    0.38
  -4   6   4    2.47    0.26
  -4   6   4    3.21    0.29
  -4   6   4    3.15    0.30
   3  -6  -4    0.24    0.19
   3  -6  -4    0.08    0.20
  -3   6   4   -0.04    0.20
  -3   6   4    0.33    0.24
  -3   6   4    0.17    0.21
  -3   6   4    0.43    0.23
  -3   6   4    0.36    0.20
   2  -6  -4    4.65    0.37
  -2   6   4    5.11    0.38
  -2   6   4    5.84    0.43
  -2   6   4    5.73    0.38
  -2   6   4    5.01    0.29
   1  -6  -4    1.45    0.23
  -1   6   4    1.05    0.18
  -1   6   4    1.55    0.27
   0  -6  -4    0.70    0.22
   0   6   4    0.85    0.26
   0   6   4    0.68    0.17
  -1  -6  -4    6.76    0.43
   1   6   4    6.61    0.47
  -2  -6  -4    0.26    0.22
   2   6   4    0.36    0.26
  -3  -6  -4    1.53    0.25
   3   6   4    1.30    0.30
  -4  -6  -4    8.06    0.47
   4   6   4    7.38    0.55
  -9   7   4    0.86    0.27
  -8   7   4    8.94    0.50
  -8   7   4    8.65    0.65
  -8   7   4    7.78    0.46
   7  -7  -4    0.61    0.26
  -7   7   4    0.47    0.25
  -7   7   4    0.74    0.18
  -7   7   4    0.53    0.36
  -7   7   4    0.46    0.23
  -7   7   4    0.64    0.18
   6  -7  -4    1.97    0.28
  -6   7   4    1.70    0.23
  -6   7   4    1.47    0.25
  -6   7   4    1.85    0.23
  -6   7   4    1.50    0.38
  -6   7   4    2.03    0.29
   5  -7  -4   15.97    0.75
   5  -7  -4   17.19    0.80
  -5   7   4   17.14    0.73
  -5   7   4   18.51    0.96
  -5   7   4   16.18    0.74
  -5   7   4   15.62    0.74
   4  -7  -4   34.94    1.46
  -4   7   4   41.27    1.79
  -4   7   4   37.22    1.62
  -4   7   4   36.22    1.39
  -4   7   4   35.15    1.48
   3  -7  -4    1.43    0.25
  -3   7   4    2.43    0.36
  -3   7   4    1.97    0.30
   2  -7  -4    2.18    0.26
  -2   7   4    2.21    0.31
  -2   7   4    1.83    0.18
  -2   7   4    2.03    0.35
   1  -7  -4    1.04    0.24
  -1   7   4    1.22    0.27
  -1   7   4    1.21    0.18
   0  -7  -4   -0.12    0.21
   0   7   4   -0.13    0.25
  -1  -7  -4    1.30    0.25
   1   7   4    1.39    0.30
  -2  -7  -4    0.58    0.24
   2   7   4    0.50    0.28
  -3  -7  -4    0.00    0.22
   3   7   4   -0.09    0.28
  -8   8   4    0.39    0.23
  -8   8   4    0.34    0.28
  -8   8   4    0.51    0.37
  -7   8   4    2.70    0.30
  -7   8   4    3.08    0.29
  -7   8   4    3.21    0.30
  -7   8   4    3.11    0.34
  -7   8   4    2.81    0.45
  -6   8   4    0.75    0.25
  -6   8   4    1.00    0.38
  -6   8   4    0.82    0.23
   5  -8  -4    0.66    0.24
  -5   8   4    0.20    0.36
  -5   8   4    0.86    0.24
   4  -8  -4    8.96    0.53
  -4   8   4    8.35    0.58
  -4   8   4   10.65    0.69
   3  -8  -4    5.85    0.42
  -3   8   4    5.83    0.47
   2  -8  -4    7.15    0.48
  -2   8   4    7.61    0.55
  -2   8   4    9.05    0.63
   1  -8  -4    0.27    0.22
  -1   8   4    0.00    0.26
   0  -8  -4    0.02    0.23
   0   8   4    0.01    0.29
  -1  -8  -4    0.25    0.23
   1   8   4    0.19    0.29
   2   8   4   -0.08    0.30
  -7   9   4    0.05    0.37
  -6   9   4    3.80    0.35
  -6   9   4    3.84    0.48
  -5   9   4    3.08    0.44
   4  -9  -4    2.69    0.32
  -4   9   4    2.32    0.38
  -4   9   4    2.23    0.42
  -3   9   4    8.54    0.58
   2  -9  -4    4.90    0.43
  -2   9   4    5.10    0.48
   1  -9  -4    1.57    0.29
  -1   9   4    1.86    0.35
   0   9   4    0.86    0.33
   4 -10  -4    1.10    0.30
  -3  10   4    6.60    0.55
  -2  10   4    6.76    0.57
   0 -12   5   -0.04    0.27
   1 -12   5    2.82    0.33
  -2  12  -5    2.17    0.31
   2 -12   5    1.82    0.30
  -3  12  -5    4.60    0.41
  -4  12  -5   -0.31    0.19
  -4  12  -5   -0.40    0.20
  -5  12  -5    7.05    0.39
   5 -12   5    7.35    0.48
   6 -12   5    1.45    0.26
   1  11  -5    0.29    0.27
  -1 -11   5    0.26    0.26
   0  11  -5    2.65    0.34
   0 -11   5    3.12    0.32
  -1  11  -5    7.10    0.48
   1 -11   5    7.19    0.49
  -2  11  -5    2.55    0.29
   2 -11   5    1.69    0.27
  -3  11  -5    1.16    0.25
  -3  11  -5    1.31    0.27
  -3  11  -5    1.00    0.23
   3 -11   5    0.96    0.26
  -4  11  -5    0.15    0.18
  -4  11  -5    0.17    0.17
   4 -11   5   -0.01    0.21
  -5  11  -5    0.68    0.17
  -5  11  -5    0.51    0.17
   5 -11   5    0.75    0.23
  -6  11  -5    3.50    0.31
   6 -11   5    3.81    0.37
  -7  11  -5    8.29    0.70
  -7  11  -5    8.58    0.42
   7 -11   5    9.58    0.55
   3  10  -5    0.27    0.29
  -3 -10   5    0.42    0.26
   2  10  -5    1.57    0.31
  -2 -10   5    2.15    0.30
   1  10  -5    9.07    0.53
  -1 -10   5    8.41    0.53
   0  10  -5    0.57    0.25
   0 -10   5    0.93    0.24
  -1  10  -5    2.90    0.30
   1 -10   5    2.17    0.27
  -2  10  -5    0.35    0.23
  -2  10  -5   -0.18    0.21
  -2  10  -5   -0.13    0.22
   2 -10   5   -0.17    0.22
  -3  10  -5    3.97    0.32
  -3  10  -5    3.95    0.31
  -3  10  -5    4.46    0.34
   3 -10   5    4.44    0.38
  -4  10  -5    9.23    0.46
  -4  10  -5    8.15    0.42
  -4  10  -5    8.76    0.43
  -4  10  -5    9.22    0.45
   4 -10   5    8.57    0.49
  -5  10  -5    0.83    0.21
   5 -10   5    0.91    0.21
  -6  10  -5   -0.06    0.35
   6 -10   5   -0.21    0.18
  -7  10  -5    0.22    0.20
  -7  10  -5    0.74    0.38
   7 -10   5    0.16    0.18
   8 -10   5   18.49    0.82
   5   9  -5    3.87    0.40
   5   9  -5    4.04    0.39
   4   9  -5    0.40    0.25
   4   9  -5    0.87    0.29
  -4  -9   5    0.39    0.25
   3   9  -5    3.77    0.38
   3   9  -5    4.28    0.41
  -3  -9   5    4.23    0.36
   2   9  -5    0.62    0.25
   2   9  -5    0.75    0.22
   2   9  -5    0.59    0.18
  -2  -9   5    0.88    0.24
   1   9  -5    1.01    0.26
  -1  -9   5    1.04    0.25
   0   9  -5    1.36    0.27
   0  -9   5    1.58    0.26
  -1   9  -5    0.30    0.22
  -1   9  -5    0.19    0.20
  -1   9  -5   -0.04    0.20
   1  -9   5    0.12    0.20
  -2   9  -5   -0.01    0.20
  -2   9  -5    0.06    0.18
  -2   9  -5    0.10    0.18
   2  -9   5    0.13    0.20
  -3   9  -5    1.66    0.21
  -3   9  -5    1.86    0.24
  -3   9  -5    1.57    0.22
  -3   9  -5    1.89    0.24
   3  -9   5    1.46    0.23
   3  -9   5    1.68    0.24
  -4   9  -5   35.76    1.37
  -4   9  -5   36.81    1.37
  -4   9  -5   37.01    1.38
  -4   9  -5   36.66    1.31
  -4   9  -5   32.39    1.37
   4  -9   5   35.61    1.47
  -5   9  -5   14.86    0.65
  -5   9  -5   15.04    0.60
  -5   9  -5   14.76    0.85
   5  -9   5   14.50    0.69
  -6   9  -5    1.34    0.21
  -6   9  -5    1.36    0.36
  -6   9  -5    1.38    0.17
   6  -9   5    1.39    0.19
  -7   9  -5    2.94    0.42
  -7   9  -5    2.42    0.22
   7  -9   5    2.20    0.22
   6   8  -5    0.21    0.28
   6   8  -5   -0.11    0.28
   5   8  -5    2.01    0.31
   5   8  -5    1.95    0.31
  -5  -8   5    1.82    0.29
   4   8  -5    0.98    0.26
   4   8  -5    1.53    0.27
  -4  -8   5    1.67    0.27
   3   8  -5    0.82    0.23
   3   8  -5    1.07    0.25
  -3  -8   5    0.89    0.24
   2   8  -5   28.73    1.08
   2   8  -5   27.14    1.19
   2   8  -5   26.48    1.13
  -2  -8   5   28.11    1.14
   1   8  -5    5.46    0.39
   1   8  -5    6.44    0.37
  -1  -8   5    5.95    0.40
   0   8  -5    5.30    0.37
   0   8  -5    4.89    0.35
   0   8  -5    4.92    0.30
   0   8  -5    5.38    0.36
   0  -8   5    4.73    0.36
  -1   8  -5    0.96    0.21
  -1   8  -5    0.87    0.22
  -1   8  -5    0.76    0.21
  -1   8  -5    0.72    0.20
   1  -8   5    0.57    0.17
   1  -8   5    0.44    0.20
  -2   8  -5    6.59    0.37
  -2   8  -5    6.71    0.38
  -2   8  -5    6.73    0.39
  -2   8  -5    6.82    0.38
  -2   8  -5    7.38    0.42
   2  -8   5    7.55    0.37
   2  -8   5    6.91    0.39
  -3   8  -5    6.27    0.35
  -3   8  -5    5.72    0.33
  -3   8  -5    5.71    0.32
  -3   8  -5    5.75    0.36
  -3   8  -5    5.62    0.31
   3  -8   5    5.34    0.35
   3  -8   5    5.40    0.35
  -4   8  -5    0.75    0.14
  -4   8  -5    0.98    0.17
  -4   8  -5    0.68    0.20
  -4   8  -5    0.48    0.13
  -4   8  -5    1.05    0.17
   4  -8   5    0.53    0.17
   4  -8   5    0.75    0.18
  -5   8  -5    9.25    0.65
  -5   8  -5    9.85    0.42
  -5   8  -5   10.30    0.46
   5  -8   5    8.95    0.46
  -6   8  -5    8.58    0.41
  -6   8  -5    9.20    0.64
   6  -8   5    8.56    0.43
   7   7  -5   -0.37    0.29
   6   7  -5    0.19    0.26
   6   7  -5   -0.28    0.25
  -6  -7   5   -0.41    0.23
   5   7  -5    0.37    0.24
   5   7  -5    0.40    0.26
  -5  -7   5    0.09    0.22
   4   7  -5   24.74    1.05
   4   7  -5   24.73    1.13
  -4  -7   5   26.26    1.06
   3   7  -5   10.53    0.56
   3   7  -5   12.07    0.56
  -3  -7   5   10.23    0.55
   2   7  -5    3.58    0.27
   2   7  -5    3.57    0.34
   2   7  -5    3.75    0.32
  -2  -7   5    3.43    0.29
   1   7  -5    1.03    0.21
   1   7  -5    1.15    0.21
   1   7  -5    1.12    0.17
   1   7  -5    1.05    0.21
  -1  -7   5    0.91    0.20
  -1  -7   5    1.00    0.15
   0   7  -5   25.59    1.00
   0   7  -5   25.35    1.01
   0   7  -5   22.87    1.04
   0   7  -5   23.72    0.95
   0   7  -5   26.19    1.02
   0  -7   5   24.61    1.01
   0  -7   5   24.65    0.94
   0  -7   5   26.46    0.97
   0  -7   5   25.53    1.02
  -1   7  -5    7.76    0.41
  -1   7  -5    7.15    0.38
  -1   7  -5    6.52    0.37
  -1   7  -5    6.76    0.37
  -1   7  -5    6.51    0.37
   1  -7   5    6.19    0.35
   1  -7   5    7.69    0.40
   1  -7   5    6.99    0.35
   1  -7   5    6.35    0.38
  -2   7  -5    5.19    0.33
  -2   7  -5    5.01    0.30
  -2   7  -5    5.24    0.29
  -2   7  -5    5.19    0.31
  -2   7  -5    4.58    0.29
   2  -7   5    4.84    0.28
   2  -7   5    4.78    0.31
  -3   7  -5   28.85    1.12
  -3   7  -5   27.57    1.11
  -3   7  -5   29.61    1.11
  -3   7  -5   28.95    1.05
  -3   7  -5   30.52    1.11
   3  -7   5   28.12    1.19
   3  -7   5   28.29    1.12
  -4   7  -5    3.00    0.25
  -4   7  -5    2.95    0.23
   4  -7   5    2.63    0.25
   4  -7   5    2.86    0.25
  -5   7  -5    3.29    0.21
  -5   7  -5    3.40    0.25
   5  -7   5    3.25    0.24
  -6   7  -5    8.12    0.37
   7   6  -5    0.96    0.31
  -7  -6   5    1.25    0.27
   6   6  -5   -0.19    0.25
   6   6  -5   -0.29    0.23
  -6  -6   5   -0.49    0.21
   5   6  -5   -0.31    0.23
   5   6  -5   -0.43    0.23
  -5  -6   5   -0.33    0.20
   4   6  -5    5.49    0.40
   4   6  -5    5.15    0.40
  -4  -6   5    4.83    0.29
  -4  -6   5    4.97    0.39
  -4  -6   5    5.03    0.36
   3   6  -5   34.07    1.34
   3   6  -5   34.17    1.30
   3   6  -5   31.79    1.45
  -3  -6   5   33.30    1.26
  -3  -6   5   35.58    1.29
  -3  -6   5   35.41    1.33
  -3  -6   5   34.76    1.35
  -3  -6   5   33.70    1.36
   2   6  -5   17.81    0.72
   2   6  -5   17.36    0.80
   2   6  -5   17.06    0.72
   2   6  -5   18.57    0.78
   2   6  -5   17.26    0.76
   2   6  -5   17.38    0.77
  -2  -6   5   18.75    0.77
  -2  -6   5   17.90    0.71
  -2  -6   5   19.72    0.78
  -2  -6   5   18.13    0.77
  -2  -6   5   18.25    0.72
   1   6  -5   -0.03    0.16
   1   6  -5    0.02    0.12
   1   6  -5   -0.10    0.14
   1   6  -5   -0.09    0.16
   1   6  -5   -0.15    0.15
   1   6  -5   -0.17    0.15
  -1  -6   5    0.15    0.16
  -1  -6   5   -0.17    0.11
  -1  -6   5   -0.15    0.14
  -1  -6   5   -0.31    0.14
   0  -6   5    1.69    0.18
   0  -6   5    1.45    0.17
   0  -6   5    1.51    0.16
   0  -6   5    1.36    0.18
  -1   6  -5   46.86    1.72
  -1   6  -5   49.27    1.83
  -1   6  -5   47.01    1.85
  -1   6  -5   50.59    1.81
  -1   6  -5   48.52    1.85
   1  -6   5   48.77    1.85
   1  -6   5   50.23    1.72
   1  -6   5   49.65    1.79
   1  -6   5   47.19    1.83
  -2   6  -5    1.94    0.17
  -2   6  -5    1.96    0.18
  -2   6  -5    2.06    0.17
  -2   6  -5    1.79    0.16
  -2   6  -5    1.90    0.18
   2  -6   5    1.87    0.17
  -3   6  -5    2.71    0.23
  -3   6  -5    2.66    0.18
  -3   6  -5    2.67    0.20
  -3   6  -5    2.46    0.21
  -3   6  -5    2.63    0.18
   3  -6   5    2.59    0.22
  -4   6  -5   20.93    0.77
  -4   6  -5   21.84    0.82
   4  -6   5   20.84    0.88
   4  -6   5   21.31    0.83
  -5   6  -5    5.21    0.28
   6  -6   5    9.41    0.47
   8   5  -5    2.02    0.36
  -8  -5   5    1.83    0.28
   7   5  -5    0.06    0.28
  -7  -5   5   -0.06    0.22
   6   5  -5    0.26    0.24
   6   5  -5   -0.04    0.25
  -6  -5   5    0.16    0.19
  -6  -5   5    0.44    0.21
  -6  -5   5    0.19    0.22
   5   5  -5   -0.20    0.23
   5   5  -5   -0.05    0.21
  -5  -5   5    0.10    0.20
  -5  -5   5   -0.58    0.19
  -5  -5   5   -0.49    0.17
  -5  -5   5   -0.28    0.17
   4   5  -5    1.28    0.24
   4   5  -5    1.14    0.23
  -4  -5   5    1.27    0.23
  -4  -5   5    1.18    0.21
  -4  -5   5    1.04    0.22
  -4  -5   5    0.73    0.20
   3   5  -5    0.84    0.18
   3   5  -5    1.07    0.20
   3   5  -5    1.02    0.20
   3   5  -5    1.08    0.20
   3   5  -5    0.94    0.15
  -3  -5   5    0.81    0.13
  -3  -5   5    1.05    0.17
  -3  -5   5    0.73    0.18
  -3  -5   5    0.75    0.20
  -3  -5   5    0.97    0.19
   2   5  -5    7.72    0.41
   2   5  -5    8.07    0.36
   2   5  -5    7.44    0.41
   2   5  -5    7.62    0.38
  -2  -5   5    7.89    0.38
  -2  -5   5    8.63    0.42
  -2  -5   5    7.85    0.41
  -2  -5   5    7.75    0.41
  -2  -5   5    8.09    0.36
   1   5  -5   71.18    2.76
   1   5  -5   69.35    2.98
   1   5  -5   80.50    2.69
   1   5  -5   72.24    2.57
   1   5  -5   73.95    2.73
  -1  -5   5   73.29    2.68
  -1  -5   5   74.37    2.68
  -1  -5   5   72.74    2.73
  -1  -5   5   72.87    2.76
   0   5  -5   12.64    0.54
   0   5  -5   12.73    0.54
   0   5  -5   13.40    0.51
   0  -5   5   12.56    0.51
   0  -5   5   12.13    0.54
   0  -5   5   11.98    0.50
   0  -5   5   11.85    0.54
   0  -5   5   11.88    0.53
  -1   5  -5   32.89    1.25
  -1   5  -5   33.17    1.26
  -1   5  -5   32.06    1.18
  -1   5  -5   34.35    1.24
  -1   5  -5   32.49    1.26
   1  -5   5   32.36    1.18
   1  -5   5   32.95    1.27
  -2   5  -5    1.89    0.16
  -2   5  -5    1.72    0.15
  -2   5  -5    1.98    0.17
  -2   5  -5    1.98    0.17
  -2   5  -5    1.84    0.16
  -3   5  -5    8.30    0.34
  -3   5  -5    8.32    0.35
  -3   5  -5    7.99    0.34
  -3   5  -5    8.46    0.37
  -3   5  -5    8.29    0.35
  -4   5  -5    0.04    0.09
  -4   5  -5    0.30    0.11
   5  -5   5   17.69    0.77
   6  -5   5   18.49    0.82
   7  -5   5    7.98    0.46
   8  -5   5    0.32    0.21
  -9  -4   5    2.38    0.27
   8   4  -5   11.10    0.68
  -8  -4   5   12.32    0.60
  -8  -4   5   10.83    0.55
  -8  -4   5   11.34    0.60
  -8  -4   5   10.36    0.54
   7   4  -5   15.55    0.81
  -7  -4   5   14.91    0.69
  -7  -4   5   14.96    0.71
  -7  -4   5   16.91    0.71
  -7  -4   5   15.48    0.67
   6   4  -5   -0.12    0.25
   6   4  -5   -0.27    0.20
  -6  -4   5    0.10    0.20
  -6  -4   5   -0.05    0.18
  -6  -4   5   -0.10    0.19
  -6  -4   5    0.12    0.18
   5   4  -5    1.04    0.22
   5   4  -5    0.75    0.25
  -5  -4   5    0.79    0.19
  -5  -4   5    0.78    0.20
  -5  -4   5    0.73    0.18
  -5  -4   5    0.65    0.20
   4   4  -5    0.50    0.19
  -4  -4   5    0.31    0.18
  -4  -4   5    0.84    0.18
  -4  -4   5    0.37    0.19
  -4  -4   5    0.52    0.17
   3   4  -5    2.99    0.26
   3   4  -5    2.99    0.21
   3   4  -5    3.55    0.26
   3   4  -5    2.74    0.27
   3   4  -5    3.32    0.26
  -3  -4   5    3.24    0.21
  -3  -4   5    2.80    0.25
  -3  -4   5    3.18    0.26
  -3  -4   5    3.34    0.27
  -3  -4   5    2.88    0.27
   2   4  -5    3.25    0.26
   2   4  -5    2.83    0.24
   2   4  -5    2.89    0.23
  -2  -4   5    2.48    0.22
  -2  -4   5    3.20    0.20
  -2  -4   5    3.00    0.27
  -2  -4   5    3.16    0.24
  -2  -4   5    2.94    0.24
   1   4  -5   52.48    1.94
   1   4  -5   52.53    1.86
   1   4  -5   52.90    1.98
   1   4  -5   51.63    1.99
  -1  -4   5   55.07    2.00
  -1  -4   5   53.31    1.93
  -1  -4   5   50.95    1.94
   0   4  -5   66.31    2.50
   0   4  -5   63.96    2.35
   0   4  -5   68.44    2.53
   0  -4   5   72.04    2.46
   0  -4   5   63.79    2.35
   0  -4   5   65.64    2.45
   0  -4   5   71.39    2.53
  -1   4  -5   16.86    0.67
  -1   4  -5   16.08    0.63
  -1   4  -5   16.86    0.66
  -1   4  -5   16.40    0.67
   1  -4   5   17.96    0.63
   1  -4   5   15.85    0.67
  -2   4  -5   32.29    1.15
  -2   4  -5   31.96    1.21
  -2   4  -5   31.98    1.23
  -2   4  -5   33.76    1.22
  -3   4  -5    3.23    0.23
  -3   4  -5    4.01    0.21
  -3   4  -5    4.18    0.22
  -4   4  -5    2.17    0.18
  -4   4  -5    2.24    0.18
  -4   4  -5    2.44    0.15
   4  -4   5    2.31    0.21
   5  -4   5   20.00    0.87
   6  -4   5   -0.16    0.17
   7  -4   5    3.98    0.34
   8  -4   5    0.83    0.24
   9  -4   5   10.66    0.61
   9   3  -5   -0.41    0.32
  -9  -3   5   -0.02    0.21
  -9  -3   5    0.04    0.25
   8   3  -5    1.91    0.35
  -8  -3   5    1.70    0.24
  -8  -3   5    1.46    0.27
  -8  -3   5    1.68    0.21
  -8  -3   5    1.37    0.22
   7   3  -5   37.14    1.48
   7   3  -5   37.25    1.65
  -7  -3   5   36.85    1.46
  -7  -3   5   40.14    1.47
  -7  -3   5   35.76    1.39
  -7  -3   5   38.41    1.48
   6   3  -5   19.17    0.78
  -6  -3   5   17.05    0.76
  -6  -3   5   17.19    0.72
  -6  -3   5   18.81    0.77
  -6  -3   5   17.00    0.76
   5   3  -5    5.59    0.37
  -5  -3   5    5.27    0.34
  -5  -3   5    5.77    0.37
  -5  -3   5    5.68    0.37
  -5  -3   5    6.14    0.36
   4   3  -5    5.16    0.32
   4   3  -5    5.02    0.32
   4   3  -5    4.82    0.32
  -4  -3   5    4.52    0.30
  -4  -3   5    4.80    0.34
  -4  -3   5    4.34    0.30
  -4  -3   5    5.07    0.33
   3   3  -5    3.99    0.26
   3   3  -5    3.89    0.25
   3   3  -5    3.96    0.27
   3   3  -5    3.87    0.26
  -3  -3   5    3.69    0.28
  -3  -3   5    4.00    0.22
  -3  -3   5    3.60    0.25
  -3  -3   5    3.59    0.25
   2   3  -5   70.07    2.76
   2   3  -5   77.07    2.60
   2   3  -5   75.00    2.71
   2   3  -5   78.96    2.72
  -2  -3   5   72.57    2.59
  -2  -3   5   76.19    2.71
  -2  -3   5   73.47    2.79
  -2  -3   5   71.53    2.70
   1   3  -5   56.06    2.14
   1   3  -5   59.95    2.11
   1   3  -5   59.10    2.02
   1   3  -5   58.89    2.11
   1   3  -5   56.02    2.16
  -1  -3   5   54.46    2.10
  -1  -3   5   60.17    2.17
  -1  -3   5   55.22    2.11
   0   3  -5    8.81    0.42
   0   3  -5    8.98    0.39
   0   3  -5    9.41    0.42
   0   3  -5   10.04    0.42
   0   3  -5    8.29    0.42
   0  -3   5    9.06    0.42
   0  -3   5    9.01    0.42
   0  -3   5    9.43    0.40
  -1   3  -5    1.39    0.15
  -1   3  -5    1.51    0.16
  -1   3  -5    1.70    0.15
  -1   3  -5    1.73    0.15
  -1   3  -5    1.46    0.16
   1  -3   5    1.38    0.15
   1  -3   5    1.46    0.15
   1  -3   5    1.80    0.15
  -2   3  -5   23.67    0.86
  -2   3  -5   21.83    0.86
  -2   3  -5   21.72    0.86
  -2   3  -5   23.39    0.82
  -2   3  -5   24.26    0.88
   2  -3   5   22.78    0.82
   2  -3   5   21.33    0.94
  -3   3  -5   32.42    1.20
  -3   3  -5   33.93    1.15
  -3   3  -5   32.32    1.20
   3  -3   5   31.26    1.34
  -4   3  -5   27.24    0.99
  -4   3  -5   27.36    1.00
   4  -3   5   25.54    1.13
   5  -3   5   13.54    0.64
   6  -3   5    3.88    0.33
   7  -3   5    1.96    0.26
   8  -3   5    1.17    0.27
   9  -3   5    4.48    0.44
   9   2  -5    0.11    0.31
  -9  -2   5   -0.08    0.24
  -9  -2   5   -0.28    0.18
  -8  -2   5   11.45    0.56
  -8  -2   5   10.41    0.50
  -8  -2   5   10.87    0.52
  -8  -2   5   10.22    0.49
   7   2  -5   17.52    0.78
  -7  -2   5   19.66    0.78
  -7  -2   5   18.31    0.75
  -7  -2   5   17.36    0.76
  -7  -2   5   17.42    0.78
   6   2  -5   13.14    0.60
  -6  -2   5   12.66    0.57
  -6  -2   5   13.41    0.60
  -6  -2   5   12.52    0.59
  -6  -2   5   13.96    0.61
   5   2  -5    3.45    0.25
   5   2  -5    3.85    0.30
  -5  -2   5    3.44    0.31
  -5  -2   5    3.47    0.28
  -5  -2   5    4.01    0.32
  -5  -2   5    3.27    0.27
   4   2  -5   22.55    0.90
   4   2  -5   24.44    0.95
   4   2  -5   23.36    0.93
  -4  -2   5   22.89    0.88
  -4  -2   5   22.79    0.94
  -4  -2   5   25.19    0.93
   3   2  -5   10.56    0.46
   3   2  -5    9.34    0.45
   3   2  -5   10.13    0.43
   3   2  -5   10.17    0.44
  -3  -2   5    9.90    0.46
  -3  -2   5   10.23    0.41
  -3  -2   5    9.31    0.42
  -3  -2   5    9.36    0.45
   2   2  -5    3.32    0.27
   2   2  -5    3.57    0.25
   2   2  -5    3.23    0.27
   2   2  -5    3.30    0.23
  -2  -2   5    3.74    0.25
  -2  -2   5    3.19    0.21
  -2  -2   5    3.20    0.25
  -2  -2   5    3.29    0.26
   1   2  -5  189.11    6.64
   1   2  -5  195.08    6.35
   1   2  -5  180.64    6.83
   1   2  -5  197.57    6.64
   1   2  -5  177.02    7.46
   1   2  -5  176.31    6.77
  -1  -2   5  190.61    6.84
  -1  -2   5  188.23    6.64
  -1  -2   5  168.49    6.64
   0   2  -5   10.45    0.45
   0   2  -5    9.99    0.45
   0   2  -5   10.19    0.48
   0   2  -5   11.13    0.43
   0   2  -5   10.03    0.46
   0  -2   5    9.85    0.45
   0  -2   5   10.04    0.46
   0  -2   5   10.12    0.43
   0  -2   5   10.07    0.48
  -1   2  -5    0.39    0.13
  -1   2  -5    0.32    0.12
  -1   2  -5    0.44    0.12
  -1   2  -5    0.51    0.12
  -1   2  -5    0.41    0.12
  -1   2  -5    0.41    0.14
   1  -2   5    0.47    0.13
   1  -2   5    0.29    0.12
   1  -2   5    0.44    0.13
   1  -2   5    0.55    0.13
  -2   2  -5   21.40    0.94
  -2   2  -5   22.94    0.86
  -2   2  -5   21.67    0.85
  -2   2  -5   21.57    0.84
  -2   2  -5   21.56    0.84
  -2   2  -5   23.41    0.81
   2  -2   5   22.33    0.94
   2  -2   5   22.09    0.87
   2  -2   5   23.12    0.81
  -3   2  -5   13.01    0.52
  -3   2  -5   12.72    0.51
  -3   2  -5   13.52    0.50
  -3   2  -5   12.67    0.52
  -3   2  -5   12.69    0.51
  -3   2  -5   13.06    0.51
   3  -2   5   13.36    0.59
  -4   2  -5   29.68    1.07
  -4   2  -5   29.66    1.07
   4  -2   5   27.67    1.15
   4  -2   5   27.31    1.21
  -5   2  -5   25.45    0.95
  -5   2  -5   25.29    0.95
   5  -2   5   24.60    1.09
  -6   2  -5    1.18    0.15
  -6   2  -5    1.00    0.15
   6  -2   5    1.23    0.24
   7  -2   5   15.26    0.76
   8  -2   5   20.37    0.98
   9  -2   5    0.06    0.29
 -10  -1   5   -0.08    0.25
  -9  -1   5    0.37    0.18
  -9  -1   5    0.63    0.24
  -8  -1   5    1.06    0.18
  -8  -1   5    0.95    0.20
  -8  -1   5    1.62    0.24
  -8  -1   5    0.89    0.21
   7   1  -5    6.66    0.40
  -7  -1   5    7.20    0.41
  -7  -1   5    6.20    0.37
  -7  -1   5    6.36    0.38
  -7  -1   5    6.77    0.41
  -7  -1   5    7.25    0.52
   6   1  -5   38.13    1.51
  -6  -1   5   38.65    1.43
  -6  -1   5   39.29    1.52
  -6  -1   5   39.28    1.82
  -6  -1   5   39.70    1.50
  -6  -1   5   40.81    1.52
   5   1  -5    4.49    0.31
   5   1  -5    4.50    0.27
   5   1  -5    5.16    0.33
  -5  -1   5    4.96    0.32
  -5  -1   5    4.66    0.30
  -5  -1   5    5.10    0.30
   4   1  -5   16.98    0.68
   4   1  -5   15.25    0.67
  -4  -1   5   16.20    0.67
  -4  -1   5   16.47    0.68
  -4  -1   5   16.50    0.67
  -4  -1   5   16.10    0.64
   3   1  -5    0.41    0.12
   3   1  -5    0.35    0.12
   3   1  -5    0.29    0.11
   3   1  -5    0.31    0.13
  -3  -1   5    0.19    0.08
  -3  -1   5    0.14    0.12
  -3  -1   5    0.15    0.13
  -3  -1   5    0.32    0.13
   2   1  -5   70.63    2.68
   2   1  -5   69.58    2.73
   2   1  -5   76.82    2.68
   2   1  -5   74.47    2.57
  -2  -1   5   73.13    2.76
  -2  -1   5   74.30    2.57
  -2  -1   5   74.05    2.68
  -2  -1   5   77.48    2.69
  -2  -1   5   72.28    2.67
   1   1  -5    3.33    0.27
   1   1  -5    2.96    0.27
   1   1  -5    3.01    0.24
   1   1  -5    3.59    0.25
   1   1  -5    3.26    0.27
  -1  -1   5    3.18    0.27
  -1  -1   5    3.38    0.29
  -1  -1   5    3.14    0.26
   0   1  -5  152.17    5.42
   0   1  -5  154.18    5.18
   0   1  -5  154.50    5.58
   0   1  -5  142.93    5.53
   0  -1   5  143.53    6.10
   0  -1   5  153.16    5.58
   0  -1   5  149.50    5.42
   0  -1   5  154.62    5.18
  -1   1  -5  115.74    4.28
  -1   1  -5  117.54    4.58
  -1   1  -5  115.35    4.02
  -1   1  -5  121.75    4.20
  -1   1  -5  120.68    4.32
  -1   1  -5  115.53    4.20
   1  -1   5  116.63    4.32
   1  -1   5  110.86    4.72
   1  -1   5  116.59    4.02
   1  -1   5  114.00    4.20
  -2   1  -5   13.87    0.57
  -2   1  -5   13.90    0.57
  -2   1  -5   14.60    0.58
  -2   1  -5   14.35    0.57
  -2   1  -5   14.24    0.54
   2  -1   5   14.52    0.64
   2  -1   5   13.51    0.58
   2  -1   5   14.26    0.55
  -3   1  -5    5.86    0.27
  -3   1  -5    5.73    0.29
  -3   1  -5    5.95    0.28
  -3   1  -5    5.49    0.27
  -3   1  -5    5.74    0.29
  -3   1  -5    5.80    0.28
   3  -1   5    5.64    0.34
  -4   1  -5    2.55    0.22
  -4   1  -5    2.49    0.21
   4  -1   5    2.35    0.24
   4  -1   5    2.29    0.22
  -5   1  -5    3.42    0.25
  -5   1  -5    3.21    0.24
   5  -1   5    3.06    0.27
   5  -1   5    3.51    0.33
  -6   1  -5    4.79    0.29
  -6   1  -5    5.08    0.31
   6  -1   5    4.86    0.32
   6  -1   5    5.47    0.40
  -7   1  -5   -0.03    0.15
  -7   1  -5    0.00    0.16
   7  -1   5    0.06    0.15
   7  -1   5    0.55    0.26
  -8   1  -5   10.43    0.47
   8  -1   5    9.65    0.61
   9  -1   5    3.52    0.40
 -10   0   5    0.15    0.24
  -9   0   5    1.13    0.22
  -9   0   5    1.11    0.25
  -8   0   5    0.17    0.18
  -8   0   5    0.36    0.15
  -8   0   5    0.39    0.19
  -8   0   5    0.29    0.27
  -8   0   5    0.22    0.21
   7   0  -5   13.23    0.62
  -7   0   5   14.03    0.78
  -7   0   5   14.33    0.62
  -7   0   5   13.76    0.60
  -7   0   5   13.46    0.58
  -7   0   5   14.07    0.61
   6   0  -5   22.87    0.94
  -6   0   5   22.32    0.88
  -6   0   5   21.50    0.93
  -6   0   5   23.70    1.14
  -6   0   5   25.10    0.94
  -6   0   5   23.17    0.93
   5   0  -5   82.09    3.12
  -5   0   5   83.55    2.93
  -5   0   5   88.36    3.07
  -5   0   5   82.68    3.07
  -5   0   5   83.17    3.15
   4   0  -5   42.89    1.72
   4   0  -5   46.53    1.74
  -4   0   5   45.53    1.70
  -4   0   5   46.97    1.74
  -4   0   5   45.76    1.70
  -4   0   5   45.68    1.62
   3   0  -5   13.73    0.57
   3   0  -5   12.99    0.53
   3   0  -5   13.06    0.58
   3   0  -5   13.88    0.58
  -3   0   5   12.70    0.57
  -3   0   5   13.51    0.54
  -3   0   5   14.36    0.53
  -3   0   5   13.48    0.57
   2   0  -5    0.35    0.14
   2   0  -5    0.21    0.13
   2   0  -5    0.46    0.12
  -2   0   5    0.25    0.13
  -2   0   5   -0.04    0.13
  -2   0   5    0.08    0.13
   1   0  -5   56.95    2.10
   1   0  -5   56.43    1.95
   1   0  -5   55.26    2.08
   1   0  -5   59.02    2.04
   1   0  -5   55.28    2.04
  -1   0   5   52.48    2.03
  -1   0   5   57.32    2.04
  -1   0   5   55.42    2.10
  -1   0   5   51.87    1.95
   0   0  -5    3.06    0.26
   0   0  -5    3.18    0.26
   0   0  -5    3.12    0.24
   0   0  -5    3.71    0.24
   0   0   5    3.23    0.25
   0   0   5    3.41    0.28
   0   0   5    3.69    0.25
   0   0   5    3.26    0.25
  -1   0  -5  134.02    4.62
  -1   0  -5  134.90    5.27
  -1   0  -5  130.91    4.93
  -1   0  -5  134.65    4.83
  -1   0  -5  130.39    4.97
  -1   0  -5  135.80    4.83
   1   0   5  129.21    4.83
   1   0   5  140.16    4.62
   1   0   5  132.68    5.44
   1   0   5  137.60    4.97
  -2   0  -5  119.67    4.34
  -2   0  -5  117.28    4.42
  -2   0  -5  119.58    4.15
  -2   0  -5  118.56    4.34
  -2   0  -5  119.34    4.46
  -2   0  -5  121.64    4.42
   2   0   5  119.54    4.15
   2   0   5  122.18    4.47
   2   0   5  120.67    4.89
   2   0   5  123.11    4.47
  -3   0  -5    0.68    0.13
  -3   0  -5    0.59    0.13
  -3   0  -5    0.75    0.14
  -3   0  -5    0.61    0.12
  -3   0  -5    0.79    0.12
   3   0   5    0.86    0.15
   3   0   5    0.89    0.18
  -4   0  -5    3.33    0.25
  -4   0  -5    3.31    0.22
  -4   0  -5    2.75    0.19
  -4   0  -5    3.11    0.24
   4   0   5    2.82    0.26
   4   0   5    3.01    0.31
  -5   0  -5    3.10    0.27
  -5   0  -5    3.20    0.26
   5   0   5    2.97    0.28
   5   0   5    3.03    0.30
  -6   0  -5   -0.20    0.17
  -6   0  -5   -0.13    0.16
   6   0   5   -0.20    0.24
   6   0   5   -0.07    0.16
  -7   0  -5   -0.03    0.18
  -7   0  -5   -0.12    0.16
   7   0   5    0.36    0.26
  -8   0  -5    0.48    0.20
   8   0   5    0.49    0.30
  -9   0  -5    0.08    0.20
 -10   1   5    1.09    0.26
  -9   1   5    0.16    0.29
  -9   1   5    0.22    0.22
  -9   1   5    0.15    0.19
  -8   1   5    1.19    0.16
  -8   1   5    1.41    0.32
  -8   1   5    1.62    0.21
  -8   1   5    1.20    0.20
  -8   1   5    1.33    0.23
  -8   1   5    1.30    0.17
   7  -1  -5   -0.26    0.18
  -7   1   5   -0.16    0.17
  -7   1   5   -0.27    0.14
  -7   1   5   -0.30    0.28
  -7   1   5   -0.30    0.20
  -7   1   5   -0.53    0.18
  -7   1   5   -0.10    0.14
   6  -1  -5   -0.02    0.18
  -6   1   5   -0.16    0.18
  -6   1   5   -0.27    0.15
  -6   1   5    0.39    0.26
  -6   1   5   -0.36    0.17
  -6   1   5   -0.48    0.19
   5  -1  -5   49.73    1.95
  -5   1   5   50.53    1.83
  -5   1   5   52.10    1.96
  -5   1   5   51.80    1.92
  -5   1   5   52.98    1.92
   4  -1  -5   38.63    1.51
   4  -1  -5   40.17    1.53
  -4   1   5   41.24    1.53
  -4   1   5   40.33    1.49
  -4   1   5   37.86    1.42
  -4   1   5   39.37    1.49
   3  -1  -5   36.56    1.43
   3  -1  -5   35.80    1.42
   3  -1  -5   38.74    1.40
   3  -1  -5   37.35    1.34
  -3   1   5   39.62    1.37
  -3   1   5   36.79    1.40
  -3   1   5   39.11    1.37
  -3   1   5   35.45    1.34
  -3   1   5   36.06    1.43
   2  -1  -5   10.43    0.43
   2  -1  -5    9.82    0.44
   2  -1  -5    9.40    0.45
   2  -1  -5    9.67    0.44
  -2   1   5    9.97    0.51
  -2   1   5    9.67    0.43
  -2   1   5    9.81    0.45
  -2   1   5    9.43    0.45
   1  -1  -5    8.37    0.40
   1  -1  -5    8.99    0.41
   1  -1  -5    8.37    0.41
   1  -1  -5    8.33    0.39
   1  -1  -5    8.21    0.41
  -1   1   5    8.30    0.41
  -1   1   5    8.64    0.46
  -1   1   5    8.80    0.42
  -1   1   5    8.78    0.40
  -1   1   5    8.48    0.39
   0  -1  -5    7.15    0.38
   0  -1  -5    6.58    0.35
   0  -1  -5    7.53    0.36
   0  -1  -5    7.08    0.35
   0  -1  -5    7.40    0.37
   0   1   5    7.27    0.37
   0   1   5    6.67    0.34
   0   1   5    7.89    0.41
   0   1   5    7.17    0.37
   0   1   5    7.50    0.36
  -1  -1  -5   -0.06    0.10
  -1  -1  -5    0.06    0.11
  -1  -1  -5    0.19    0.12
  -1  -1  -5   -0.22    0.12
  -1  -1  -5    0.10    0.12
  -1  -1  -5   -0.14    0.11
   1   1   5    0.25    0.13
   1   1   5    0.15    0.12
   1   1   5   -0.22    0.12
   1   1   5   -0.09    0.15
   1   1   5   -0.11    0.13
  -2  -1  -5   26.31    1.07
  -2  -1  -5   27.35    1.06
  -2  -1  -5   26.66    1.05
  -2  -1  -5   26.98    1.05
   2   1   5   27.56    1.01
   2   1   5   28.39    1.08
   2   1   5   28.15    1.09
   2   1   5   27.63    1.18
  -3  -1  -5   18.98    0.73
  -3  -1  -5   17.84    0.73
  -3  -1  -5   18.38    0.73
  -3  -1  -5   18.60    0.73
  -3  -1  -5   17.53    0.73
   3   1   5   17.23    0.79
   3   1   5   18.26    0.83
  -4  -1  -5    1.55    0.19
  -4  -1  -5    1.31    0.15
  -4  -1  -5    1.63    0.20
  -4  -1  -5    1.50    0.17
   4   1   5    1.54    0.21
   4   1   5    1.55    0.26
  -5  -1  -5   10.82    0.47
  -5  -1  -5   10.50    0.51
  -5  -1  -5   10.19    0.50
   5   1   5   10.79    0.59
  -6  -1  -5    3.59    0.31
  -6  -1  -5    3.93    0.31
   6   1   5    3.16    0.35
  -7  -1  -5    0.80    0.22
   7   1   5    0.96    0.30
  -8  -1  -5    0.03    0.21
   8   1   5   -0.10    0.30
 -10   2   5    0.91    0.26
 -10   2   5    1.85    0.39
  -9   2   5    2.10    0.37
  -9   2   5    1.87    0.27
  -9   2   5    2.40    0.23
  -8   2   5   -0.02    0.20
  -8   2   5    0.27    0.18
  -8   2   5    0.08    0.13
  -8   2   5    0.16    0.31
  -7   2   5    8.21    0.41
  -7   2   5    8.31    0.42
  -7   2   5    8.73    0.46
  -7   2   5    8.77    0.42
  -7   2   5    9.47    0.63
   6  -2  -5    8.66    0.46
  -6   2   5    8.33    0.43
  -6   2   5    9.20    0.47
  -6   2   5    8.21    0.42
  -6   2   5    8.55    0.60
  -6   2   5    8.70    0.45
  -6   2   5    8.86    0.43
   5  -2  -5    1.17    0.19
  -5   2   5    1.09    0.20
  -5   2   5    1.30    0.19
  -5   2   5    1.42    0.19
  -5   2   5    1.11    0.19
  -5   2   5    1.53    0.21
   4  -2  -5    9.31    0.45
   4  -2  -5    9.07    0.45
  -4   2   5    9.35    0.45
  -4   2   5    8.95    0.42
  -4   2   5    9.36    0.45
  -4   2   5    8.86    0.43
  -4   2   5    9.27    0.44
   3  -2  -5   21.81    0.85
   3  -2  -5   22.54    0.88
   3  -2  -5   21.64    0.87
   3  -2  -5   21.65    0.82
  -3   2   5   20.94    0.87
  -3   2   5   20.64    0.82
  -3   2   5   22.08    0.86
  -3   2   5   20.76    0.87
  -3   2   5   22.98    0.82
   2  -2  -5    3.70    0.26
   2  -2  -5    3.56    0.27
   2  -2  -5    3.62    0.25
   2  -2  -5    3.64    0.27
  -2   2   5    3.75    0.27
  -2   2   5    3.10    0.25
  -2   2   5    3.67    0.27
  -2   2   5    4.00    0.30
  -2   2   5    3.84    0.27
  -2   2   5    4.11    0.22
  -2   2   5    3.96    0.28
   1  -2  -5   22.57    0.91
   1  -2  -5   22.23    0.93
   1  -2  -5   23.19    0.92
   1  -2  -5   22.94    0.87
   1  -2  -5   23.73    0.99
   1  -2  -5   23.37    0.94
  -1   2   5   22.62    0.94
  -1   2   5   23.86    0.92
  -1   2   5   25.23    0.93
  -1   2   5   22.97    0.88
  -1   2   5   24.90    1.03
  -1   2   5   24.22    0.94
   0  -2  -5   24.44    0.89
   0  -2  -5   23.17    0.93
   0  -2  -5   24.08    0.92
   0  -2  -5   23.43    0.92
   0  -2  -5   23.38    0.94
   0   2   5   23.52    0.92
   0   2   5   22.46    0.94
   0   2   5   23.56    1.03
   0   2   5   24.11    0.95
  -1  -2  -5    4.02    0.29
  -1  -2  -5    4.13    0.28
  -1  -2  -5    4.57    0.27
  -1  -2  -5    3.93    0.29
   1   2   5    4.14    0.30
   1   2   5    4.37    0.28
   1   2   5    4.39    0.30
   1   2   5    3.49    0.29
   1   2   5    4.46    0.33
  -2  -2  -5    1.78    0.18
  -2  -2  -5    1.39    0.19
  -2  -2  -5    1.47    0.17
  -2  -2  -5    1.57    0.18
   2   2   5    1.46    0.20
   2   2   5    1.28    0.19
   2   2   5    1.47    0.20
   2   2   5    1.59    0.23
  -3  -2  -5   35.96    1.32
  -3  -2  -5   37.21    1.34
  -3  -2  -5   33.18    1.34
  -3  -2  -5   34.97    1.32
   3   2   5   33.09    1.49
   3   2   5   32.76    1.43
  -4  -2  -5   10.74    0.51
  -4  -2  -5    9.79    0.48
  -4  -2  -5   11.26    0.51
  -4  -2  -5   11.16    0.49
   4   2   5    9.98    0.59
  -5  -2  -5    4.65    0.30
  -5  -2  -5    4.25    0.34
   5   2   5    4.30    0.40
  -6  -2  -5   -0.23    0.19
   6   2   5   -0.19    0.27
  -7  -2  -5    4.63    0.38
   7   2   5    5.02    0.49
  -8  -2  -5   -0.02    0.24
 -10   3   5    3.03    0.43
 -10   3   5    2.63    0.29
  -9   3   5    1.32    0.21
  -9   3   5    1.01    0.35
  -9   3   5    0.81    0.23
  -8   3   5    0.05    0.18
  -8   3   5    0.15    0.33
  -8   3   5    0.26    0.20
  -7   3   5   -0.01    0.15
  -7   3   5    0.12    0.19
  -7   3   5    0.15    0.16
  -7   3   5   -0.05    0.17
  -7   3   5   -0.17    0.32
   6  -3  -5    1.94    0.22
  -6   3   5    2.10    0.24
  -6   3   5    1.76    0.21
  -6   3   5    2.00    0.23
  -6   3   5    2.01    0.22
  -6   3   5    2.03    0.33
  -6   3   5    1.76    0.21
   5  -3  -5    0.22    0.17
  -5   3   5    0.11    0.18
  -5   3   5    0.02    0.17
  -5   3   5    0.03    0.18
  -5   3   5    0.07    0.16
  -5   3   5   -0.16    0.15
   4  -3  -5    1.87    0.21
   4  -3  -5    1.38    0.19
  -4   3   5    1.63    0.21
  -4   3   5    1.81    0.20
  -4   3   5    1.89    0.22
  -4   3   5    1.66    0.20
  -4   3   5    1.79    0.21
   3  -3  -5   44.07    1.73
   3  -3  -5   46.17    1.75
   3  -3  -5   44.66    1.69
  -3   3   5   43.87    1.74
  -3   3   5   45.50    1.74
  -3   3   5   46.26    1.70
  -3   3   5   45.45    1.63
  -3   3   5   44.73    1.92
  -3   3   5   46.81    1.66
   2  -3  -5   31.01    1.24
   2  -3  -5   30.95    1.16
   2  -3  -5   31.90    1.22
  -2   3   5   31.16    1.17
  -2   3   5   32.97    1.37
  -2   3   5   31.41    1.18
  -2   3   5   31.85    1.25
  -2   3   5   30.73    1.21
  -2   3   5   32.97    1.26
   1  -3  -5    3.59    0.29
   1  -3  -5    3.55    0.29
   1  -3  -5    3.27    0.26
   1  -3  -5    2.91    0.28
  -1   3   5    3.69    0.30
  -1   3   5    3.47    0.29
  -1   3   5    3.00    0.24
  -1   3   5    2.95    0.25
  -1   3   5    3.20    0.26
  -1   3   5    4.08    0.32
  -1   3   5    3.39    0.25
   0  -3  -5   21.70    0.87
   0  -3  -5   21.66    0.88
   0  -3  -5   20.11    0.87
   0  -3  -5   22.23    0.87
   0   3   5   22.56    0.90
   0   3   5   22.29    0.97
   0   3   5   20.99    0.84
   0   3   5   20.57    0.87
  -1  -3  -5   22.27    0.89
  -1  -3  -5   22.79    0.90
  -1  -3  -5   21.22    0.89
   1   3   5   23.58    0.92
   1   3   5   20.30    0.86
   1   3   5   21.94    0.99
   1   3   5   22.15    0.92
   1   3   5   21.78    0.86
  -2  -3  -5   -0.12    0.17
  -2  -3  -5   -0.04    0.14
  -2  -3  -5    0.05    0.17
   2   3   5   -0.29    0.21
  -3  -3  -5   48.58    1.81
  -3  -3  -5   47.57    1.85
  -3  -3  -5   50.30    1.84
   3   3   5   45.61    2.04
  -4  -3  -5   17.61    0.74
  -4  -3  -5   17.36    0.72
  -4  -3  -5   16.11    0.71
   4   3   5   15.61    0.82
  -5  -3  -5    4.34    0.35
  -5  -3  -5    4.57    0.31
   5   3   5    4.35    0.42
  -6  -3  -5    0.38    0.23
   6   3   5    0.44    0.30
  -7  -3  -5   -0.29    0.23
   7   3   5   -0.19    0.32
 -10   4   5    0.70    0.37
 -10   4   5    0.57    0.25
  -9   4   5    0.07    0.35
  -9   4   5    0.07    0.19
  -9   4   5    0.19    0.22
  -8   4   5    0.10    0.14
  -8   4   5   -0.09    0.21
  -8   4   5    0.14    0.14
  -8   4   5    0.31    0.19
  -8   4   5   -0.07    0.34
  -7   4   5    0.96    0.17
  -7   4   5    1.03    0.18
  -7   4   5    0.86    0.22
  -7   4   5    0.91    0.35
  -7   4   5    0.82    0.20
   6  -4  -5    1.07    0.21
  -6   4   5    1.15    0.21
  -6   4   5    1.20    0.20
  -6   4   5    1.32    0.20
  -6   4   5    1.26    0.32
  -6   4   5    1.42    0.22
   5  -4  -5   -0.22    0.18
  -5   4   5    0.16    0.17
  -5   4   5    0.08    0.20
  -5   4   5   -0.13    0.17
  -5   4   5    0.10    0.19
   4  -4  -5    1.98    0.23
  -4   4   5    1.84    0.23
  -4   4   5    1.70    0.22
  -4   4   5    2.27    0.24
  -4   4   5    1.81    0.22
   3  -4  -5   22.70    0.96
  -3   4   5   23.57    0.97
  -3   4   5   23.35    0.91
  -3   4   5   23.33    0.89
  -3   4   5   23.62    0.95
  -3   4   5   24.34    1.08
  -3   4   5   24.12    0.98
   2  -4  -5   50.59    2.14
   2  -4  -5   52.66    2.01
  -2   4   5   56.32    2.23
  -2   4   5   52.87    1.95
  -2   4   5   52.09    1.90
  -2   4   5   51.26    2.03
  -2   4   5   51.78    2.04
  -2   4   5   55.13    1.98
   1  -4  -5    8.30    0.45
   1  -4  -5    8.31    0.48
   1  -4  -5    8.02    0.45
   1  -4  -5    8.56    0.44
  -1   4   5    9.20    0.50
  -1   4   5    7.39    0.46
  -1   4   5    8.17    0.40
  -1   4   5    8.31    0.47
  -1   4   5    8.64    0.47
  -1   4   5    7.66    0.45
   0  -4  -5    7.85    0.44
   0  -4  -5    7.52    0.44
   0  -4  -5    7.29    0.42
   0   4   5    8.71    0.49
   0   4   5    7.29    0.40
  -1  -4  -5   -0.07    0.15
  -1  -4  -5   -0.14    0.18
  -1  -4  -5    0.08    0.18
   1   4   5   -0.11    0.15
   1   4   5    0.14    0.22
  -2  -4  -5   17.08    0.73
  -2  -4  -5   16.69    0.72
  -2  -4  -5   17.04    0.73
   2   4   5   15.56    0.81
  -3  -4  -5    0.37    0.21
  -3  -4  -5   -0.07    0.18
  -3  -4  -5   -0.01    0.17
   3   4   5   -0.26    0.24
  -4  -4  -5   11.93    0.59
  -4  -4  -5   12.70    0.58
  -4  -4  -5   11.11    0.55
   4   4   5   11.09    0.66
  -5  -4  -5    2.85    0.31
  -5  -4  -5    4.02    0.32
   5   4   5    3.33    0.38
   6   4   5    5.05    0.48
  -9   5   5    6.19    0.42
  -9   5   5    5.77    0.58
  -9   5   5    5.74    0.37
  -8   5   5    2.71    0.24
  -8   5   5    2.85    0.24
  -8   5   5    2.98    0.30
  -8   5   5    2.91    0.42
  -8   5   5    2.85    0.27
  -7   5   5    3.54    0.42
  -7   5   5    2.79    0.26
  -7   5   5    2.70    0.29
  -7   5   5    2.62    0.24
  -7   5   5    2.59    0.24
   6  -5  -5    0.87    0.21
  -6   5   5    0.78    0.33
  -6   5   5    0.64    0.19
  -6   5   5    0.64    0.19
  -6   5   5    0.94    0.22
  -6   5   5    1.19    0.24
   5  -5  -5    4.21    0.35
  -5   5   5    4.12    0.35
  -5   5   5    4.10    0.32
  -5   5   5    3.61    0.31
  -5   5   5    4.58    0.34
  -5   5   5    3.99    0.43
   4  -5  -5    0.66    0.23
   4  -5  -5    0.41    0.20
  -4   5   5    0.16    0.20
  -4   5   5    0.49    0.20
  -4   5   5    0.48    0.24
  -4   5   5    0.39    0.20
   3  -5  -5    3.93    0.35
   3  -5  -5    4.11    0.35
  -3   5   5    3.94    0.23
  -3   5   5    4.21    0.39
  -3   5   5    3.63    0.32
  -3   5   5    3.85    0.33
  -3   5   5    3.88    0.34
  -3   5   5    4.44    0.36
   2  -5  -5    3.41    0.32
  -2   5   5    3.43    0.26
  -2   5   5    3.21    0.30
  -2   5   5    3.67    0.38
  -2   5   5    3.56    0.32
   1  -5  -5   13.86    0.66
  -1   5   5   14.63    0.61
  -1   5   5   14.35    0.72
   0  -5  -5   14.11    0.66
   0   5   5   14.22    0.61
   0   5   5   13.68    0.72
  -1  -5  -5    2.38    0.26
   1   5   5    2.19    0.31
  -2  -5  -5    3.50    0.34
   2   5   5    3.25    0.35
  -3  -5  -5    8.73    0.48
   3   5   5    7.76    0.53
  -4  -5  -5    1.05    0.24
   4   5   5    0.90    0.30
  -5  -5  -5    1.30    0.23
   5   5   5    1.36    0.35
  -9   6   5    3.11    0.33
  -9   6   5    3.82    0.33
  -8   6   5    3.67    0.28
  -8   6   5    3.25    0.27
  -8   6   5    3.92    0.37
  -8   6   5    4.08    0.47
  -8   6   5    3.63    0.33
  -7   6   5    0.68    0.36
  -7   6   5    0.09    0.21
  -7   6   5    0.54    0.25
  -7   6   5    0.54    0.19
  -7   6   5    0.45    0.20
   6  -6  -5    0.11    0.21
  -6   6   5   -0.21    0.19
  -6   6   5   -0.12    0.24
  -6   6   5   -0.47    0.18
  -6   6   5   -0.05    0.21
  -6   6   5    0.03    0.35
   5  -6  -5    9.49    0.50
   5  -6  -5   10.17    0.54
  -5   6   5    9.50    0.50
  -5   6   5    8.42    0.49
  -5   6   5    9.20    0.52
  -5   6   5    8.21    0.49
  -5   6   5    9.56    0.66
   4  -6  -5    9.46    0.51
  -4   6   5    8.63    0.51
  -4   6   5    9.66    0.66
  -4   6   5    8.85    0.49
   3  -6  -5    2.32    0.26
  -3   6   5    2.34    0.31
  -3   6   5    2.16    0.19
   2  -6  -5    1.11    0.23
  -2   6   5    1.11    0.29
  -2   6   5    0.82    0.16
   1  -6  -5    1.77    0.24
  -1   6   5    1.23    0.28
  -1   6   5    1.38    0.19
   0  -6  -5   13.23    0.64
   0   6   5   13.04    0.70
  -1  -6  -5    8.51    0.49
   1   6   5    8.76    0.56
  -2  -6  -5   -0.20    0.21
   2   6   5   -0.01    0.26
  -3  -6  -5    0.53    0.23
   3   6   5    0.43    0.29
  -4  -6  -5    0.22    0.24
   4   6   5    0.32    0.30
  -8   7   5    0.95    0.20
  -8   7   5    1.19    0.39
  -8   7   5    0.76    0.28
  -8   7   5    0.60    0.24
  -7   7   5    1.75    0.23
  -7   7   5    1.82    0.42
  -7   7   5    2.50    0.31
  -7   7   5    1.73    0.24
  -7   7   5    1.53    0.27
  -6   7   5    0.10    0.23
  -6   7   5   -0.26    0.20
  -6   7   5   -0.11    0.36
   5  -7  -5    0.83    0.25
  -5   7   5    1.03    0.26
  -5   7   5    1.63    0.39
   4  -7  -5    7.96    0.49
  -4   7   5    9.64    0.66
  -4   7   5    8.50    0.56
   3  -7  -5   -0.05    0.22
  -3   7   5    0.06    0.33
  -3   7   5    0.07    0.26
   2  -7  -5    0.56    0.23
  -2   7   5    0.45    0.28
   1  -7  -5    4.29    0.38
  -1   7   5    4.65    0.33
  -1   7   5    4.63    0.43
   0  -7  -5    9.43    0.54
   0   7   5    9.91    0.61
  -1  -7  -5    0.47    0.23
   1   7   5    0.26    0.28
  -2  -7  -5    0.35    0.24
   2   7   5    0.23    0.29
   3   7   5    0.39    0.31
  -6   8   5   -0.01    0.39
   5  -8  -5   -0.50    0.22
  -5   8   5    0.17    0.37
   4  -8  -5   -0.22    0.23
  -4   8   5    0.02    0.31
  -4   8   5   -0.19    0.38
   3  -8  -5    1.50    0.28
  -3   8   5    1.35    0.40
  -3   8   5    1.25    0.32
   2  -8  -5    4.85    0.42
  -2   8   5    4.54    0.47
  -2   8   5    4.99    0.55
   1  -8  -5    2.30    0.30
  -1   8   5    2.09    0.35
   0  -8  -5    0.84    0.27
   0   8   5    1.51    0.34
   1   8   5    5.88    0.53
  -5   9   5    0.55    0.41
   4  -9  -5    1.75    0.31
  -4   9   5    2.42    0.40
  -4   9   5    2.53    0.46
   3  -9  -5    4.52    0.44
  -3   9   5    4.90    0.48
  -2   9   5    0.55    0.32
  -1   9   5    1.95    0.38
   0 -12   6   -0.21    0.25
  -1  12  -6   -0.28    0.26
   1 -12   6   -0.31    0.24
  -2  12  -6    7.23    0.49
   2 -12   6    7.39    0.52
  -3  12  -6    0.99    0.27
  -3  12  -6    0.60    0.24
  -4  12  -6    5.33    0.37
  -4  12  -6    6.17    0.38
   1  11  -6    2.35    0.32
  -1 -11   6    2.16    0.30
   0  11  -6    3.74    0.35
   0 -11   6    4.57    0.41
  -1  11  -6   -0.14    0.26
   1 -11   6   -0.21    0.23
  -2  11  -6   -0.19    0.21
  -2  11  -6    0.26    0.24
   2 -11   6   -0.42    0.21
  -3  11  -6    0.34    0.21
  -3  11  -6    0.53    0.21
  -3  11  -6    0.32    0.23
  -4  11  -6    0.37    0.18
  -4  11  -6    0.18    0.21
  -4  11  -6   -0.01    0.16
  -5  11  -6    8.87    0.41
  -6  11  -6   13.97    0.58
   6 -11   6   12.48    0.64
   7 -11   6    0.79    0.23
   3  10  -6   -0.22    0.27
  -3 -10   6   -0.02    0.25
   2  10  -6    2.59    0.33
  -2 -10   6    2.14    0.30
   1  10  -6   16.00    0.76
  -1 -10   6   15.88    0.77
   0  10  -6   11.82    0.60
   0 -10   6   11.55    0.60
  -1  10  -6    1.08    0.25
   1 -10   6    1.20    0.24
  -2  10  -6   -0.24    0.21
  -2  10  -6   -0.35    0.18
  -2  10  -6   -0.11    0.19
   2 -10   6   -0.29    0.20
  -3  10  -6   -0.16    0.17
  -3  10  -6    0.05    0.18
  -3  10  -6   -0.10    0.20
   3 -10   6   -0.11    0.20
  -4  10  -6    1.07    0.21
  -4  10  -6    0.98    0.21
  -4  10  -6    1.18    0.18
  -4  10  -6    1.37    0.18
  -5  10  -6    0.52    0.19
  -6  10  -6   12.19    0.50
   6 -10   6   11.12    0.57
  -7  10  -6   -0.10    0.19
   7 -10   6   -0.11    0.18
   8 -10   6    2.20    0.24
   5   9  -6    0.77    0.30
   4   9  -6    0.16    0.26
  -4  -9   6   -0.05    0.24
   3   9  -6   -0.72    0.24
  -3  -9   6   -0.10    0.24
   2   9  -6    7.79    0.48
  -2  -9   6    7.61    0.48
   1   9  -6    5.98    0.41
  -1  -9   6    6.12    0.42
   0   9  -6   11.34    0.57
   0  -9   6   11.53    0.57
  -1   9  -6    0.92    0.22
  -1   9  -6    0.76    0.20
  -1   9  -6    1.02    0.22
   1  -9   6    1.01    0.21
  -2   9  -6    0.81    0.20
  -2   9  -6    0.75    0.19
  -2   9  -6    0.65    0.21
   2  -9   6    0.70    0.20
  -3   9  -6    4.33    0.30
  -3   9  -6    4.74    0.31
  -3   9  -6    5.10    0.34
  -3   9  -6    5.12    0.33
   3  -9   6    4.72    0.35
  -4   9  -6   -0.20    0.20
  -4   9  -6    0.07    0.17
  -4   9  -6   -0.15    0.13
  -4   9  -6   -0.25    0.17
  -4   9  -6   -0.10    0.13
  -5   9  -6    1.33    0.19
  -5   9  -6    1.18    0.21
  -6   9  -6    0.85    0.15
  -6   9  -6    0.80    0.19
   6  -9   6    0.53    0.18
  -7   9  -6    5.49    0.32
   7  -9   6    5.51    0.34
   6   8  -6    0.27    0.29
   6   8  -6    0.00    0.27
   5   8  -6    0.30    0.27
   5   8  -6    0.31    0.26
  -5  -8   6    0.62    0.26
   4   8  -6   -0.11    0.24
   4   8  -6    0.03    0.22
  -4  -8   6   -0.24    0.21
   3   8  -6    4.61    0.39
   3   8  -6    4.83    0.38
  -3  -8   6    4.48    0.38
   2   8  -6    3.58    0.31
   2   8  -6    2.94    0.30
  -2  -8   6    2.98    0.29
   1   8  -6    7.25    0.44
   1   8  -6    7.43    0.40
  -1  -8   6    7.50    0.44
   0   8  -6    6.42    0.40
   0   8  -6    7.04    0.41
   0   8  -6    6.90    0.42
   0  -8   6    6.64    0.42
  -1   8  -6    5.28    0.35
  -1   8  -6    6.19    0.37
  -1   8  -6    4.95    0.35
  -1   8  -6    6.07    0.38
   1  -8   6    5.53    0.38
   1  -8   6    6.71    0.35
  -2   8  -6   11.12    0.53
  -2   8  -6   11.62    0.53
  -2   8  -6   11.49    0.53
  -2   8  -6   12.73    0.56
  -2   8  -6   12.19    0.52
   2  -8   6   10.84    0.54
   2  -8   6   11.87    0.52
  -3   8  -6    7.03    0.37
  -3   8  -6    7.69    0.42
  -3   8  -6    7.44    0.38
  -3   8  -6    7.76    0.39
  -3   8  -6    7.20    0.36
   3  -8   6    7.25    0.40
  -4   8  -6    2.80    0.25
  -4   8  -6    2.83    0.24
  -4   8  -6    3.12    0.20
  -4   8  -6    3.11    0.25
  -4   8  -6    2.85    0.20
  -5   8  -6    0.43    0.17
  -5   8  -6    0.58    0.15
  -6   8  -6    2.04    0.19
   6  -8   6    1.82    0.19
   7   7  -6    2.17    0.35
   6   7  -6   -0.51    0.25
   6   7  -6   -0.20    0.25
  -6  -7   6   -0.25    0.23
   5   7  -6    0.67    0.25
   5   7  -6    0.35    0.25
  -5  -7   6    0.59    0.24
   4   7  -6   -0.16    0.22
   4   7  -6   -0.32    0.21
  -4  -7   6   -0.40    0.21
   3   7  -6    0.25    0.20
   3   7  -6    0.44    0.22
  -3  -7   6    0.19    0.21
   2   7  -6    3.36    0.29
   2   7  -6    3.59    0.33
  -2  -7   6    3.40    0.33
   1   7  -6    0.03    0.18
   1   7  -6   -0.06    0.14
   1   7  -6    0.14    0.18
   1   7  -6    0.10    0.19
  -1  -7   6    0.20    0.18
   0   7  -6    9.66    0.47
   0   7  -6    9.37    0.47
   0   7  -6    9.62    0.45
   0   7  -6    9.14    0.47
   0  -7   6    8.26    0.47
   0  -7   6    9.11    0.43
  -1   7  -6   49.55    1.91
  -1   7  -6   50.42    1.89
  -1   7  -6   48.74    1.90
  -1   7  -6   49.85    1.78
  -1   7  -6   53.37    1.87
   1  -7   6   52.50    1.85
   1  -7   6   49.66    1.92
   1  -7   6   48.12    1.78
   1  -7   6   46.70    1.89
  -2   7  -6   20.22    0.78
  -2   7  -6   19.23    0.82
  -2   7  -6   20.27    0.82
  -2   7  -6   20.89    0.83
  -2   7  -6   19.64    0.82
   2  -7   6   20.09    0.83
   2  -7   6   21.53    0.80
  -3   7  -6   10.77    0.46
  -3   7  -6   10.06    0.46
  -3   7  -6   10.94    0.49
  -3   7  -6   10.60    0.46
  -3   7  -6   10.54    0.46
   3  -7   6   10.23    0.48
  -4   7  -6   -0.03    0.15
  -4   7  -6    0.07    0.13
   4  -7   6    0.07    0.14
  -5   7  -6    2.41    0.20
  -5   7  -6    2.30    0.18
  -6   7  -6    2.37    0.22
   7   6  -6    0.96    0.31
  -7  -6   6    0.76    0.26
   6   6  -6    0.31    0.26
   6   6  -6    0.27    0.25
  -6  -6   6    0.28    0.22
   5   6  -6   10.55    0.57
   5   6  -6   10.57    0.59
  -5  -6   6   10.33    0.55
   4   6  -6   12.38    0.64
   4   6  -6   12.39    0.60
  -4  -6   6   12.32    0.51
  -4  -6   6   12.27    0.61
   3   6  -6    0.94    0.22
   3   6  -6    0.99    0.21
  -3  -6   6    0.89    0.15
  -3  -6   6    0.93    0.20
  -3  -6   6    0.91    0.21
   2   6  -6    0.95    0.20
   2   6  -6    1.14    0.20
   2   6  -6    1.16    0.19
   2   6  -6    1.18    0.21
  -2  -6   6    1.21    0.21
  -2  -6   6    1.03    0.19
  -2  -6   6    1.15    0.19
  -2  -6   6    0.88    0.15
  -2  -6   6    0.99    0.18
   1   6  -6    1.08    0.18
   1   6  -6    1.06    0.15
   1   6  -6    0.77    0.19
   1   6  -6    0.91    0.19
   1   6  -6    0.92    0.18
   1   6  -6    1.01    0.18
  -1  -6   6    0.84    0.18
  -1  -6   6    0.94    0.18
  -1  -6   6    0.94    0.14
  -1  -6   6    0.92    0.19
   0   6  -6    0.84    0.17
   0   6  -6    1.17    0.18
   0   6  -6    0.72    0.17
   0   6  -6    1.21    0.18
   0  -6   6    1.16    0.16
   0  -6   6    1.22    0.14
   0  -6   6    1.24    0.17
   0  -6   6    0.91    0.16
   0  -6   6    0.90    0.18
  -1   6  -6   60.47    2.36
  -1   6  -6   63.15    2.34
  -1   6  -6   62.92    2.21
  -1   6  -6   65.12    2.31
  -1   6  -6   60.05    2.36
   1  -6   6   63.53    2.37
   1  -6   6   58.88    2.35
   1  -6   6   62.30    2.20
   1  -6   6   67.71    2.30
  -2   6  -6   20.49    0.84
  -2   6  -6   21.30    0.80
  -2   6  -6   21.94    0.84
  -2   6  -6   21.26    0.84
  -2   6  -6   22.23    0.84
   2  -6   6   20.10    0.85
  -3   6  -6    8.57    0.37
  -3   6  -6    8.13    0.37
  -3   6  -6    8.45    0.40
  -3   6  -6    7.97    0.37
  -3   6  -6    8.07    0.36
   3  -6   6    8.34    0.40
  -4   6  -6    0.87    0.13
  -4   6  -6    0.89    0.15
   4  -6   6    1.19    0.15
  -5   6  -6    0.87    0.15
  -5   6  -6    0.94    0.15
   8   5  -6    3.75    0.43
  -8  -5   6    4.09    0.35
   7   5  -6    1.97    0.33
  -7  -5   6    1.69    0.26
   6   5  -6   -0.09    0.25
   6   5  -6   -0.41    0.21
  -6  -5   6   -0.23    0.21
   5   5  -6    3.32    0.32
   5   5  -6    2.41    0.28
  -5  -5   6    2.89    0.28
  -5  -5   6    3.72    0.34
  -5  -5   6    3.39    0.30
   4   5  -6   13.63    0.65
   4   5  -6   13.03    0.69
  -4  -5   6   15.06    0.67
  -4  -5   6   14.78    0.57
  -4  -5   6   14.35    0.67
  -4  -5   6   14.55    0.62
  -4  -5   6   13.77    0.64
   3   5  -6    0.53    0.20
   3   5  -6    0.29    0.19
  -3  -5   6    0.57    0.19
  -3  -5   6    0.64    0.19
  -3  -5   6    0.57    0.17
  -3  -5   6    0.56    0.12
  -3  -5   6    0.39    0.17
   2   5  -6   -0.23    0.15
   2   5  -6    0.07    0.17
   2   5  -6   -0.14    0.15
   2   5  -6   -0.18    0.15
  -2  -5   6    0.08    0.16
  -2  -5   6    0.10    0.11
  -2  -5   6    0.24    0.15
  -2  -5   6   -0.01    0.14
  -2  -5   6    0.03    0.17
   1   5  -6    6.02    0.32
   1   5  -6    5.99    0.36
   1   5  -6    5.87    0.32
   1   5  -6    5.55    0.34
   1   5  -6    5.74    0.34
  -1  -5   6    5.58    0.34
  -1  -5   6    5.95    0.34
  -1  -5   6    5.65    0.29
   0   5  -6    2.50    0.20
   0   5  -6    2.64    0.22
   0   5  -6    2.56    0.20
   0  -5   6    2.59    0.20
   0  -5   6    2.55    0.23
   0  -5   6    2.77    0.24
   0  -5   6    2.69    0.22
  -1   5  -6    3.74    0.26
  -1   5  -6    3.43    0.24
  -1   5  -6    3.58    0.24
  -1   5  -6    3.78    0.27
   1  -5   6    3.65    0.24
   1  -5   6    3.54    0.25
  -2   5  -6   15.25    0.61
  -2   5  -6   15.16    0.58
  -2   5  -6   14.67    0.60
  -2   5  -6   15.00    0.61
  -2   5  -6   14.67    0.61
  -3   5  -6    1.68    0.16
  -3   5  -6    1.62    0.15
  -3   5  -6    1.59    0.14
  -3   5  -6    1.54    0.15
  -3   5  -6    1.52    0.13
  -3   5  -6    1.47    0.16
  -4   5  -6   21.01    0.73
  -4   5  -6   18.87    0.77
  -4   5  -6   20.05    0.77
  -5   5  -6    5.46    0.28
  -5   5  -6    5.78    0.29
   5  -5   6    5.14    0.32
   6  -5   6    6.13    0.38
   8   4  -6    0.37    0.32
  -8  -4   6    0.21    0.19
  -8  -4   6   -0.41    0.22
   7   4  -6   17.95    0.81
   7   4  -6   18.32    0.91
  -7  -4   6   17.91    0.82
  -7  -4   6   17.70    0.77
  -7  -4   6   19.79    0.82
  -7  -4   6   18.32    0.81
   6   4  -6   13.79    0.65
   6   4  -6   13.81    0.72
  -6  -4   6   13.37    0.61
  -6  -4   6   14.04    0.65
  -6  -4   6   14.18    0.65
  -6  -4   6   13.50    0.64
   5   4  -6   -0.11    0.20
  -5  -4   6   -0.21    0.18
  -5  -4   6    0.12    0.20
  -5  -4   6   -0.05    0.19
  -5  -4   6    0.27    0.18
   4   4  -6    0.29    0.20
  -4  -4   6    0.20    0.17
  -4  -4   6    0.31    0.19
  -4  -4   6    0.28    0.17
  -4  -4   6    0.36    0.19
  -4  -4   6    0.11    0.10
   3   4  -6    1.78    0.21
   3   4  -6    1.85    0.21
   3   4  -6    1.88    0.19
   3   4  -6    1.35    0.19
  -3  -4   6    1.80    0.19
  -3  -4   6    1.65    0.20
  -3  -4   6    1.54    0.15
  -3  -4   6    1.75    0.19
   2   4  -6    2.58    0.22
   2   4  -6    3.13    0.25
   2   4  -6    3.28    0.25
   2   4  -6    3.00    0.25
   2   4  -6    2.82    0.23
  -2  -4   6    2.39    0.24
  -2  -4   6    2.88    0.21
  -2  -4   6    2.93    0.22
  -2  -4   6    2.83    0.24
   1   4  -6    1.89    0.19
   1   4  -6    1.76    0.17
   1   4  -6    2.25    0.19
   1   4  -6    2.06    0.19
   1   4  -6    1.79    0.17
   1   4  -6    2.05    0.16
  -1  -4   6    2.39    0.19
  -1  -4   6    1.47    0.17
  -1  -4   6    1.78    0.17
   0   4  -6    1.82    0.17
   0   4  -6    2.13    0.18
   0   4  -6    1.88    0.18
   0   4  -6    1.88    0.17
   0  -4   6    2.28    0.17
   0  -4   6    2.11    0.17
   0  -4   6    2.47    0.22
  -1   4  -6    0.12    0.12
  -1   4  -6    0.09    0.11
  -1   4  -6    0.26    0.13
  -1   4  -6    0.07    0.11
  -1   4  -6    0.26    0.12
   1  -4   6   -0.02    0.11
   1  -4   6   -0.01    0.11
  -2   4  -6   26.37    0.98
  -2   4  -6   25.66    0.92
  -2   4  -6   23.42    0.96
  -2   4  -6   25.13    0.97
  -2   4  -6   26.51    0.97
  -3   4  -6   13.69    0.53
  -3   4  -6   13.69    0.52
  -3   4  -6   12.56    0.54
  -3   4  -6   13.87    0.53
  -3   4  -6   12.94    0.54
  -4   4  -6   22.01    0.82
  -4   4  -6   21.39    0.82
  -4   4  -6   21.98    0.78
   4  -4   6   20.07    0.91
  -5   4  -6    1.92    0.16
  -5   4  -6    1.63    0.17
   5  -4   6    1.99    0.20
   6  -4   6   10.05    0.53
   7  -4   6    0.12    0.20
   8  -4   6    0.12    0.23
  -9  -3   6   -0.18    0.17
  -9  -3   6   -0.01    0.20
   8   3  -6   -0.71    0.28
  -8  -3   6   -0.01    0.19
  -8  -3   6   -0.02    0.18
  -8  -3   6    0.06    0.25
  -8  -3   6   -0.30    0.20
   7   3  -6    1.42    0.26
  -7  -3   6    1.53    0.23
  -7  -3   6    1.72    0.25
  -7  -3   6    2.12    0.25
  -7  -3   6    1.95    0.28
   6   3  -6   31.36    1.27
  -6  -3   6   32.78    1.27
  -6  -3   6   31.97    1.20
  -6  -3   6   31.36    1.26
  -6  -3   6   31.28    1.28
   5   3  -6    8.28    0.46
  -5  -3   6    8.30    0.46
  -5  -3   6    7.90    0.44
  -5  -3   6    8.52    0.44
  -5  -3   6    8.06    0.46
   4   3  -6    1.33    0.20
   4   3  -6    1.36    0.20
  -4  -3   6    1.15    0.20
  -4  -3   6    1.12    0.19
  -4  -3   6    1.23    0.19
   3   3  -6   -0.02    0.14
   3   3  -6    0.01    0.13
   3   3  -6    0.06    0.16
   3   3  -6    0.07    0.14
  -3  -3   6    0.09    0.13
  -3  -3   6   -0.06    0.10
  -3  -3   6   -0.05    0.14
  -3  -3   6   -0.15    0.15
   2   3  -6   36.42    1.42
   2   3  -6   39.87    1.41
   2   3  -6   36.75    1.34
   2   3  -6   39.90    1.40
  -2  -3   6   35.72    1.34
  -2  -3   6   35.42    1.39
  -2  -3   6   37.65    1.38
  -2  -3   6   35.73    1.43
   1   3  -6    0.51    0.14
   1   3  -6    0.39    0.14
   1   3  -6    0.41    0.14
   1   3  -6    0.55    0.13
   1   3  -6    0.45    0.13
  -1  -3   6    0.56    0.14
  -1  -3   6    0.13    0.13
   0   3  -6    3.58    0.25
   0   3  -6    3.81    0.24
   0   3  -6    3.64    0.25
   0   3  -6    3.63    0.24
   0   3  -6    3.47    0.24
   0  -3   6    3.47    0.24
   0  -3   6    3.59    0.25
   0  -3   6    3.23    0.24
  -1   3  -6    0.26    0.10
  -1   3  -6    0.13    0.11
  -1   3  -6    0.00    0.12
  -1   3  -6    0.13    0.11
  -1   3  -6    0.13    0.12
  -1   3  -6   -0.05    0.11
   1  -3   6    0.03    0.11
   1  -3   6    0.21    0.11
   1  -3   6    0.12    0.12
  -2   3  -6    3.89    0.25
  -2   3  -6    3.84    0.23
  -2   3  -6    4.09    0.25
  -2   3  -6    4.17    0.23
  -2   3  -6    4.01    0.23
  -2   3  -6    3.56    0.24
   2  -3   6    4.01    0.24
  -3   3  -6   44.53    1.66
  -3   3  -6   44.26    1.67
  -3   3  -6   47.14    1.58
  -3   3  -6   45.78    1.69
  -3   3  -6   45.89    1.66
   3  -3   6   42.52    1.85
  -4   3  -6   59.77    2.02
  -4   3  -6   58.26    2.12
  -4   3  -6   61.05    2.12
   4  -3   6   53.02    2.38
  -5   3  -6    0.14    0.13
  -5   3  -6    0.00    0.13
   5  -3   6    0.36    0.18
  -6   3  -6    4.19    0.26
  -6   3  -6    4.15    0.26
   6  -3   6    4.23    0.35
   7  -3   6    9.93    0.56
   8  -3   6    0.09    0.25
   9  -3   6   -0.12    0.27
   9   2  -6    1.52    0.35
  -9  -2   6    1.32    0.23
  -9  -2   6    1.42    0.19
  -9  -2   6    1.47    0.29
  -8  -2   6   -0.07    0.17
  -8  -2   6   -0.29    0.21
  -8  -2   6   -0.30    0.20
  -8  -2   6   -0.05    0.22
   7   2  -6   -0.64    0.21
  -7  -2   6   -0.45    0.20
  -7  -2   6   -0.37    0.17
  -7  -2   6   -0.25    0.19
  -7  -2   6   -0.15    0.24
  -7  -2   6   -0.57    0.21
   6   2  -6   11.78    0.56
  -6  -2   6   11.93    0.57
  -6  -2   6   11.01    0.55
  -6  -2   6   11.38    0.53
  -6  -2   6   11.72    0.57
   5   2  -6   10.86    0.51
  -5  -2   6   10.77    0.52
  -5  -2   6   10.44    0.48
  -5  -2   6   10.06    0.50
   4   2  -6   47.05    1.76
   4   2  -6   46.40    1.71
   4   2  -6   46.26    1.74
  -4  -2   6   43.69    1.64
  -4  -2   6   46.00    1.71
  -4  -2   6   44.42    1.76
   3   2  -6    0.58    0.14
   3   2  -6    0.55    0.14
   3   2  -6    0.67    0.16
   3   2  -6    0.69    0.14
  -3  -2   6    0.76    0.16
  -3  -2   6    0.84    0.15
  -3  -2   6    0.77    0.15
  -3  -2   6    0.44    0.10
   2   2  -6    6.31    0.35
   2   2  -6    5.91    0.31
   2   2  -6    5.60    0.33
   2   2  -6    6.01    0.33
  -2  -2   6    5.73    0.28
  -2  -2   6    5.76    0.33
  -2  -2   6    6.34    0.34
  -2  -2   6    6.20    0.32
  -2  -2   6    5.73    0.33
   1   2  -6    6.70    0.35
   1   2  -6    5.90    0.30
   1   2  -6    6.24    0.33
   1   2  -6    6.08    0.33
   1   2  -6    5.90    0.32
  -1  -2   6    6.03    0.33
  -1  -2   6    5.98    0.33
  -1  -2   6    6.07    0.33
   0   2  -6    1.22    0.16
   0   2  -6    1.25    0.15
   0   2  -6    1.27    0.15
   0   2  -6    1.53    0.15
   0  -2   6    1.39    0.16
   0  -2   6    1.12    0.15
   0  -2   6    1.31    0.15
   0  -2   6    1.51    0.16
  -1   2  -6    9.67    0.43
  -1   2  -6    9.90    0.43
  -1   2  -6    9.94    0.43
  -1   2  -6    9.34    0.41
  -1   2  -6    9.64    0.43
   1  -2   6    9.52    0.46
   1  -2   6   10.24    0.42
   1  -2   6    9.43    0.43
  -2   2  -6    1.62    0.16
  -2   2  -6    1.52    0.16
  -2   2  -6    1.74    0.14
  -2   2  -6    1.55    0.14
  -2   2  -6    1.69    0.15
   2  -2   6    1.90    0.17
  -3   2  -6    2.85    0.24
  -3   2  -6    2.86    0.21
  -3   2  -6    2.96    0.19
  -3   2  -6    3.01    0.21
  -3   2  -6    2.59    0.24
   3  -2   6    2.89    0.25
  -4   2  -6   11.28    0.47
  -4   2  -6   10.59    0.48
   4  -2   6   10.60    0.54
  -5   2  -6   26.56    0.98
  -5   2  -6   26.29    0.98
   5  -2   6   24.10    1.11
   5  -2   6   25.08    1.05
  -6   2  -6   -0.02    0.15
  -6   2  -6    0.29    0.14
   6  -2   6    0.19    0.15
   6  -2   6    0.53    0.22
  -7   2  -6    0.07    0.16
  -7   2  -6    0.12    0.15
   7  -2   6    0.05    0.24
   7  -2   6   -0.03    0.15
  -8   2  -6    3.05    0.26
   8  -2   6    3.51    0.36
   8  -2   6    3.52    0.30
   9  -2   6    2.53    0.37
  -9  -1   6   12.46    0.58
  -9  -1   6   13.44    0.64
  -9  -1   6   12.42    0.57
  -8  -1   6    0.19    0.22
  -8  -1   6    1.02    0.25
  -8  -1   6    0.48    0.19
  -8  -1   6    0.44    0.22
   7   1  -6    0.88    0.23
  -7  -1   6    1.13    0.29
  -7  -1   6    0.62    0.24
  -7  -1   6    0.80    0.19
  -7  -1   6    0.57    0.21
  -7  -1   6    0.65    0.21
   6   1  -6   12.44    0.57
  -6  -1   6   12.33    0.58
  -6  -1   6   11.71    0.56
  -6  -1   6   11.87    0.54
   5   1  -6   22.98    0.94
  -5  -1   6   22.81    0.93
  -5  -1   6   21.46    0.93
  -5  -1   6   24.76    0.94
  -5  -1   6   23.13    0.89
   4   1  -6   64.33    2.34
   4   1  -6   61.06    2.39
   4   1  -6   64.99    2.41
  -4  -1   6   64.87    2.41
  -4  -1   6   62.43    2.34
  -4  -1   6   61.31    2.24
  -4  -1   6   65.94    2.35
   3   1  -6   63.02    2.15
   3   1  -6   58.40    2.29
   3   1  -6   64.08    2.32
   3   1  -6   61.52    2.25
  -3  -1   6   61.61    2.32
  -3  -1   6   58.14    2.25
  -3  -1   6   60.09    2.16
  -3  -1   6   62.14    2.23
   2   1  -6    4.07    0.26
   2   1  -6    3.92    0.24
   2   1  -6    3.74    0.27
  -2  -1   6    2.70    0.24
  -2  -1   6    2.66    0.24
  -2  -1   6    2.63    0.21
  -2  -1   6    3.24    0.26
   1   1  -6    0.49    0.14
   1   1  -6    0.27    0.12
   1   1  -6    0.49    0.14
   1   1  -6    0.44    0.13
   1   1  -6    0.40    0.13
  -1  -1   6    0.72    0.16
  -1  -1   6    0.49    0.14
  -1  -1   6    0.38    0.14
  -1  -1   6    0.44    0.14
   0   1  -6    0.14    0.13
   0   1  -6    0.04    0.11
   0   1  -6    0.08    0.12
   0   1  -6    0.22    0.11
   0  -1   6   -0.05    0.12
   0  -1   6    0.17    0.12
   0  -1   6   -0.10    0.14
   0  -1   6    0.19    0.12
  -1   1  -6    1.79    0.15
  -1   1  -6    1.53    0.16
  -1   1  -6    1.44    0.15
  -1   1  -6    1.71    0.16
  -1   1  -6    1.82    0.17
   1  -1   6    1.37    0.16
   1  -1   6    1.33    0.15
   1  -1   6    1.60    0.18
   1  -1   6    1.62    0.15
  -2   1  -6    6.41    0.33
  -2   1  -6    6.51    0.31
  -2   1  -6    6.31    0.31
  -2   1  -6    6.40    0.32
  -2   1  -6    6.19    0.33
   2  -1   6    6.55    0.32
   2  -1   6    6.18    0.36
  -3   1  -6    3.45    0.26
  -3   1  -6    3.54    0.22
  -3   1  -6    3.44    0.25
  -3   1  -6    3.46    0.24
  -3   1  -6    3.17    0.25
  -3   1  -6    3.41    0.21
   3  -1   6    2.87    0.29
  -4   1  -6    0.47    0.16
  -4   1  -6    0.54    0.12
  -4   1  -6    0.40    0.11
  -4   1  -6    0.29    0.15
   4  -1   6    0.35    0.20
  -5   1  -6    5.91    0.33
  -5   1  -6    6.38    0.34
   5  -1   6    5.84    0.41
   5  -1   6    5.35    0.35
  -6   1  -6   24.29    0.91
  -6   1  -6   24.57    0.91
   6  -1   6   21.95    1.05
   6  -1   6   21.57    0.98
  -7   1  -6    3.71    0.29
  -7   1  -6    3.08    0.29
   7  -1   6    3.36    0.35
  -8   1  -6    0.88    0.20
  -8   1  -6    0.60    0.19
   8  -1   6    1.29    0.31
   9  -1   6    0.15    0.32
 -10   0   6    3.25    0.34
  -9   0   6    8.30    0.51
  -9   0   6    9.12    0.46
  -8   0   6    0.92    0.19
  -8   0   6    0.80    0.21
  -8   0   6    0.76    0.32
  -8   0   6    0.41    0.20
  -8   0   6    0.57    0.24
   7   0  -6    0.51    0.21
  -7   0   6    0.59    0.20
  -7   0   6    0.39    0.22
  -7   0   6    1.20    0.29
  -7   0   6    0.54    0.18
   6   0  -6   10.68    0.52
  -6   0   6    9.92    0.48
  -6   0   6   10.25    0.49
  -6   0   6   10.32    0.53
   5   0  -6   26.93    1.07
  -5   0   6   27.36    1.08
  -5   0   6   26.34    1.01
  -5   0   6   26.60    1.06
  -5   0   6   26.23    1.06
   4   0  -6   57.52    2.23
   4   0  -6   59.60    2.19
   4   0  -6   60.28    2.26
  -4   0   6   58.12    2.10
  -4   0   6   60.20    2.26
  -4   0   6   59.03    2.20
  -4   0   6   60.24    2.20
   3   0  -6   65.39    2.43
   3   0  -6   68.48    2.50
   3   0  -6   64.53    2.48
   3   0  -6   68.86    2.33
  -3   0   6   62.52    2.32
  -3   0   6   66.63    2.43
  -3   0   6   64.75    2.50
  -3   0   6   67.78    2.41
   2   0  -6    0.32    0.14
   2   0  -6    0.53    0.13
   2   0  -6    0.31    0.13
  -2   0   6    0.46    0.15
  -2   0   6    0.80    0.15
  -2   0   6    0.48    0.14
  -2   0   6    0.41    0.13
   1   0  -6    3.70    0.28
   1   0  -6    3.63    0.27
   1   0  -6    3.81    0.27
   1   0  -6    3.80    0.26
   1   0  -6    3.93    0.27
  -1   0   6    4.07    0.27
  -1   0   6    4.50    0.31
  -1   0   6    4.10    0.31
  -1   0   6    4.36    0.27
   0   0  -6    1.19    0.15
   0   0  -6    1.20    0.15
   0   0  -6    1.23    0.15
   0   0  -6    1.28    0.16
   0   0   6    1.08    0.15
   0   0   6    1.15    0.15
   0   0   6    1.26    0.18
   0   0   6    1.26    0.16
  -1   0  -6    9.33    0.43
  -1   0  -6    9.57    0.41
  -1   0  -6    9.15    0.44
  -1   0  -6    9.32    0.43
  -1   0  -6    8.92    0.43
  -1   0  -6    9.06    0.44
   1   0   6   10.07    0.48
   1   0   6    9.57    0.43
   1   0   6    8.95    0.42
   1   0   6    9.58    0.44
  -2   0  -6    1.58    0.17
  -2   0  -6    1.67    0.17
  -2   0  -6    1.53    0.17
  -2   0  -6    1.54    0.17
  -2   0  -6    1.33    0.15
   2   0   6    1.23    0.16
   2   0   6    1.43    0.20
   2   0   6    1.26    0.18
  -3   0  -6    1.99    0.18
  -3   0  -6    2.13    0.19
  -3   0  -6    2.09    0.19
  -3   0  -6    2.27    0.19
  -3   0  -6    1.81    0.20
   3   0   6    1.95    0.25
  -4   0  -6    2.21    0.21
  -4   0  -6    1.91    0.18
  -4   0  -6    1.96    0.19
  -4   0  -6    2.17    0.21
   4   0   6    2.07    0.22
   4   0   6    2.15    0.27
  -5   0  -6   14.67    0.56
  -5   0  -6   12.63    0.56
  -5   0  -6   15.03    0.61
  -5   0  -6   13.94    0.60
   5   0   6   13.19    0.65
   5   0   6   13.64    0.70
  -6   0  -6   11.76    0.53
  -6   0  -6   11.22    0.53
   6   0   6   11.19    0.64
  -7   0  -6    5.70    0.37
   7   0   6    5.45    0.47
  -8   0  -6   -0.09    0.21
   8   0   6   -0.22    0.29
 -10   1   6    5.56    0.44
  -9   1   6    1.20    0.27
  -9   1   6    1.82    0.24
  -9   1   6    1.35    0.35
  -8   1   6    3.24    0.39
  -8   1   6    3.13    0.28
  -8   1   6    3.08    0.30
  -8   1   6    2.70    0.24
  -8   1   6    2.95    0.27
   7  -1  -6    0.09    0.20
  -7   1   6    0.19    0.17
  -7   1   6    0.17    0.21
  -7   1   6   -0.20    0.16
  -7   1   6   -0.22    0.18
  -7   1   6   -0.06    0.28
   6  -1  -6    8.06    0.43
  -6   1   6    7.35    0.41
  -6   1   6    7.81    0.45
  -6   1   6    7.54    0.42
   5  -1  -6    8.17    0.44
  -5   1   6    7.32    0.44
  -5   1   6    7.86    0.45
  -5   1   6    8.29    0.43
  -5   1   6    7.74    0.42
   4  -1  -6    3.71    0.30
   4  -1  -6    3.88    0.31
  -4   1   6    3.28    0.31
  -4   1   6    3.63    0.28
  -4   1   6    3.51    0.29
  -4   1   6    3.77    0.33
   3  -1  -6   83.16    2.84
   3  -1  -6   78.90    3.05
   3  -1  -6   83.45    2.96
   3  -1  -6   81.60    3.03
  -3   1   6   79.14    2.84
  -3   1   6   84.59    2.94
  -3   1   6   79.37    2.96
  -3   1   6   78.14    3.05
   2  -1  -6   57.12    2.02
   2  -1  -6   53.22    1.93
   2  -1  -6   54.07    2.06
  -2   1   6   53.62    2.02
  -2   1   6   52.47    2.08
  -2   1   6   55.42    2.28
  -2   1   6   58.23    2.03
  -2   1   6   52.80    1.94
   1  -1  -6   25.27    0.98
   1  -1  -6   23.84    0.98
   1  -1  -6   26.24    0.96
   1  -1  -6   23.42    0.95
   1  -1  -6   25.39    0.92
  -1   1   6   23.85    0.92
  -1   1   6   25.52    1.08
  -1   1   6   24.80    0.96
  -1   1   6   23.01    0.98
   0  -1  -6   16.13    0.66
   0  -1  -6   14.55    0.69
   0  -1  -6   16.48    0.66
   0  -1  -6   15.99    0.63
   0  -1  -6   16.19    0.67
   0   1   6   15.35    0.67
   0   1   6   15.73    0.65
   0   1   6   16.03    0.73
   0   1   6   15.29    0.63
   0   1   6   15.45    0.67
  -1  -1  -6    0.07    0.12
  -1  -1  -6    0.05    0.13
  -1  -1  -6   -0.10    0.14
  -1  -1  -6   -0.10    0.11
  -1  -1  -6   -0.08    0.14
  -1  -1  -6   -0.10    0.13
   1   1   6    0.39    0.16
   1   1   6    0.03    0.13
   1   1   6   -0.17    0.13
   1   1   6    0.02    0.15
   1   1   6   -0.14    0.17
  -2  -1  -6   -0.12    0.15
  -2  -1  -6    0.00    0.15
  -2  -1  -6    0.07    0.13
  -2  -1  -6   -0.11    0.14
   2   1   6   -0.18    0.15
   2   1   6    0.01    0.16
   2   1   6    0.04    0.19
  -3  -1  -6    9.63    0.46
  -3  -1  -6   10.77    0.48
  -3  -1  -6   10.42    0.49
  -3  -1  -6   10.39    0.49
   3   1   6   10.03    0.55
  -4  -1  -6    0.03    0.15
  -4  -1  -6    0.16    0.13
  -4  -1  -6   -0.06    0.17
  -4  -1  -6   -0.01    0.16
   4   1   6   -0.26    0.22
  -5  -1  -6    4.13    0.27
  -5  -1  -6    3.25    0.28
  -5  -1  -6    3.11    0.23
   5   1   6    3.70    0.37
  -6  -1  -6    6.15    0.39
   6   1   6    5.73    0.47
  -7  -1  -6    3.10    0.29
   7   1   6    3.15    0.38
  -8  -1  -6    0.37    0.24
 -10   2   6    0.01    0.27
  -9   2   6    3.68    0.32
  -9   2   6    3.08    0.42
  -9   2   6    3.48    0.32
  -8   2   6    5.64    0.34
  -8   2   6    6.13    0.37
  -8   2   6    5.81    0.55
  -8   2   6    5.99    0.35
  -8   2   6    6.39    0.42
  -7   2   6   20.25    0.80
  -7   2   6   20.30    1.04
  -7   2   6   19.69    0.82
  -7   2   6   18.77    0.81
  -7   2   6   19.52    0.84
   6  -2  -6    1.87    0.24
  -6   2   6    2.20    0.25
  -6   2   6    2.00    0.23
  -6   2   6    2.03    0.22
  -6   2   6    2.01    0.23
   5  -2  -6    0.18    0.18
  -5   2   6   -0.10    0.17
  -5   2   6   -0.25    0.18
  -5   2   6   -0.05    0.17
  -5   2   6    0.33    0.18
   4  -2  -6    6.32    0.39
  -4   2   6    5.90    0.37
  -4   2   6    6.41    0.38
  -4   2   6    6.57    0.37
  -4   2   6    6.71    0.41
  -4   2   6    6.42    0.38
   3  -2  -6    1.30    0.20
   3  -2  -6    1.18    0.18
   3  -2  -6    1.63    0.19
   3  -2  -6    1.46    0.19
  -3   2   6    1.49    0.21
  -3   2   6    1.20    0.14
  -3   2   6    1.36    0.20
  -3   2   6    1.56    0.20
  -3   2   6    1.51    0.20
   2  -2  -6  124.20    4.70
   2  -2  -6  130.51    4.51
   2  -2  -6  129.00    4.80
  -2   2   6  129.56    4.85
  -2   2   6  133.50    4.70
  -2   2   6  132.41    4.85
  -2   2   6  131.70    5.30
  -2   2   6  131.85    4.71
  -2   2   6  125.49    4.50
   1  -2  -6   65.21    2.51
   1  -2  -6   68.54    2.46
   1  -2  -6   66.28    2.36
   1  -2  -6   63.44    2.53
   1  -2  -6   70.16    2.46
  -1   2   6   67.41    2.46
  -1   2   6   64.65    2.53
  -1   2   6   66.94    2.36
  -1   2   6   68.25    2.77
   0  -2  -6   25.68    1.04
   0  -2  -6   26.85    1.02
   0  -2  -6   27.30    0.99
   0  -2  -6   25.73    1.04
   0  -2  -6   25.60    1.10
   0  -2  -6   25.25    1.02
   0   2   6   25.63    1.06
   0   2   6   25.71    1.02
   0   2   6   25.96    1.15
   0   2   6   26.69    1.06
  -1  -2  -6    3.52    0.30
  -1  -2  -6    4.07    0.28
  -1  -2  -6    3.04    0.29
   1   2   6    3.31    0.30
   1   2   6    3.77    0.32
   1   2   6    3.44    0.32
   1   2   6    3.66    0.34
  -2  -2  -6    1.05    0.20
  -2  -2  -6    1.19    0.19
  -2  -2  -6    1.31    0.18
   2   2   6    0.93    0.25
  -3  -2  -6    1.43    0.21
  -3  -2  -6    1.06    0.19
  -3  -2  -6    1.48    0.19
   3   2   6    1.24    0.26
  -4  -2  -6    3.01    0.27
  -4  -2  -6    2.89    0.24
  -4  -2  -6    2.68    0.25
   4   2   6    2.95    0.33
  -5  -2  -6    0.57    0.16
  -5  -2  -6    0.62    0.22
  -5  -2  -6    0.54    0.18
   5   2   6    0.75    0.27
  -6  -2  -6    0.18    0.22
   6   2   6    0.47    0.29
  -7  -2  -6    1.67    0.27
   7   2   6    2.25    0.38
  -9   3   6    1.75    0.24
  -9   3   6    1.00    0.26
  -9   3   6    1.32    0.38
  -8   3   6   18.46    0.75
  -8   3   6   19.02    0.80
  -8   3   6   16.57    0.75
  -8   3   6   18.01    0.76
  -8   3   6   18.60    1.01
  -7   3   6    9.49    0.47
  -7   3   6    9.81    0.47
  -7   3   6    8.59    0.46
  -7   3   6    9.11    0.64
  -7   3   6    9.23    0.49
   6  -3  -6   10.43    0.53
  -6   3   6   10.78    0.50
  -6   3   6   10.50    0.51
  -6   3   6   10.46    0.53
  -6   3   6   10.34    0.52
   5  -3  -6    0.41    0.20
  -5   3   6    0.61    0.21
  -5   3   6    0.51    0.19
  -5   3   6    0.48    0.20
  -5   3   6    0.33    0.19
   4  -3  -6    2.05    0.24
  -4   3   6    2.08    0.23
  -4   3   6    2.25    0.24
  -4   3   6    2.21    0.24
  -4   3   6    2.13    0.24
   3  -3  -6    0.73    0.19
  -3   3   6    0.57    0.19
  -3   3   6    0.56    0.24
  -3   3   6    0.45    0.19
  -3   3   6    0.66    0.20
  -3   3   6    0.45    0.13
  -3   3   6    0.45    0.19
   2  -3  -6    7.63    0.44
   2  -3  -6    7.96    0.46
  -2   3   6    7.90    0.44
  -2   3   6    8.19    0.42
  -2   3   6    8.00    0.39
  -2   3   6    7.27    0.43
  -2   3   6    8.02    0.51
  -2   3   6    8.63    0.44
   1  -3  -6   32.33    1.31
   1  -3  -6   32.51    1.39
   1  -3  -6   34.69    1.32
   1  -3  -6   34.99    1.29
  -1   3   6   34.67    1.45
  -1   3   6   32.42    1.29
  -1   3   6   32.58    1.33
  -1   3   6   32.94    1.26
  -1   3   6   32.34    1.24
  -1   3   6   33.16    1.33
   0  -3  -6   32.49    1.26
   0  -3  -6   31.88    1.26
   0  -3  -6   31.95    1.23
   0   3   6   31.37    1.38
   0   3   6   30.50    1.21
  -1  -3  -6    4.38    0.33
  -1  -3  -6    4.12    0.35
  -1  -3  -6    5.13    0.33
   1   3   6    5.06    0.39
  -2  -3  -6    2.32    0.25
  -2  -3  -6    2.31    0.23
  -2  -3  -6    2.02    0.22
   2   3   6    1.63    0.29
  -3  -3  -6    1.98    0.25
  -3  -3  -6    2.03    0.24
  -3  -3  -6    2.02    0.23
   3   3   6    1.92    0.30
  -4  -3  -6    0.24    0.19
  -4  -3  -6    0.21    0.17
  -4  -3  -6    0.60    0.22
   4   3   6    0.32    0.27
  -5  -3  -6    2.06    0.27
  -5  -3  -6    1.83    0.21
  -5  -3  -6    1.82    0.22
   5   3   6    1.80    0.33
  -6  -3  -6    2.59    0.31
   6   3   6    3.06    0.38
  -9   4   6    1.10    0.27
  -9   4   6    0.93    0.23
  -9   4   6    0.94    0.39
  -8   4   6   10.02    0.50
  -8   4   6   11.69    0.54
  -8   4   6   10.57    0.52
  -8   4   6   11.89    0.58
  -8   4   6   11.69    0.75
  -7   4   6    6.78    0.41
  -7   4   6    6.31    0.39
  -7   4   6    7.38    0.43
  -7   4   6    7.46    0.60
  -7   4   6    6.58    0.40
   6  -4  -6   -0.07    0.20
  -6   4   6   -0.41    0.19
  -6   4   6    0.20    0.32
  -6   4   6    0.18    0.22
  -6   4   6    0.34    0.19
  -6   4   6    0.57    0.19
   5  -4  -6    1.25    0.23
  -5   4   6    1.27    0.22
  -5   4   6    1.02    0.24
  -5   4   6    1.46    0.23
  -5   4   6    1.26    0.22
   4  -4  -6   10.37    0.54
  -4   4   6   10.49    0.53
  -4   4   6   10.54    0.54
  -4   4   6   10.95    0.53
  -4   4   6    9.66    0.51
   3  -4  -6   -0.25    0.19
   3  -4  -6   -0.08    0.21
  -3   4   6   -0.36    0.19
  -3   4   6   -0.34    0.12
  -3   4   6    0.10    0.24
  -3   4   6   -0.31    0.19
  -3   4   6   -0.34    0.21
   2  -4  -6    1.38    0.22
  -2   4   6    1.13    0.22
  -2   4   6    1.10    0.16
  -2   4   6    0.85    0.26
   1  -4  -6    2.20    0.25
  -1   4   6    2.00    0.21
  -1   4   6    3.01    0.30
   0  -4  -6   11.25    0.56
   0   4   6   11.09    0.53
   0   4   6   11.06    0.61
  -1  -4  -6   31.92    1.23
   1   4   6   29.08    1.35
  -2  -4  -6   12.24    0.59
  -2  -4  -6   12.41    0.58
   2   4   6   11.60    0.66
  -3  -4  -6    3.39    0.33
  -3  -4  -6    3.38    0.30
   3   4   6    3.13    0.35
  -4  -4  -6    2.33    0.25
  -4  -4  -6    2.39    0.25
   4   4   6    2.19    0.34
  -5  -4  -6   -0.14    0.20
   5   4   6    0.07    0.30
  -9   5   6    0.18    0.22
  -9   5   6   -0.19    0.26
  -9   5   6   -0.14    0.38
  -8   5   6   -0.17    0.18
  -8   5   6    0.03    0.21
  -8   5   6   -0.21    0.17
  -8   5   6   -0.44    0.24
  -8   5   6    0.15    0.37
  -7   5   6    0.48    0.22
  -7   5   6    0.83    0.21
  -7   5   6    0.61    0.25
  -7   5   6    0.33    0.19
  -7   5   6    0.34    0.36
   6  -5  -6   11.09    0.56
  -6   5   6   11.13    0.54
  -6   5   6   10.77    0.56
  -6   5   6   10.80    0.53
  -6   5   6    9.25    0.52
  -6   5   6   11.22    0.71
   5  -5  -6    3.44    0.30
  -5   5   6    3.60    0.32
  -5   5   6    3.18    0.29
  -5   5   6    3.19    0.29
   4  -5  -6    0.72    0.22
  -4   5   6    0.71    0.23
   3  -5  -6    8.43    0.48
  -3   5   6    7.73    0.38
  -3   5   6    8.62    0.53
   2  -5  -6   -0.23    0.20
  -2   5   6   -0.08    0.15
  -2   5   6   -0.18    0.24
   1  -5  -6    0.97    0.22
  -1   5   6    0.93    0.27
  -1   5   6    0.57    0.17
   0  -5  -6   10.50    0.55
   0   5   6   10.25    0.61
  -1  -5  -6   22.28    0.93
   1   5   6   21.22    1.04
  -2  -5  -6    9.10    0.49
   2   5   6    7.53    0.54
  -3  -5  -6    3.97    0.36
   3   5   6    3.70    0.39
  -4  -5  -6   -0.28    0.21
   4   5   6   -0.21    0.28
  -8   6   6    0.12    0.39
  -8   6   6    0.63    0.24
  -8   6   6    0.23    0.20
  -8   6   6    0.45    0.19
  -7   6   6    0.30    0.21
  -7   6   6    0.64    0.24
  -7   6   6    0.52    0.38
  -7   6   6    0.49    0.21
   6  -6  -6    1.63    0.27
  -6   6   6    2.01    0.27
  -6   6   6    2.71    0.41
   5  -6  -6   34.48    1.42
  -5   6   6   36.30    1.73
   4  -6  -6    0.04    0.21
   3  -6  -6   -0.12    0.21
  -3   6   6   -0.06    0.25
   2  -6  -6    0.21    0.22
  -2   6   6   -0.36    0.14
  -2   6   6   -0.16    0.26
   1  -6  -6    0.53    0.23
  -1   6   6    0.46    0.27
   0  -6  -6    1.63    0.26
   0   6   6    1.65    0.32
  -1  -6  -6    6.79    0.45
   1   6   6    6.69    0.50
  -2  -6  -6    4.72    0.40
   2   6   6    4.84    0.47
   3   6   6    0.95    0.32
  -7   7   6    0.39    0.23
  -7   7   6    0.03    0.40
  -6   7   6    0.62    0.41
   5  -7  -6    4.03    0.38
  -5   7   6    3.93    0.47
   4  -7  -6    2.22    0.30
  -4   7   6    2.82    0.43
   3  -7  -6    0.01    0.23
  -3   7   6    0.33    0.29
   2  -7  -6   -0.26    0.22
  -2   7   6    0.02    0.28
   1  -7  -6   -0.34    0.22
  -1   7   6    0.18    0.30
   0  -7  -6   -0.06    0.23
   0   7   6    0.03    0.29
   1   7   6    0.74    0.33
  -6   8   6   -0.61    0.40
   5  -8  -6   -0.39    0.24
  -5   8   6   -0.45    0.41
   4  -8  -6    0.45    0.26
  -4   8   6    0.93    0.41
   3  -8  -6    0.21    0.26
  -3   8   6    1.17    0.40
  -3   8   6    0.14    0.31
   2  -8  -6    4.99    0.45
  -2   8   6    5.24    0.51
  -1   8   6   -0.23    0.32
   0 -12   7    0.71    0.28
   1 -12   7    1.29    0.29
  -2  12  -7    0.54    0.27
  -3  12  -7   -0.48    0.23
  -3  12  -7   -0.22    0.22
  -4  12  -7    0.02    0.24
  -4  12  -7    0.17    0.18
  -4  12  -7    0.23    0.19
   1  11  -7    1.46    0.29
  -1 -11   7    1.41    0.29
   0  11  -7   -0.05    0.24
   0 -11   7   -0.22    0.24
  -1  11  -7    0.99    0.27
   1 -11   7    1.21    0.27
  -2  11  -7    1.16    0.24
  -2  11  -7    0.97    0.26
   2 -11   7    0.77    0.24
  -3  11  -7    1.45    0.23
  -3  11  -7    1.38    0.23
  -3  11  -7    1.13    0.24
  -4  11  -7    0.03    0.16
  -4  11  -7   -0.07    0.20
  -4  11  -7   -0.11    0.16
  -6  11  -7    2.33    0.23
   3  10  -7   -0.04    0.26
  -3 -10   7    0.10    0.25
   2  10  -7   -0.38    0.23
  -2 -10   7   -0.02    0.24
   1  10  -7    0.20    0.23
  -1 -10   7    0.19    0.23
   0  10  -7    4.13    0.37
   0 -10   7    3.66    0.36
  -1  10  -7   -0.17    0.21
   1 -10   7   -0.21    0.20
  -2  10  -7    0.87    0.21
  -2  10  -7    1.10    0.23
  -2  10  -7    0.86    0.21
   2 -10   7    0.96    0.22
  -3  10  -7   11.18    0.53
  -3  10  -7   10.94    0.52
  -3  10  -7   10.56    0.51
  -4  10  -7    7.79    0.42
  -4  10  -7    7.11    0.37
  -4  10  -7    7.83    0.41
  -4  10  -7    7.83    0.38
  -5  10  -7    3.23    0.28
  -6  10  -7   -0.38    0.14
  -7  10  -7    8.17    0.43
   4   9  -7   -0.05    0.25
  -4  -9   7    0.00    0.24
   3   9  -7    3.60    0.34
  -3  -9   7    3.64    0.34
   2   9  -7    2.78    0.31
  -2  -9   7    3.20    0.31
   1   9  -7    0.83    0.23
  -1  -9   7    0.59    0.22
   0   9  -7   10.90    0.54
   0  -9   7   10.07    0.54
  -1   9  -7   20.82    0.87
  -1   9  -7   19.45    0.86
  -1   9  -7   20.45    0.85
   1  -9   7   19.89    0.86
  -2   9  -7   -0.02    0.17
  -2   9  -7    0.09    0.17
  -2   9  -7   -0.20    0.19
   2  -9   7   -0.08    0.18
  -3   9  -7    0.26    0.19
  -3   9  -7    0.51    0.19
  -3   9  -7    0.52    0.16
  -3   9  -7    0.46    0.16
   3  -9   7    0.51    0.19
  -4   9  -7   16.59    0.67
  -4   9  -7   16.53    0.65
  -4   9  -7   14.17    0.65
  -4   9  -7   16.38    0.65
  -5   9  -7    3.99    0.32
  -5   9  -7    3.87    0.27
  -6   9  -7   -0.02    0.17
  -6   9  -7   -0.02    0.12
  -7   9  -7    1.18    0.20
   6   8  -7   -0.21    0.28
   6   8  -7    0.17    0.27
   5   8  -7   10.16    0.58
   5   8  -7    8.92    0.57
  -5  -8   7   10.02    0.56
   4   8  -7    5.09    0.41
   4   8  -7    4.44    0.39
  -4  -8   7    5.60    0.42
   3   8  -7    2.20    0.25
   3   8  -7    2.06    0.28
  -3  -8   7    1.88    0.27
   2   8  -7    5.21    0.39
  -2  -8   7    5.54    0.41
   1   8  -7    0.54    0.21
  -1  -8   7    0.14    0.19
   0   8  -7    0.16    0.20
   0   8  -7    0.23    0.19
   0   8  -7   -0.07    0.18
   0  -8   7    0.38    0.19
  -1   8  -7   14.98    0.65
  -1   8  -7   14.56    0.65
  -1   8  -7   14.13    0.64
   1  -8   7   14.02    0.65
  -2   8  -7   24.12    0.96
  -2   8  -7   23.39    0.97
  -2   8  -7   25.32    0.93
  -2   8  -7   23.37    0.97
   2  -8   7   22.58    0.97
   2  -8   7   25.12    0.94
  -3   8  -7    3.84    0.29
  -3   8  -7    3.46    0.28
  -3   8  -7    3.59    0.25
  -3   8  -7    3.56    0.25
  -3   8  -7    4.09    0.33
   3  -8   7    3.42    0.30
  -4   8  -7    3.26    0.30
  -4   8  -7    3.37    0.25
  -4   8  -7    3.62    0.25
  -4   8  -7    3.43    0.21
  -5   8  -7    0.76    0.18
  -5   8  -7    0.80    0.14
  -6   8  -7    5.75    0.33
   7   7  -7   -0.13    0.30
   6   7  -7    0.38    0.27
   6   7  -7   -0.06    0.26
  -6  -7   7   -0.01    0.24
   5   7  -7   -0.46    0.23
   5   7  -7   -0.03    0.23
  -5  -7   7    0.21    0.23
   4   7  -7   21.63    0.95
   4   7  -7   21.97    1.01
  -4  -7   7   23.23    0.97
   3   7  -7    8.58    0.49
   3   7  -7    8.27    0.48
  -3  -7   7    8.67    0.48
   2   7  -7    1.75    0.21
   2   7  -7    1.70    0.24
  -2  -7   7    1.58    0.25
   1   7  -7    1.41    0.22
   1   7  -7    1.29    0.17
   1   7  -7    1.62    0.23
  -1  -7   7    1.65    0.22
   0   7  -7    6.07    0.37
   0   7  -7    5.78    0.36
   0   7  -7    5.83    0.38
   0   7  -7    6.28    0.38
   0  -7   7    6.48    0.34
   0  -7   7    5.99    0.38
  -1   7  -7    0.87    0.18
  -1   7  -7    0.78    0.19
  -1   7  -7    0.93    0.20
  -1   7  -7    0.73    0.18
  -1   7  -7    0.91    0.19
   1  -7   7    0.81    0.19
   1  -7   7    0.75    0.15
  -2   7  -7    3.05    0.27
  -2   7  -7    3.20    0.28
  -2   7  -7    2.94    0.25
  -2   7  -7    3.19    0.25
  -2   7  -7    3.36    0.31
   2  -7   7    3.12    0.30
   2  -7   7    3.21    0.24
  -3   7  -7   29.56    1.10
  -3   7  -7   29.95    1.16
  -3   7  -7   28.43    1.15
  -3   7  -7   30.06    1.15
  -3   7  -7   31.82    1.16
   3  -7   7   29.47    1.17
  -4   7  -7    4.88    0.28
  -4   7  -7    5.05    0.33
  -5   7  -7    1.50    0.18
  -5   7  -7    1.60    0.15
  -5   7  -7    1.17    0.18
  -6   7  -7    4.28    0.28
  -6   7  -7    4.02    0.27
   7   6  -7   -0.28    0.28
  -7  -6   7   -0.28    0.23
   6   6  -7    0.49    0.27
   6   6  -7   -0.13    0.24
  -6  -6   7   -0.24    0.22
   5   6  -7    2.71    0.31
   5   6  -7    2.36    0.29
  -5  -6   7    2.81    0.30
   4   6  -7    4.32    0.36
   4   6  -7    4.29    0.38
  -4  -6   7    4.19    0.39
   3   6  -7   11.17    0.56
   3   6  -7   11.16    0.57
  -3  -6   7   11.30    0.57
   2   6  -7    9.49    0.52
   2   6  -7   10.99    0.52
   2   6  -7   11.03    0.53
  -2  -6   7   10.23    0.53
   1   6  -7   -0.23    0.17
   1   6  -7    0.11    0.16
   1   6  -7   -0.10    0.13
   1   6  -7   -0.03    0.17
   1   6  -7   -0.13    0.18
  -1  -6   7    0.09    0.13
  -1  -6   7   -0.16    0.18
   0   6  -7   20.22    0.80
   0   6  -7   21.03    0.85
   0   6  -7   20.61    0.84
   0   6  -7   20.33    0.84
   0  -6   7   19.62    0.80
   0  -6   7   20.88    0.86
   0  -6   7   21.18    0.81
  -1   6  -7    9.52    0.46
  -1   6  -7    9.70    0.44
  -1   6  -7    9.15    0.45
  -1   6  -7    9.08    0.43
  -1   6  -7    8.62    0.45
   1  -6   7    8.87    0.43
   1  -6   7    9.52    0.42
  -2   6  -7   17.13    0.71
  -2   6  -7   17.16    0.71
  -2   6  -7   16.95    0.67
  -2   6  -7   16.96    0.70
  -2   6  -7   17.63    0.70
  -2   6  -7   16.92    0.70
  -3   6  -7   10.48    0.45
  -3   6  -7   10.35    0.44
  -3   6  -7   10.37    0.44
  -3   6  -7   10.50    0.47
  -3   6  -7    9.42    0.46
  -3   6  -7    9.34    0.43
  -4   6  -7   16.89    0.65
  -4   6  -7   16.37    0.69
  -4   6  -7   17.64    0.69
  -5   6  -7    5.34    0.32
  -5   6  -7    5.41    0.31
  -5   6  -7    5.79    0.27
  -6   6  -7    6.65    0.34
   8   5  -7    0.35    0.33
   7   5  -7    0.35    0.25
   7   5  -7    0.32    0.29
  -7  -5   7    0.23    0.23
   6   5  -7    1.20    0.25
   6   5  -7    1.15    0.29
  -6  -5   7    1.34    0.25
   5   5  -7    1.66    0.28
   5   5  -7    1.12    0.25
  -5  -5   7    1.47    0.25
   4   5  -7   -0.14    0.20
  -4  -5   7    0.08    0.12
  -4  -5   7   -0.32    0.19
  -4  -5   7    0.12    0.19
   3   5  -7    1.92    0.25
  -3  -5   7    2.25    0.25
  -3  -5   7    2.52    0.26
  -3  -5   7    2.24    0.18
  -3  -5   7    1.99    0.23
   2   5  -7   17.34    0.74
   2   5  -7   18.54    0.74
   2   5  -7   17.57    0.71
   2   5  -7   17.84    0.75
  -2  -5   7   16.62    0.70
  -2  -5   7   17.17    0.74
  -2  -5   7   17.92    0.70
  -2  -5   7   15.84    0.74
   1   5  -7   24.27    0.97
   1   5  -7   24.10    0.95
   1   5  -7   23.66    0.97
   1   5  -7   24.68    0.92
   1   5  -7   25.44    0.96
  -1  -5   7   23.99    0.93
  -1  -5   7   22.76    0.98
  -1  -5   7   24.01    0.96
   0   5  -7    0.95    0.16
   0   5  -7    1.08    0.17
   0   5  -7    0.99    0.17
   0   5  -7    0.83    0.17
   0  -5   7    0.82    0.15
   0  -5   7    0.95    0.17
   0  -5   7    0.91    0.14
   0  -5   7    0.73    0.15
  -1   5  -7   34.65    1.35
  -1   5  -7   36.50    1.36
  -1   5  -7   35.89    1.37
  -1   5  -7   34.40    1.30
  -1   5  -7   36.38    1.39
   1  -5   7   37.30    1.40
   1  -5   7   36.07    1.30
  -2   5  -7   -0.07    0.12
  -2   5  -7    0.02    0.15
  -2   5  -7    0.07    0.14
  -2   5  -7    0.07    0.13
  -2   5  -7    0.14    0.14
  -3   5  -7   21.33    0.83
  -3   5  -7   19.92    0.82
  -3   5  -7   21.24    0.82
  -3   5  -7   20.96    0.78
  -3   5  -7   21.90    0.82
  -3   5  -7   20.52    0.82
  -4   5  -7   44.62    1.50
  -4   5  -7   41.88    1.57
  -4   5  -7   40.44    1.57
  -5   5  -7    0.97    0.16
  -5   5  -7    0.96    0.15
   8   4  -7    0.14    0.30
  -8  -4   7   -0.09    0.22
   7   4  -7    5.07    0.41
   7   4  -7    5.12    0.47
  -7  -4   7    5.50    0.42
   6   4  -7    6.30    0.42
  -6  -4   7    6.25    0.44
  -6  -4   7    5.52    0.41
   5   4  -7    1.31    0.23
  -5  -4   7    0.98    0.21
  -5  -4   7    1.22    0.24
  -5  -4   7    1.20    0.23
   4   4  -7    0.78    0.22
  -4  -4   7    0.58    0.12
  -4  -4   7    0.58    0.21
  -4  -4   7    0.70    0.19
  -4  -4   7    0.84    0.20
   3   4  -7    2.68    0.25
  -3  -4   7    2.79    0.23
  -3  -4   7    2.91    0.26
  -3  -4   7    2.86    0.22
  -3  -4   7    2.71    0.26
   2   4  -7    8.63    0.41
   2   4  -7    8.04    0.42
   2   4  -7    8.09    0.42
   2   4  -7    8.09    0.43
   2   4  -7    8.61    0.43
  -2  -4   7    7.42    0.39
  -2  -4   7    8.20    0.38
  -2  -4   7    7.62    0.42
  -2  -4   7    8.26    0.42
   1   4  -7   44.91    1.66
   1   4  -7   41.24    1.64
   1   4  -7   46.57    1.62
   1   4  -7   41.44    1.54
   1   4  -7   43.14    1.62
  -1  -4   7   42.37    1.66
  -1  -4   7   42.39    1.61
  -1  -4   7   42.99    1.60
   0   4  -7    2.54    0.20
   0   4  -7    3.06    0.23
   0   4  -7    2.55    0.21
   0   4  -7    2.32    0.20
   0   4  -7    2.78    0.23
   0   4  -7    2.35    0.21
   0  -4   7    2.55    0.21
   0  -4   7    2.42    0.19
   0  -4   7    2.37    0.19
  -1   4  -7    1.62    0.16
  -1   4  -7    1.32    0.16
  -1   4  -7    1.61    0.17
  -1   4  -7    1.44    0.17
  -1   4  -7    1.38    0.17
   1  -4   7    1.72    0.16
   1  -4   7    1.66    0.17
  -2   4  -7    7.76    0.38
  -2   4  -7    7.38    0.38
  -2   4  -7    7.98    0.37
  -2   4  -7    7.67    0.36
  -2   4  -7    7.69    0.37
  -3   4  -7   23.70    0.88
  -3   4  -7   24.10    0.92
  -3   4  -7   24.46    0.92
  -3   4  -7   23.32    0.92
  -3   4  -7   24.09    0.91
   3  -4   7   22.60    1.00
  -4   4  -7   23.21    0.87
  -4   4  -7   21.98    0.87
  -4   4  -7   22.55    0.83
   4  -4   7   22.06    0.96
  -5   4  -7   54.66    2.00
  -5   4  -7   56.09    1.90
  -5   4  -7   56.70    2.00
   5  -4   7   50.31    2.25
  -6   4  -7    0.01    0.15
  -6   4  -7    0.29    0.14
   6  -4   7    0.31    0.19
   7  -4   7    0.06    0.21
  -9  -3   7    0.34    0.19
  -8  -3   7   -0.07    0.23
   7   3  -7    0.90    0.25
  -7  -3   7    0.72    0.25
  -7  -3   7    0.33    0.21
  -7  -3   7    0.57    0.25
  -7  -3   7    0.60    0.23
   6   3  -7    0.40    0.23
  -6  -3   7    0.22    0.19
  -6  -3   7    0.49    0.23
  -6  -3   7    0.47    0.21
  -6  -3   7    0.10    0.20
   5   3  -7    1.18    0.23
  -5  -3   7    1.31    0.23
  -5  -3   7    1.48    0.21
  -5  -3   7    1.62    0.22
   4   3  -7    3.01    0.27
  -4  -3   7    2.98    0.28
  -4  -3   7    3.00    0.22
  -4  -3   7    2.98    0.27
  -4  -3   7    2.97    0.25
   3   3  -7    0.43    0.18
   3   3  -7    0.59    0.16
   3   3  -7    0.59    0.17
  -3  -3   7    0.46    0.12
  -3  -3   7    0.64    0.17
  -3  -3   7    0.48    0.17
  -3  -3   7    0.47    0.18
   2   3  -7   18.91    0.77
   2   3  -7   18.72    0.73
   2   3  -7   19.01    0.77
   2   3  -7   19.43    0.78
   2   3  -7   18.53    0.78
  -2  -3   7   18.33    0.73
  -2  -3   7   18.11    0.79
  -2  -3   7   19.57    0.74
  -2  -3   7   18.89    0.77
   1   3  -7   14.09    0.55
   1   3  -7   12.86    0.57
   1   3  -7   14.06    0.58
   1   3  -7   12.64    0.57
   1   3  -7   13.39    0.57
  -1  -3   7   12.51    0.57
  -1  -3   7   12.44    0.58
   0   3  -7    7.60    0.37
   0   3  -7    7.35    0.36
   0   3  -7    7.19    0.35
   0   3  -7    7.56    0.37
   0  -3   7    6.39    0.36
   0  -3   7    6.63    0.35
   0  -3   7    6.78    0.36
  -1   3  -7    0.57    0.13
  -1   3  -7    0.88    0.15
  -1   3  -7    0.60    0.14
  -1   3  -7    0.50    0.13
  -1   3  -7    0.44    0.14
   1  -3   7    0.56    0.14
   1  -3   7    0.77    0.14
   1  -3   7    0.61    0.13
  -2   3  -7    0.01    0.14
  -2   3  -7    0.12    0.13
  -2   3  -7    0.13    0.12
  -2   3  -7    0.17    0.13
  -2   3  -7    0.00    0.13
   2  -3   7    0.31    0.14
  -3   3  -7   11.49    0.50
  -3   3  -7   12.06    0.49
  -3   3  -7   11.66    0.50
  -3   3  -7   11.85    0.52
  -3   3  -7   11.61    0.52
   3  -3   7   11.86    0.55
  -4   3  -7   31.77    1.18
  -4   3  -7   30.58    1.19
  -4   3  -7   32.06    1.13
   4  -3   7   30.15    1.32
  -5   3  -7   23.35    0.93
  -5   3  -7   25.03    0.93
   5  -3   7   23.41    1.05
  -6   3  -7   31.86    1.17
  -6   3  -7   30.59    1.17
   6  -3   7   29.82    1.34
  -7   3  -7   13.49    0.57
  -7   3  -7   13.86    0.56
   7  -3   7   13.09    0.69
   8  -3   7    0.18    0.26
  -9  -2   7    1.52    0.23
  -9  -2   7    1.40    0.25
  -8  -2   7    0.51    0.25
  -8  -2   7    0.41    0.22
  -8  -2   7    0.07    0.20
  -8  -2   7    0.06    0.23
   7   2  -7    1.44    0.25
  -7  -2   7    0.95    0.23
  -7  -2   7    1.19    0.23
  -7  -2   7    1.26    0.22
  -7  -2   7    1.10    0.28
  -7  -2   7    1.45    0.26
   6   2  -7    6.16    0.41
  -6  -2   7    5.72    0.38
  -6  -2   7    6.03    0.39
  -6  -2   7    6.99    0.44
   5   2  -7    3.64    0.32
  -5  -2   7    3.16    0.29
  -5  -2   7    3.49    0.30
  -5  -2   7    3.59    0.29
   4   2  -7    1.63    0.23
  -4  -2   7    1.41    0.13
  -4  -2   7    1.37    0.20
  -4  -2   7    1.45    0.22
  -4  -2   7    1.64    0.21
   3   2  -7   18.05    0.77
   3   2  -7   18.68    0.76
   3   2  -7   19.98    0.79
   3   2  -7   19.08    0.73
  -3  -2   7   18.32    0.73
  -3  -2   7   17.73    0.78
  -3  -2   7   17.30    0.77
  -3  -2   7   18.83    0.78
  -3  -2   7   18.86    0.72
   2   2  -7    7.38    0.40
   2   2  -7    8.27    0.39
   2   2  -7    7.22    0.37
   2   2  -7    7.73    0.39
   2   2  -7    7.14    0.38
  -2  -2   7    7.40    0.40
  -2  -2   7    7.56    0.34
  -2  -2   7    7.67    0.41
  -2  -2   7    6.86    0.39
  -2  -2   7    6.84    0.37
   1   2  -7   28.02    1.06
   1   2  -7   29.92    1.12
   1   2  -7   31.35    1.12
   1   2  -7   28.45    1.14
   1   2  -7   28.55    1.13
  -1  -2   7   28.62    1.15
  -1  -2   7   28.55    1.11
   0   2  -7   12.89    0.55
   0   2  -7   12.91    0.56
   0   2  -7   13.11    0.55
   0   2  -7   12.44    0.52
   0  -2   7   12.45    0.55
   0  -2   7   12.86    0.59
   0  -2   7   12.82    0.56
   0  -2   7   12.28    0.52
  -1   2  -7    8.19    0.39
  -1   2  -7    7.82    0.40
  -1   2  -7    8.33    0.38
  -1   2  -7    8.19    0.40
  -1   2  -7    7.74    0.39
   1  -2   7    7.99    0.38
   1  -2   7    9.01    0.41
   1  -2   7    8.06    0.42
  -2   2  -7   15.06    0.61
  -2   2  -7   14.55    0.63
  -2   2  -7   14.62    0.59
  -2   2  -7   15.81    0.62
  -2   2  -7   14.75    0.62
   2  -2   7   14.45    0.68
  -3   2  -7   -0.17    0.14
  -3   2  -7    0.08    0.12
  -3   2  -7   -0.19    0.14
  -3   2  -7   -0.07    0.13
  -3   2  -7   -0.10    0.12
   3  -2   7   -0.12    0.17
  -4   2  -7   -0.05    0.15
  -4   2  -7   -0.03    0.15
  -4   2  -7    0.10    0.12
  -4   2  -7    0.16    0.10
   4  -2   7    0.15    0.20
  -5   2  -7    1.43    0.19
  -5   2  -7    2.00    0.20
   5  -2   7    1.81    0.26
  -6   2  -7    3.30    0.28
  -6   2  -7    2.87    0.26
   6  -2   7    2.63    0.31
  -7   2  -7   20.90    0.82
  -7   2  -7   20.43    0.82
   7  -2   7   19.03    0.96
  -8   2  -7    8.46    0.44
  -8   2  -7    9.03    0.45
   8  -2   7    8.88    0.58
  -9  -1   7    3.04    0.34
  -9  -1   7    3.42    0.30
  -9  -1   7    3.56    0.31
  -8  -1   7    1.28    0.25
  -8  -1   7    1.16    0.24
  -8  -1   7    1.55    0.33
  -8  -1   7    1.37    0.28
  -8  -1   7    1.44    0.23
   7   1  -7   -0.07    0.21
  -7  -1   7    0.12    0.18
  -7  -1   7    0.00    0.20
  -7  -1   7    0.08    0.27
  -7  -1   7    0.20    0.23
   6   1  -7   -0.05    0.21
  -6  -1   7    0.22    0.19
  -6  -1   7    0.26    0.22
  -6  -1   7    0.00    0.18
   5   1  -7    0.61    0.21
  -5  -1   7    0.12    0.19
  -5  -1   7    0.73    0.22
  -5  -1   7    0.50    0.18
   4   1  -7    3.16    0.30
  -4  -1   7    3.16    0.26
  -4  -1   7    3.02    0.26
  -4  -1   7    3.42    0.27
  -4  -1   7    3.41    0.21
   3   1  -7    6.01    0.36
   3   1  -7    6.39    0.36
   3   1  -7    6.00    0.34
   3   1  -7    5.54    0.36
  -3  -1   7    6.31    0.38
  -3  -1   7    5.30    0.35
  -3  -1   7    5.42    0.29
  -3  -1   7    5.93    0.37
  -3  -1   7    5.79    0.38
   2   1  -7   12.20    0.52
   2   1  -7   13.08    0.55
   2   1  -7   12.51    0.56
   2   1  -7   12.77    0.56
  -2  -1   7   13.02    0.57
  -2  -1   7   11.79    0.56
  -2  -1   7   12.64    0.54
  -2  -1   7   11.61    0.56
   1   1  -7    1.90    0.18
   1   1  -7    1.87    0.18
   1   1  -7    1.56    0.17
   1   1  -7    1.69    0.18
   1   1  -7    1.74    0.19
  -1  -1   7    1.60    0.18
  -1  -1   7    1.70    0.21
  -1  -1   7    1.29    0.18
   0   1  -7   15.66    0.68
   0   1  -7   17.30    0.65
   0   1  -7   16.16    0.68
   0   1  -7   16.89    0.69
   0  -1   7   16.12    0.69
   0  -1   7   16.83    0.67
   0  -1   7   16.24    0.65
   0  -1   7   16.07    0.74
  -1   1  -7   47.90    1.78
  -1   1  -7   47.34    1.75
  -1   1  -7   47.53    1.68
  -1   1  -7   45.81    1.79
  -1   1  -7   49.53    1.75
   1  -1   7   46.93    1.68
   1  -1   7   46.44    1.80
   1  -1   7   44.63    1.95
  -2   1  -7    5.43    0.34
  -2   1  -7    5.41    0.31
  -2   1  -7    5.02    0.34
  -2   1  -7    5.93    0.31
  -2   1  -7    5.66    0.32
   2  -1   7    5.87    0.36
  -3   1  -7    0.53    0.16
  -3   1  -7    0.68    0.15
  -3   1  -7    0.69    0.17
  -3   1  -7    0.59    0.14
  -3   1  -7    0.49    0.17
   3  -1   7    0.44    0.20
  -4   1  -7    0.47    0.16
  -4   1  -7    0.50    0.17
  -4   1  -7    0.39    0.12
  -4   1  -7    0.25    0.13
   4  -1   7    0.56    0.23
  -5   1  -7    0.36    0.17
  -5   1  -7    0.11    0.18
   5  -1   7    0.06    0.23
  -6   1  -7    0.09    0.17
  -6   1  -7    0.02    0.18
   6  -1   7    0.21    0.25
  -7   1  -7    0.34    0.20
  -7   1  -7    0.55    0.19
   7  -1   7    0.27    0.28
  -8   1  -7    5.69    0.37
   8  -1   7    5.64    0.50
  -9   0   7    0.44    0.20
  -9   0   7    0.55    0.25
  -9   0   7    0.55    0.18
  -9   0   7    0.69    0.27
  -8   0   7    9.77    0.68
  -8   0   7   10.11    0.54
  -8   0   7    9.09    0.49
  -8   0   7    9.76    0.51
  -8   0   7   10.29    0.53
   7   0  -7    0.57    0.23
  -7   0   7    0.47    0.21
  -7   0   7    0.64    0.23
  -7   0   7    0.36    0.19
  -7   0   7    0.38    0.30
   6   0  -7    7.18    0.44
  -6   0   7    7.73    0.41
  -6   0   7    6.62    0.41
  -6   0   7    8.00    0.47
   5   0  -7   -0.29    0.18
  -5   0   7   -0.42    0.19
  -5   0   7   -0.24    0.18
  -5   0   7   -0.04    0.17
   4   0  -7    0.19    0.18
  -4   0   7   -0.03    0.18
  -4   0   7   -0.09    0.19
  -4   0   7   -0.14    0.17
  -4   0   7    0.05    0.11
  -4   0   7    0.00    0.10
   3   0  -7    2.85    0.22
   3   0  -7    2.74    0.22
   3   0  -7    2.82    0.25
   3   0  -7    2.84    0.24
  -3   0   7    2.96    0.24
  -3   0   7    2.24    0.23
  -3   0   7    2.64    0.21
  -3   0   7    3.01    0.25
  -3   0   7    3.00    0.25
   2   0  -7    5.68    0.35
   2   0  -7    5.53    0.35
   2   0  -7    5.20    0.32
  -2   0   7    4.96    0.32
  -2   0   7    5.16    0.34
  -2   0   7    5.84    0.35
  -2   0   7    6.03    0.37
   1   0  -7    0.05    0.14
   1   0  -7    0.12    0.15
   1   0  -7   -0.03    0.14
   1   0  -7   -0.20    0.12
   1   0  -7   -0.11    0.13
  -1   0   7   -0.38    0.18
  -1   0   7   -0.06    0.14
  -1   0   7    0.10    0.14
   0   0  -7    1.11    0.16
   0   0  -7    0.93    0.18
   0   0  -7    0.94    0.16
   0   0  -7    1.02    0.17
   0   0  -7    0.85    0.17
   0   0   7    0.61    0.16
   0   0   7    1.03    0.20
   0   0   7    0.92    0.17
   0   0   7    0.75    0.17
  -1   0  -7    4.83    0.33
  -1   0  -7    5.26    0.32
  -1   0  -7    5.35    0.31
  -1   0  -7    4.63    0.33
  -1   0  -7    5.35    0.34
   1   0   7    5.07    0.33
   1   0   7    4.97    0.35
   1   0   7    5.38    0.34
  -2   0  -7   16.46    0.69
  -2   0  -7   16.07    0.69
  -2   0  -7   15.73    0.68
  -2   0  -7   17.19    0.70
  -2   0  -7   16.08    0.65
   2   0   7   16.17    0.76
  -3   0  -7    0.34    0.17
  -3   0  -7    0.60    0.15
  -3   0  -7    0.53    0.18
  -3   0  -7    0.36    0.17
   3   0   7    0.78    0.22
  -4   0  -7    2.56    0.24
  -4   0  -7    2.13    0.20
  -4   0  -7    2.46    0.23
  -4   0  -7    2.35    0.23
   4   0   7    2.76    0.30
  -5   0  -7    4.31    0.25
  -5   0  -7    4.89    0.34
   5   0   7    4.61    0.40
  -6   0  -7    0.04    0.20
   6   0   7    0.04    0.26
  -7   0  -7    0.73    0.23
   7   0   7    1.04    0.31
  -8   0  -7    2.92    0.29
   8   0   7    2.92    0.41
  -9   1   7    2.69    0.41
  -9   1   7    2.30    0.22
  -9   1   7    2.56    0.24
  -9   1   7    2.66    0.32
  -9   1   7    2.16    0.28
  -8   1   7    4.68    0.35
  -8   1   7    5.36    0.41
  -8   1   7    5.33    0.37
  -8   1   7    4.25    0.32
  -8   1   7    5.09    0.55
   7  -1  -7    6.63    0.42
  -7   1   7    7.15    0.45
  -7   1   7    6.89    0.39
  -7   1   7    6.27    0.55
  -7   1   7    6.26    0.38
  -7   1   7    6.00    0.38
   6  -1  -7   17.42    0.79
  -6   1   7   18.44    0.80
  -6   1   7   19.01    0.76
  -6   1   7   18.19    0.80
   5  -1  -7    8.82    0.48
  -5   1   7    8.84    0.49
  -5   1   7    8.60    0.47
  -5   1   7    8.47    0.46
   4  -1  -7   13.52    0.65
  -4   1   7   14.95    0.57
  -4   1   7   14.36    0.63
  -4   1   7   14.72    0.65
  -4   1   7   14.45    0.66
  -4   1   7   15.10    0.58
   3  -1  -7   19.22    0.81
   3  -1  -7   18.21    0.80
  -3   1   7   19.02    0.80
  -3   1   7   18.72    0.76
  -3   1   7   19.43    0.81
  -3   1   7   19.06    0.74
   2  -1  -7    0.43    0.17
   2  -1  -7    0.92    0.19
   2  -1  -7    0.68    0.16
  -2   1   7    1.11    0.18
  -2   1   7    0.99    0.19
  -2   1   7    0.95    0.20
  -2   1   7    0.84    0.23
  -2   1   7    0.61    0.17
   1  -1  -7    7.90    0.44
   1  -1  -7    8.20    0.44
   1  -1  -7    8.21    0.43
   1  -1  -7    8.24    0.41
   1  -1  -7    8.78    0.45
  -1   1   7    9.56    0.51
  -1   1   7    8.27    0.44
  -1   1   7    8.66    0.45
   0  -1  -7    6.48    0.36
   0  -1  -7    6.79    0.37
   0  -1  -7    6.06    0.38
   0  -1  -7    6.16    0.38
   0  -1  -7    5.96    0.37
   0   1   7    5.81    0.39
   0   1   7    6.35    0.38
   0   1   7    6.42    0.41
   0   1   7    6.58    0.37
  -1  -1  -7    0.48    0.18
  -1  -1  -7    0.61    0.16
  -1  -1  -7    0.70    0.18
  -1  -1  -7    0.64    0.17
  -1  -1  -7    0.53    0.17
   1   1   7    0.79    0.22
  -2  -1  -7    5.64    0.34
  -2  -1  -7    5.76    0.36
  -2  -1  -7    5.64    0.37
   2   1   7    5.76    0.40
  -3  -1  -7    3.74    0.31
  -3  -1  -7    3.54    0.31
  -3  -1  -7    3.51    0.26
   3   1   7    3.36    0.35
  -4  -1  -7    1.49    0.18
  -4  -1  -7    1.73    0.20
  -4  -1  -7    1.77    0.24
   4   1   7    1.90    0.29
  -5  -1  -7    1.17    0.19
  -5  -1  -7    1.37    0.24
  -5  -1  -7    1.17    0.16
   5   1   7    1.17    0.29
  -6  -1  -7    1.79    0.26
   6   1   7    1.50    0.32
  -7  -1  -7    0.22    0.23
   7   1   7    0.21    0.29
  -9   2   7   -0.19    0.17
  -9   2   7   -0.41    0.21
  -9   2   7   -0.05    0.35
  -9   2   7   -0.41    0.24
  -8   2   7    3.13    0.42
  -8   2   7    2.18    0.27
  -8   2   7    2.13    0.24
  -8   2   7    2.39    0.29
  -8   2   7    2.12    0.23
  -7   2   7    4.12    0.34
  -7   2   7    4.88    0.37
  -7   2   7    4.08    0.33
  -7   2   7    3.79    0.31
  -7   2   7    4.01    0.44
   6  -2  -7    5.55    0.39
  -6   2   7    4.55    0.37
  -6   2   7    5.03    0.34
  -6   2   7    5.09    0.37
  -6   2   7    5.44    0.38
   5  -2  -7   13.85    0.64
  -5   2   7   14.28    0.64
  -5   2   7   13.30    0.64
  -5   2   7   14.73    0.62
  -5   2   7   13.57    0.64
   4  -2  -7    2.77    0.26
  -4   2   7    2.62    0.26
  -4   2   7    2.98    0.19
  -4   2   7    2.79    0.26
  -4   2   7    2.95    0.27
  -4   2   7    2.76    0.26
   3  -2  -7    0.86    0.21
  -3   2   7    0.45    0.14
  -3   2   7    0.25    0.19
  -3   2   7    0.73    0.19
  -3   2   7    0.53    0.20
  -3   2   7    0.63    0.21
   2  -2  -7   27.49    1.16
  -2   2   7   28.48    1.17
  -2   2   7   29.63    1.18
  -2   2   7   28.96    1.10
  -2   2   7   29.40    1.15
  -2   2   7   29.88    1.29
  -2   2   7   29.64    1.11
   1  -2  -7    1.43    0.20
   1  -2  -7    1.42    0.22
   1  -2  -7    1.22    0.19
  -1   2   7    1.10    0.20
  -1   2   7    1.65    0.26
   0  -2  -7    2.25    0.24
   0  -2  -7    2.40    0.23
   0  -2  -7    2.28    0.24
   0   2   7    2.22    0.28
  -1  -2  -7    1.45    0.22
  -1  -2  -7    1.52    0.20
  -1  -2  -7    1.31    0.22
   1   2   7    1.46    0.26
  -2  -2  -7    3.61    0.33
  -2  -2  -7    4.09    0.30
  -2  -2  -7    3.92    0.34
   2   2   7    3.96    0.37
  -3  -2  -7   10.09    0.49
  -3  -2  -7    9.71    0.50
  -3  -2  -7    9.47    0.47
   3   2   7    9.29    0.56
  -4  -2  -7    4.14    0.36
  -4  -2  -7    4.54    0.33
  -4  -2  -7    3.79    0.29
   4   2   7    3.71    0.39
  -5  -2  -7    0.03    0.22
  -5  -2  -7   -0.14    0.18
  -5  -2  -7    0.01    0.15
   5   2   7   -0.16    0.27
  -6  -2  -7    2.67    0.31
   6   2   7    2.76    0.38
  -9   3   7    1.67    0.43
  -9   3   7    1.53    0.29
  -9   3   7    1.77    0.27
  -8   3   7    0.54    0.19
  -8   3   7    0.50    0.19
  -8   3   7    0.14    0.25
  -8   3   7    0.27    0.22
  -8   3   7    0.20    0.37
  -7   3   7    1.45    0.26
  -7   3   7    1.79    0.23
  -7   3   7    1.30    0.25
  -7   3   7    1.32    0.36
  -7   3   7    1.51    0.24
   6  -3  -7    3.77    0.35
  -6   3   7    4.01    0.34
  -6   3   7    3.85    0.34
  -6   3   7    4.03    0.34
  -6   3   7    3.81    0.36
   5  -3  -7    3.81    0.37
  -5   3   7    3.81    0.34
  -5   3   7    3.86    0.36
  -5   3   7    3.36    0.30
  -5   3   7    3.95    0.33
   4  -3  -7   11.23    0.58
  -4   3   7   12.59    0.56
  -4   3   7   12.40    0.60
  -4   3   7   11.64    0.58
   3  -3  -7   33.49    1.33
  -3   3   7   33.37    1.34
  -3   3   7   32.93    1.25
  -3   3   7   32.97    1.25
  -3   3   7   33.34    1.47
   2  -3  -7    0.67    0.21
  -2   3   7    0.49    0.26
  -2   3   7    0.86    0.16
   1  -3  -7   52.99    2.00
  -1   3   7   51.05    1.94
  -1   3   7   52.38    2.21
   0  -3  -7    8.17    0.46
   0   3   7    8.21    0.52
  -1  -3  -7    0.62    0.19
  -1  -3  -7    1.16    0.21
   1   3   7    0.14    0.25
  -2  -3  -7    0.88    0.21
  -2  -3  -7    0.56    0.19
   2   3   7    0.74    0.27
  -3  -3  -7    8.45    0.45
  -3  -3  -7    7.74    0.43
   3   3   7    7.60    0.52
  -4  -3  -7    0.33    0.18
  -4  -3  -7    0.19    0.20
   4   3   7    0.05    0.26
  -5  -3  -7    2.84    0.26
  -5  -3  -7    2.40    0.24
   5   3   7    2.51    0.37
  -9   4   7    2.67    0.30
  -9   4   7    2.68    0.32
  -8   4   7    0.46    0.25
  -8   4   7    0.63    0.39
  -8   4   7    0.32    0.20
  -8   4   7    0.25    0.22
  -8   4   7    0.38    0.19
  -7   4   7    0.65    0.22
  -7   4   7    1.12    0.22
  -7   4   7    0.95    0.35
  -7   4   7    0.96    0.24
   6  -4  -7    5.16    0.41
  -6   4   7    5.00    0.38
  -6   4   7    6.14    0.40
   5  -4  -7    5.01    0.39
  -5   4   7    4.81    0.38
   4  -4  -7    9.42    0.51
   3  -4  -7   11.89    0.61
  -3   4   7   12.62    0.68
  -3   4   7   12.10    0.53
   2  -4  -7    8.03    0.47
  -2   4   7    7.31    0.52
  -2   4   7    7.31    0.39
   1  -4  -7    1.18    0.23
  -1   4   7    1.08    0.18
  -1   4   7    1.13    0.29
   0  -4  -7   18.69    0.81
   0   4   7   17.42    0.88
  -1  -4  -7   12.76    0.61
   1   4   7   12.50    0.68
  -2  -4  -7    0.58    0.24
   2   4   7    1.63    0.30
  -3  -4  -7   -0.12    0.21
   3   4   7    0.09    0.28
  -4  -4  -7   -0.19    0.20
   4   4   7   -0.10    0.28
  -5  -4  -7   -0.10    0.20
  -5  -4  -7   -0.02    0.22
  -8   5   7    1.59    0.42
  -8   5   7    1.43    0.23
  -8   5   7    1.15    0.24
  -7   5   7    0.56    0.37
  -7   5   7    0.78    0.22
   6  -5  -7    0.97    0.25
  -6   5   7    0.48    0.36
  -6   5   7    0.85    0.23
   5  -5  -7    9.32    0.54
   4  -5  -7    1.67    0.27
   3  -5  -7    6.71    0.45
  -3   5   7    7.51    0.52
   2  -5  -7    1.52    0.25
  -2   5   7    1.31    0.19
  -2   5   7    1.63    0.31
   1  -5  -7    0.44    0.22
  -1   5   7    0.71    0.29
   0  -5  -7    0.82    0.23
   0   5   7    1.08    0.29
  -1  -5  -7    2.08    0.27
   1   5   7    1.78    0.32
  -2  -5  -7    7.20    0.45
   2   5   7    6.10    0.51
  -3  -5  -7    0.02    0.23
   3   5   7    0.22    0.29
  -7   6   7   -0.53    0.21
  -7   6   7    0.41    0.41
   6  -6  -7    4.83    0.43
  -6   6   7    5.02    0.57
   5  -6  -7    2.38    0.30
   4  -6  -7    4.77    0.41
   3  -6  -7    0.83    0.25
  -3   6   7    0.75    0.31
   2  -6  -7    6.66    0.46
  -2   6   7    6.79    0.54
   1  -6  -7    6.98    0.46
  -1   6   7    7.21    0.54
   0  -6  -7    1.29    0.26
   0   6   7    1.19    0.31
  -1  -6  -7    0.65    0.24
   1   6   7    0.83    0.32
   2   6   7    3.38    0.40
  -6   7   7    0.51    0.43
   5  -7  -7    0.70    0.29
  -5   7   7    0.68    0.40
   4  -7  -7    3.41    0.36
  -4   7   7    4.62    0.51
   3  -7  -7    1.16    0.29
  -3   7   7    1.02    0.35
   2  -7  -7    4.54    0.42
  -2   7   7    3.98    0.44
  -1   7   7    5.14    0.52
   0   7   7    9.06    0.63
  -4   8   7    1.08    0.45
  -3   8   7   -0.46    0.41
   0 -12   8    0.71    0.28
   1 -12   8    0.66    0.27
  -2  12  -8    1.57    0.29
  -3  12  -8    2.53    0.30
  -3  12  -8    2.04    0.26
  -4  12  -8   -0.02    0.18
  -4  12  -8   -0.09    0.17
   1  11  -8    6.41    0.47
  -1 -11   8    6.79    0.49
   0  11  -8    6.47    0.45
   0 -11   8    6.05    0.46
  -1  11  -8   -0.10    0.23
   1 -11   8   -0.07    0.22
  -2  11  -8    0.03    0.23
  -2  11  -8    0.36    0.21
   2 -11   8   -0.22    0.22
  -3  11  -8    2.25    0.25
  -3  11  -8    2.65    0.28
  -3  11  -8    2.66    0.25
  -4  11  -8    0.55    0.17
  -4  11  -8    0.41    0.17
  -4  11  -8    0.79    0.21
  -6  11  -8    0.41    0.17
   3  10  -8   -0.13    0.26
   2  10  -8    3.25    0.33
  -2 -10   8    2.98    0.32
   1  10  -8    0.29    0.23
  -1 -10   8    0.33    0.23
   0  10  -8    6.42    0.43
   0 -10   8    6.13    0.43
  -1  10  -8    0.17    0.22
   1 -10   8    0.39    0.21
  -2  10  -8    0.09    0.19
  -2  10  -8   -0.22    0.19
  -2  10  -8    0.01    0.21
   2 -10   8    0.07    0.20
  -3  10  -8    2.47    0.24
  -3  10  -8    2.98    0.26
  -3  10  -8    2.92    0.26
  -4  10  -8    0.11    0.14
  -4  10  -8    0.17    0.14
  -4  10  -8    0.20    0.19
  -5  10  -8    1.93    0.22
  -6  10  -8    3.69    0.25
  -7  10  -8    7.97    0.42
  -7  10  -8    6.91    0.42
   4   9  -8    0.03    0.26
  -4  -9   8    0.19    0.25
   3   9  -8    0.13    0.24
  -3  -9   8    0.09    0.23
   2   9  -8   -0.19    0.23
  -2  -9   8   -0.24    0.21
   1   9  -8    0.20    0.22
  -1  -9   8    0.48    0.22
   0   9  -8   -0.10    0.21
   0  -9   8   -0.02    0.19
  -1   9  -8    0.40    0.20
  -1   9  -8    0.56    0.21
   1  -9   8    0.30    0.19
  -2   9  -8    2.09    0.23
  -2   9  -8    2.56    0.24
  -2   9  -8    2.50    0.25
   2  -9   8    2.42    0.25
  -3   9  -8    9.42    0.44
  -3   9  -8    8.82    0.44
  -3   9  -8    9.01    0.46
  -3   9  -8    9.41    0.45
  -4   9  -8    1.35    0.20
  -4   9  -8    1.06    0.15
  -4   9  -8    1.07    0.19
  -4   9  -8    1.00    0.15
  -5   9  -8    0.79    0.20
  -5   9  -8    0.55    0.16
  -6   9  -8    9.71    0.48
  -6   9  -8    9.85    0.42
  -6   9  -8   10.01    0.48
  -7   9  -8    2.84    0.24
  -7   9  -8    3.04    0.24
   5   8  -8    0.30    0.27
  -5  -8   8    0.03    0.24
   4   8  -8    3.00    0.33
  -4  -8   8    3.31    0.33
   3   8  -8    1.30    0.26
  -3  -8   8    0.96    0.24
   2   8  -8   -0.14    0.22
  -2  -8   8   -0.03    0.20
   1   8  -8    0.26    0.21
  -1  -8   8    0.31    0.21
   0   8  -8    1.37    0.23
   0   8  -8    1.40    0.22
   0  -8   8    1.67    0.23
  -1   8  -8   -0.15    0.17
  -1   8  -8    0.34    0.19
  -1   8  -8    0.26    0.18
   1  -8   8    0.02    0.19
  -2   8  -8    4.92    0.36
  -2   8  -8    5.22    0.32
  -2   8  -8    5.21    0.34
  -2   8  -8    5.26    0.33
   2  -8   8    5.14    0.37
  -3   8  -8    1.90    0.19
  -3   8  -8    2.38    0.22
  -3   8  -8    1.77    0.21
  -3   8  -8    1.84    0.19
   3  -8   8    1.99    0.22
  -4   8  -8    0.05    0.15
  -4   8  -8    0.13    0.14
  -4   8  -8   -0.12    0.19
  -4   8  -8    0.29    0.18
  -5   8  -8    0.19    0.17
  -5   8  -8    0.28    0.18
  -5   8  -8    0.23    0.14
  -6   8  -8    1.06    0.19
  -6   8  -8    1.09    0.19
  -7   8  -8    1.64    0.18
   6   7  -8    0.30    0.28
   6   7  -8    0.03    0.27
   5   7  -8    6.13    0.46
   5   7  -8    6.09    0.46
  -5  -7   8    6.16    0.46
   4   7  -8    0.20    0.24
   4   7  -8    0.52    0.23
  -4  -7   8    0.48    0.23
   3   7  -8    2.89    0.29
   3   7  -8    3.24    0.32
  -3  -7   8    3.02    0.30
   2   7  -8   19.66    0.81
   2   7  -8   17.41    0.83
  -2  -7   8   19.01    0.82
   1   7  -8    0.61    0.21
   1   7  -8    0.61    0.21
  -1  -7   8    0.72    0.21
   0   7  -8    2.04    0.22
   0   7  -8    1.97    0.23
   0   7  -8    1.40    0.24
   0   7  -8    2.15    0.23
   0  -7   8    2.17    0.24
  -1   7  -8    1.53    0.21
  -1   7  -8    1.85    0.21
  -1   7  -8    1.58    0.21
  -1   7  -8    1.37    0.22
  -1   7  -8    2.20    0.21
   1  -7   8    1.67    0.18
   1  -7   8    1.75    0.23
  -2   7  -8    2.89    0.26
  -2   7  -8    3.03    0.26
  -2   7  -8    2.87    0.24
  -2   7  -8    2.75    0.24
  -2   7  -8    2.59    0.25
  -2   7  -8    2.35    0.24
  -3   7  -8    0.47    0.16
  -3   7  -8    0.44    0.16
  -3   7  -8    0.27    0.18
  -3   7  -8    0.09    0.13
  -3   7  -8    0.55    0.18
  -3   7  -8   -0.02    0.13
  -4   7  -8    2.27    0.20
  -4   7  -8    2.11    0.22
  -4   7  -8    1.87    0.22
  -5   7  -8    0.97    0.19
  -5   7  -8    1.42    0.16
  -5   7  -8    1.57    0.19
  -6   7  -8   -0.17    0.15
  -6   7  -8    0.15    0.15
   7   6  -8   -0.27    0.27
   7   6  -8   -0.22    0.28
   6   6  -8    1.38    0.31
   6   6  -8    1.41    0.28
  -6  -6   8    1.98    0.29
   5   6  -8    8.94    0.55
   5   6  -8    8.72    0.52
  -5  -6   8    9.38    0.53
   4   6  -8    4.52    0.38
   4   6  -8    4.09    0.39
  -4  -6   8    4.50    0.38
   3   6  -8   -0.07    0.20
   3   6  -8   -0.14    0.21
  -3  -6   8    0.22    0.21
   2   6  -8   13.63    0.62
  -2  -6   8   12.51    0.63
   1   6  -8   46.85    1.70
   1   6  -8   41.55    1.65
   1   6  -8   42.17    1.67
   0   6  -8    0.81    0.19
   0   6  -8    1.17    0.21
   0   6  -8    1.02    0.20
   0   6  -8    0.95    0.18
   0  -6   8    1.11    0.16
  -1   6  -8    1.52    0.19
  -1   6  -8    1.35    0.19
  -1   6  -8    1.56    0.20
  -1   6  -8    0.72    0.20
  -1   6  -8    1.29    0.20
  -2   6  -8    5.41    0.32
  -2   6  -8    5.68    0.36
  -2   6  -8    6.13    0.35
  -2   6  -8    5.80    0.33
  -2   6  -8    6.01    0.38
  -3   6  -8    2.54    0.24
  -3   6  -8    2.95    0.24
  -3   6  -8    2.18    0.20
  -3   6  -8    2.98    0.25
  -3   6  -8    2.70    0.23
  -3   6  -8    2.79    0.23
  -4   6  -8    0.13    0.15
  -4   6  -8   -0.19    0.15
  -4   6  -8    0.09    0.14
  -5   6  -8    3.46    0.23
  -5   6  -8    3.32    0.26
  -5   6  -8    2.94    0.27
  -6   6  -8    2.49    0.23
  -6   6  -8    2.34    0.20
   7   5  -8    4.24    0.45
   7   5  -8    3.44    0.35
  -7  -5   8    4.04    0.36
   6   5  -8    0.69    0.27
   6   5  -8    0.27    0.24
  -6  -5   8    0.00    0.24
   5   5  -8    2.23    0.29
  -5  -5   8    2.89    0.29
   4   5  -8    3.18    0.30
  -4  -5   8    3.67    0.31
   3   5  -8    1.73    0.24
   2   5  -8    4.85    0.37
   2   5  -8    6.14    0.38
   1   5  -8    2.30    0.22
   1   5  -8    2.21    0.22
   1   5  -8    2.05    0.23
   1   5  -8    2.31    0.23
  -1  -5   8    1.93    0.21
  -1  -5   8    2.01    0.18
   0   5  -8   17.10    0.68
   0   5  -8   17.35    0.72
   0   5  -8   17.13    0.71
   0   5  -8   16.92    0.72
   0   5  -8   16.93    0.71
   0  -5   8   15.62    0.67
   0  -5   8   16.96    0.74
  -1   5  -8   21.99    0.89
  -1   5  -8   21.76    0.84
  -1   5  -8   22.17    0.88
  -1   5  -8   21.74    0.89
  -1   5  -8   23.55    0.89
   1  -5   8   21.09    0.84
  -2   5  -8    5.09    0.30
  -2   5  -8    5.09    0.31
  -2   5  -8    5.21    0.32
  -2   5  -8    5.37    0.34
  -2   5  -8    4.68    0.33
  -3   5  -8    6.01    0.35
  -3   5  -8    5.75    0.33
  -3   5  -8    5.98    0.32
  -3   5  -8    5.08    0.34
  -3   5  -8    6.23    0.31
  -4   5  -8    1.77    0.19
  -4   5  -8    1.90    0.18
  -4   5  -8    1.81    0.20
  -5   5  -8    5.15    0.27
  -5   5  -8    4.36    0.30
  -5   5  -8    4.58    0.30
  -6   5  -8    0.80    0.18
  -6   5  -8    0.73    0.15
  -7   5  -8    0.53    0.16
   8   4  -8    2.38    0.38
  -8  -4   8    2.09    0.31
   7   4  -8    4.57    0.41
  -7  -4   8    6.10    0.45
   6   4  -8    8.38    0.49
  -6  -4   8    8.64    0.50
   5   4  -8    0.52    0.23
  -5  -4   8    0.63    0.23
   4   4  -8    2.15    0.26
  -4  -4   8    2.49    0.23
   3   4  -8    7.12    0.42
  -3  -4   8    7.12    0.39
  -3  -4   8    6.83    0.36
   2   4  -8    1.53    0.20
   2   4  -8    1.44    0.21
   2   4  -8    1.08    0.21
  -2  -4   8    1.28    0.19
  -2  -4   8    1.29    0.16
  -2  -4   8    1.50    0.21
   1   4  -8    0.19    0.17
   1   4  -8    0.24    0.15
   1   4  -8    0.43    0.16
   1   4  -8    0.29    0.17
   1   4  -8    0.22    0.17
  -1  -4   8    0.32    0.13
  -1  -4   8    0.30    0.16
  -1  -4   8    0.17    0.15
  -1  -4   8    0.11    0.16
   0   4  -8    2.04    0.21
   0   4  -8    2.06    0.20
   0   4  -8    2.17    0.21
   0   4  -8    1.89    0.21
   0   4  -8    2.11    0.20
   0  -4   8    1.80    0.20
   0  -4   8    1.63    0.19
   0  -4   8    1.97    0.21
  -1   4  -8   20.06    0.81
  -1   4  -8   20.18    0.81
  -1   4  -8   19.60    0.80
  -1   4  -8   20.71    0.81
  -1   4  -8   18.78    0.76
   1  -4   8   18.87    0.76
  -2   4  -8   33.42    1.30
  -2   4  -8   34.99    1.28
  -2   4  -8   31.57    1.28
  -2   4  -8   33.71    1.29
  -2   4  -8   34.94    1.23
   2  -4   8   32.80    1.40
  -3   4  -8   -0.22    0.16
  -3   4  -8    0.12    0.13
  -3   4  -8   -0.09    0.14
  -3   4  -8   -0.05    0.15
  -3   4  -8    0.02    0.14
   3  -4   8    0.11    0.15
  -4   4  -8    0.08    0.14
  -4   4  -8    0.26    0.16
  -4   4  -8    0.19    0.15
   4  -4   8    0.40    0.17
  -5   4  -8    8.39    0.36
  -5   4  -8    8.15    0.42
  -5   4  -8    7.78    0.40
   5  -4   8    7.81    0.45
  -6   4  -8    0.41    0.17
  -6   4  -8    0.43    0.15
  -7   4  -8    1.19    0.16
  -7   4  -8    1.16    0.19
  -8  -3   8    9.14    0.56
   7   3  -8    0.36    0.25
  -7  -3   8    0.65    0.25
   6   3  -8    4.15    0.37
  -6  -3   8    4.33    0.38
   5   3  -8   12.38    0.60
  -5  -3   8   12.51    0.58
   4   3  -8    2.04    0.25
  -4  -3   8    1.55    0.16
  -4  -3   8    2.00    0.23
  -4  -3   8    1.97    0.25
   3   3  -8   14.09    0.65
  -3  -3   8   14.78    0.67
  -3  -3   8   14.20    0.60
  -3  -3   8   15.79    0.67
  -3  -3   8   14.04    0.62
   2   3  -8   33.72    1.30
   2   3  -8   33.33    1.22
   2   3  -8   34.12    1.31
   2   3  -8   33.89    1.28
  -2  -3   8   30.46    1.22
  -2  -3   8   32.06    1.31
  -2  -3   8   34.06    1.28
  -2  -3   8   32.11    1.25
   1   3  -8    0.97    0.18
   1   3  -8    1.10    0.18
   1   3  -8    1.16    0.18
   1   3  -8    1.25    0.19
   1   3  -8    1.28    0.18
  -1  -3   8    1.15    0.18
  -1  -3   8    1.05    0.19
   0   3  -8   24.40    0.94
   0   3  -8   23.84    0.93
   0   3  -8   23.49    0.95
   0   3  -8   23.48    0.89
   0  -3   8   22.25    0.95
   0  -3   8   23.50    0.89
   0  -3   8   23.29    0.93
  -1   3  -8    2.00    0.20
  -1   3  -8    1.99    0.20
  -1   3  -8    2.40    0.21
  -1   3  -8    2.35    0.22
  -1   3  -8    2.29    0.21
   1  -3   8    1.87    0.20
   1  -3   8    2.61    0.25
  -2   3  -8    5.45    0.32
  -2   3  -8    4.96    0.35
  -2   3  -8    4.95    0.34
  -2   3  -8    5.28    0.34
  -2   3  -8    5.35    0.32
   2  -3   8    6.02    0.33
  -3   3  -8    6.10    0.34
  -3   3  -8    6.08    0.39
  -3   3  -8    6.41    0.34
  -3   3  -8    6.72    0.33
  -3   3  -8    6.68    0.37
   3  -3   8    5.81    0.38
  -4   3  -8    9.09    0.45
  -4   3  -8    9.67    0.42
  -4   3  -8    8.46    0.39
  -4   3  -8    9.68    0.41
  -4   3  -8    9.18    0.45
   4  -3   8    8.60    0.49
  -5   3  -8    4.82    0.32
  -5   3  -8    4.96    0.32
   5  -3   8    4.53    0.38
  -6   3  -8    6.38    0.35
  -6   3  -8    6.12    0.36
   6  -3   8    5.53    0.42
  -7   3  -8    0.21    0.17
  -7   3  -8    0.23    0.16
   7  -3   8    0.66    0.25
  -8   3  -8    0.42    0.17
  -8  -2   8   10.52    0.57
   7   2  -8   -0.03    0.23
  -7  -2   8    0.13    0.23
   6   2  -8    5.02    0.39
  -6  -2   8    4.90    0.36
   5   2  -8    0.71    0.22
  -5  -2   8    0.78    0.21
  -5  -2   8    0.51    0.23
   4   2  -8   18.89    0.80
  -4  -2   8   19.01    0.81
  -4  -2   8   17.56    0.75
  -4  -2   8   18.84    0.73
  -4  -2   8   17.84    0.81
   3   2  -8    2.12    0.24
  -3  -2   8    2.16    0.23
  -3  -2   8    2.48    0.25
  -3  -2   8    2.05    0.24
  -3  -2   8    1.96    0.17
   2   2  -8   13.00    0.58
   2   2  -8   12.26    0.54
   2   2  -8   13.53    0.59
   2   2  -8   12.55    0.58
  -2  -2   8   11.73    0.57
  -2  -2   8   12.34    0.55
  -2  -2   8   11.65    0.59
   1   2  -8    5.53    0.35
   1   2  -8    5.80    0.37
   1   2  -8    5.50    0.34
   1   2  -8    5.36    0.33
   1   2  -8    5.41    0.34
  -1  -2   8    4.97    0.36
  -1  -2   8    5.08    0.35
   0   2  -8    0.74    0.16
   0   2  -8    1.02    0.20
   0   2  -8    0.97    0.17
   0   2  -8    0.72    0.17
   0  -2   8    1.31    0.20
   0  -2   8    0.44    0.17
   0  -2   8    0.62    0.18
   0  -2   8    0.65    0.18
  -1   2  -8    8.98    0.46
  -1   2  -8    9.27    0.49
  -1   2  -8    8.77    0.45
  -1   2  -8   10.23    0.44
  -1   2  -8    9.21    0.45
   1  -2   8    8.95    0.44
   1  -2   8    9.18    0.46
   1  -2   8    9.83    0.49
  -2   2  -8    3.95    0.28
  -2   2  -8    4.28    0.32
  -2   2  -8    3.78    0.28
  -2   2  -8    3.56    0.32
  -2   2  -8    3.76    0.29
   2  -2   8    4.18    0.31
  -3   2  -8    3.61    0.27
  -3   2  -8    3.45    0.30
  -3   2  -8    3.76    0.30
  -3   2  -8    3.19    0.24
  -3   2  -8    3.32    0.26
   3  -2   8    2.97    0.31
  -4   2  -8    1.04    0.19
  -4   2  -8    0.84    0.15
  -4   2  -8    0.75    0.13
  -4   2  -8    1.01    0.19
   4  -2   8    1.00    0.23
  -5   2  -8    3.18    0.30
  -5   2  -8    3.63    0.31
   5  -2   8    3.12    0.32
  -6   2  -8    0.30    0.18
  -6   2  -8   -0.05    0.18
   6  -2   8   -0.38    0.23
  -7   2  -8    0.14    0.19
  -7   2  -8   -0.15    0.18
   7  -2   8   -0.19    0.25
  -8   2  -8    0.95    0.22
   8  -2   8    1.09    0.32
  -9  -1   8   -0.30    0.21
  -8  -1   8    1.05    0.33
  -8  -1   8    0.86    0.26
   7   1  -8   20.92    0.91
  -7  -1   8   21.49    0.87
   6   1  -8    1.21    0.26
  -6  -1   8    1.26    0.26
  -6  -1   8    1.33    0.23
   5   1  -8    2.40    0.26
  -5  -1   8    2.70    0.28
  -5  -1   8    2.30    0.26
  -5  -1   8    2.12    0.25
   4   1  -8    6.81    0.43
  -4  -1   8    7.09    0.46
  -4  -1   8    6.86    0.42
  -4  -1   8    7.04    0.34
  -4  -1   8    7.36    0.44
   3   1  -8    2.28    0.24
  -3  -1   8    2.38    0.25
  -3  -1   8    2.79    0.26
  -3  -1   8    2.34    0.22
  -3  -1   8    2.47    0.25
   2   1  -8    0.00    0.17
   2   1  -8    0.32    0.16
   2   1  -8    0.21    0.18
   2   1  -8    0.16    0.16
  -2  -1   8    0.02    0.17
  -2  -1   8   -0.12    0.17
  -2  -1   8    0.08    0.19
   1   1  -8    5.71    0.36
   1   1  -8    5.77    0.35
   1   1  -8    6.38    0.37
   1   1  -8    5.42    0.34
   1   1  -8    5.92    0.38
  -1  -1   8    5.93    0.35
  -1  -1   8    5.40    0.37
  -1  -1   8    5.56    0.40
   0   1  -8   19.95    0.83
   0   1  -8   20.62    0.80
   0   1  -8   21.53    0.85
   0   1  -8   20.39    0.84
   0  -1   8   20.21    0.86
   0  -1   8   19.54    0.80
   0  -1   8   19.93    0.91
  -1   1  -8    2.73    0.23
  -1   1  -8    2.17    0.21
  -1   1  -8    2.45    0.23
  -1   1  -8    2.50    0.22
  -1   1  -8    2.95    0.26
   1  -1   8    2.61    0.25
   1  -1   8    2.41    0.23
   1  -1   8    2.31    0.22
  -2   1  -8    6.71    0.38
  -2   1  -8    6.81    0.38
  -2   1  -8    6.88    0.38
  -2   1  -8    7.17    0.41
  -2   1  -8    6.78    0.40
   2  -1   8    7.44    0.44
  -3   1  -8   15.91    0.68
  -3   1  -8   17.14    0.68
  -3   1  -8   17.22    0.71
  -3   1  -8   16.70    0.71
  -3   1  -8   16.37    0.69
   3  -1   8   15.48    0.77
  -4   1  -8    9.23    0.47
  -4   1  -8    9.37    0.42
  -4   1  -8    8.21    0.40
  -4   1  -8    9.04    0.48
   4  -1   8    8.78    0.51
  -5   1  -8    2.13    0.24
   5  -1   8    2.75    0.31
  -6   1  -8    0.29    0.20
   6  -1   8   -0.23    0.26
  -7   1  -8    0.09    0.21
   7  -1   8   -0.12    0.27
  -9   0   8   -0.30    0.24
  -9   0   8    0.07    0.20
  -8   0   8   15.64    0.71
  -8   0   8   16.23    0.91
  -8   0   8   15.80    0.73
   7   0  -8    0.72    0.25
  -7   0   8    0.82    0.24
  -7   0   8    0.43    0.27
  -7   0   8    0.41    0.22
   6   0  -8   57.06    2.18
  -6   0   8   59.42    2.15
  -6   0   8   53.52    2.05
   5   0  -8    5.15    0.37
  -5   0   8    5.34    0.38
  -5   0   8    5.49    0.42
  -5   0   8    5.42    0.38
   4   0  -8   12.50    0.59
  -4   0   8   12.22    0.52
  -4   0   8   12.31    0.61
  -4   0   8   13.00    0.52
  -4   0   8   12.77    0.61
  -4   0   8   12.27    0.58
   3   0  -8   15.27    0.66
  -3   0   8   13.52    0.65
  -3   0   8   13.99    0.63
  -3   0   8   14.22    0.65
   2   0  -8    0.08    0.18
   2   0  -8    0.13    0.16
  -2   0   8    0.08    0.17
  -2   0   8    0.08    0.18
   1   0  -8   15.01    0.70
   1   0  -8   16.49    0.70
   1   0  -8   15.69    0.67
   1   0  -8   16.41    0.70
  -1   0   8   16.69    0.77
   0   0  -8    7.33    0.42
   0   0  -8    7.49    0.40
   0   0  -8    7.29    0.40
   0   0  -8    7.10    0.42
   0   0   8    7.51    0.46
  -1   0  -8   10.89    0.52
  -1   0  -8   10.22    0.52
  -1   0  -8   10.88    0.51
  -1   0  -8   10.50    0.52
   1   0   8   11.03    0.57
  -2   0  -8    4.61    0.32
  -2   0  -8    3.76    0.28
  -2   0  -8    3.54    0.31
  -2   0  -8    3.76    0.31
   2   0   8    3.70    0.35
  -3   0  -8    3.66    0.29
  -3   0  -8    3.73    0.32
  -3   0  -8    3.47    0.27
   3   0   8    2.94    0.31
  -4   0  -8    4.46    0.34
  -4   0  -8    4.04    0.27
  -4   0  -8    4.53    0.29
   4   0   8    4.05    0.39
  -5   0  -8    9.98    0.51
  -5   0  -8    8.70    0.43
  -5   0  -8   10.90    0.45
   5   0   8    8.81    0.57
  -6   0  -8    1.89    0.27
   6   0   8    2.23    0.34
  -7   0  -8    0.53    0.24
   7   0   8    0.27    0.30
  -9   1   8    1.21    0.27
  -9   1   8    1.20    0.39
  -9   1   8    1.65    0.24
  -8   1   8    0.32    0.20
  -8   1   8   -0.41    0.22
  -8   1   8   -0.24    0.19
  -8   1   8    0.29    0.33
   7  -1  -8    6.10    0.43
  -7   1   8    6.38    0.40
  -7   1   8    5.74    0.41
   6  -1  -8    1.26    0.23
  -6   1   8    1.04    0.25
  -6   1   8    1.02    0.26
   5  -1  -8   24.28    1.02
  -5   1   8   24.22    0.97
  -5   1   8   24.50    1.01
   4  -1  -8   11.33    0.56
  -4   1   8   10.94    0.47
  -4   1   8   10.74    0.53
  -4   1   8   11.13    0.47
   3  -1  -8   28.35    1.14
  -3   1   8   27.26    1.08
  -3   1   8   28.63    1.08
   2  -1  -8    5.03    0.37
  -2   1   8    4.59    0.41
   1  -1  -8   13.06    0.61
   1  -1  -8   12.93    0.62
  -1   1   8   13.52    0.69
   0  -1  -8    4.14    0.34
   0  -1  -8    3.73    0.32
   0  -1  -8    4.20    0.35
   0   1   8    4.56    0.39
  -1  -1  -8    0.73    0.18
  -1  -1  -8    0.54    0.20
  -1  -1  -8    0.67    0.20
   1   1   8    1.09    0.25
  -2  -1  -8    0.17    0.17
  -2  -1  -8    0.42    0.19
  -2  -1  -8    0.47    0.20
   2   1   8    0.36    0.24
  -3  -1  -8    1.67    0.20
  -3  -1  -8    1.94    0.25
  -3  -1  -8    1.88    0.23
   3   1   8    1.84    0.29
  -4  -1  -8   -0.11    0.18
  -4  -1  -8   -0.07    0.15
  -4  -1  -8    0.26    0.21
   4   1   8    0.21    0.25
  -5  -1  -8    0.49    0.16
  -5  -1  -8    0.44    0.18
  -5  -1  -8    0.53    0.24
   5   1   8    0.49    0.28
  -6  -1  -8    3.53    0.33
   6   1   8    3.00    0.39
  -9   2   8    1.56    0.42
  -9   2   8    2.20    0.29
  -8   2   8    3.40    0.43
  -8   2   8    2.89    0.27
  -8   2   8    2.71    0.30
  -8   2   8    2.50    0.27
  -7   2   8    2.22    0.27
  -7   2   8    2.20    0.26
   6  -2  -8    0.95    0.24
  -6   2   8    1.29    0.23
   5  -2  -8    9.73    0.52
  -5   2   8    9.94    0.52
   4  -2  -8    7.85    0.45
  -4   2   8    7.04    0.35
  -4   2   8    7.79    0.35
   3  -2  -8    6.64    0.44
  -3   2   8    6.79    0.36
   2  -2  -8    4.58    0.37
  -2   2   8    4.51    0.41
  -2   2   8    4.00    0.29
   1  -2  -8    1.31    0.22
  -1   2   8    0.88    0.27
   0  -2  -8    4.21    0.36
   0   2   8    4.30    0.40
  -1  -2  -8    1.25    0.21
  -1  -2  -8    1.00    0.22
   1   2   8    1.35    0.27
  -2  -2  -8    9.45    0.51
  -2  -2  -8    9.61    0.49
  -2  -2  -8   10.43    0.52
   2   2   8    9.06    0.56
  -3  -2  -8   -0.19    0.19
  -3  -2  -8   -0.23    0.21
  -3  -2  -8    0.06    0.17
   3   2   8   -0.07    0.25
  -4  -2  -8    0.44    0.18
  -4  -2  -8    0.23    0.20
  -4  -2  -8    0.54    0.23
   4   2   8    0.48    0.27
  -5  -2  -8    3.33    0.33
  -5  -2  -8    3.02    0.27
  -5  -2  -8    4.42    0.34
   5   2   8    2.94    0.38
  -6  -2  -8    0.15    0.26
  -8   3   8    2.99    0.29
  -8   3   8    4.63    0.49
  -7   3   8   -0.49    0.33
  -7   3   8    0.00    0.21
   6  -3  -8    1.41    0.25
  -6   3   8    1.33    0.25
   5  -3  -8    0.37    0.22
   4  -3  -8   -0.14    0.21
  -4   3   8    0.20    0.12
   3  -3  -8    5.97    0.43
  -3   3   8    6.35    0.49
  -3   3   8    6.95    0.36
   2  -3  -8    0.03    0.20
  -2   3   8    0.33    0.17
  -2   3   8   -0.04    0.25
   1  -3  -8    0.07    0.20
  -1   3   8    0.35    0.27
   0  -3  -8    0.73    0.22
   0   3   8    0.64    0.26
  -1  -3  -8   -0.15    0.20
   1   3   8    0.14    0.25
  -2  -3  -8   17.90    0.78
   2   3   8   16.94    0.87
  -3  -3  -8    4.08    0.36
  -3  -3  -8    2.77    0.28
   3   3   8    3.50    0.37
  -4  -3  -8    0.12    0.21
  -4  -3  -8   -0.33    0.18
   4   3   8    0.25    0.28
  -5  -3  -8    3.59    0.31
   5   3   8    3.95    0.42
  -8   4   8    3.44    0.49
  -8   4   8    2.67    0.28
  -7   4   8    2.51    0.43
  -7   4   8    2.86    0.30
   6  -4  -8    0.65    0.24
   5  -4  -8    3.06    0.32
   4  -4  -8    2.10    0.28
   3  -4  -8    1.59    0.27
  -3   4   8    2.59    0.34
   2  -4  -8   -0.02    0.21
  -2   4   8   -0.13    0.26
  -2   4   8   -0.14    0.15
   1  -4  -8    1.22    0.25
  -1   4   8    0.83    0.29
   0  -4  -8    2.95    0.30
   0   4   8    3.02    0.35
  -1  -4  -8    0.03    0.22
   1   4   8   -0.15    0.26
  -2  -4  -8   -0.14    0.22
   2   4   8   -0.36    0.26
  -3  -4  -8    4.10    0.38
   3   4   8    3.51    0.40
  -7   5   8    0.72    0.38
   5  -5  -8    0.06    0.24
   4  -5  -8    5.73    0.45
   3  -5  -8    0.98    0.27
  -3   5   8    1.27    0.33
   2  -5  -8   -0.01    0.23
  -2   5   8   -0.11    0.28
   1  -5  -8    0.10    0.24
  -1   5   8    0.55    0.30
   0  -5  -8   -0.11    0.23
   0   5   8    0.19    0.28
  -1  -5  -8    2.93    0.32
   1   5   8    2.80    0.38
   2   5   8    0.78    0.32
   6  -6  -8    1.45    0.29
  -6   6   8    0.38    0.40
   5  -6  -8   11.89    0.65
   4  -6  -8   -0.11    0.25
   3  -6  -8    7.20    0.50
  -3   6   8    7.15    0.56
   2  -6  -8    2.96    0.34
  -2   6   8    3.04    0.40
   1  -6  -8    0.68    0.26
  -1   6   8    0.17    0.32
   0   6   8    0.61    0.32
   1 -12   9   -0.34    0.24
  -2  12  -9    1.78    0.29
  -3  12  -9    2.36    0.31
  -3  12  -9    2.36    0.26
  -4  12  -9    1.26    0.21
  -1 -11   9   -0.30    0.24
   0  11  -9    0.03    0.24
   0 -11   9    0.12    0.23
  -1  11  -9    2.18    0.29
   1 -11   9    2.29    0.28
  -2  11  -9    5.32    0.40
  -2  11  -9    4.88    0.37
  -3  11  -9    1.92    0.26
  -3  11  -9    1.62    0.22
  -3  11  -9    1.58    0.23
  -4  11  -9    2.46    0.25
  -4  11  -9    3.15    0.25
  -6  11  -9   10.65    0.55
  -6  11  -9    9.89    0.46
   2  10  -9    7.62    0.49
  -2 -10   9    7.63    0.50
   1  10  -9    0.24    0.24
  -1 -10   9    0.71    0.24
   0  10  -9    4.43    0.38
   0 -10   9    4.17    0.37
  -1  10  -9    4.07    0.35
   1 -10   9    3.05    0.30
  -2  10  -9    0.47    0.20
  -2  10  -9    0.47    0.19
  -2  10  -9    0.42    0.21
   2 -10   9    0.31    0.21
  -3  10  -9   12.47    0.57
  -3  10  -9   10.96    0.55
  -3  10  -9   12.26    0.55
  -4  10  -9    1.41    0.17
  -4  10  -9    1.41    0.17
  -5  10  -9    3.30    0.29
  -5  10  -9    2.26    0.23
  -6  10  -9   -0.02    0.15
  -6  10  -9    0.16    0.21
  -7  10  -9    3.90    0.33
   4   9  -9    0.85    0.27
   3   9  -9   10.19    0.58
  -3  -9   9   11.54    0.62
   2   9  -9   10.78    0.57
  -2  -9   9   10.70    0.58
   1   9  -9    6.87    0.43
  -1  -9   9    7.11    0.46
   0   9  -9    1.88    0.26
   0  -9   9    1.93    0.26
  -1   9  -9   14.38    0.64
  -1   9  -9   13.98    0.64
   1  -9   9   12.53    0.64
  -2   9  -9    0.52    0.18
  -2   9  -9    0.70    0.18
  -2   9  -9    0.95    0.22
  -2   9  -9    1.39    0.25
   2  -9   9    0.81    0.21
  -3   9  -9   -0.22    0.15
  -3   9  -9   -0.16    0.15
  -3   9  -9   -0.14    0.21
  -3   9  -9   -0.31    0.18
  -4   9  -9    7.56    0.38
  -4   9  -9    7.03    0.44
  -4   9  -9    7.41    0.38
  -4   9  -9    7.11    0.35
  -5   9  -9    3.95    0.28
  -5   9  -9    3.68    0.33
  -6   9  -9   -0.14    0.19
  -7   9  -9   -0.52    0.17
  -7   9  -9   -0.47    0.18
   5   8  -9    0.33    0.28
   4   8  -9    0.84    0.27
  -4  -8   9    1.11    0.27
   3   8  -9    4.58    0.40
  -3  -8   9    5.22    0.42
   2   8  -9   11.15    0.58
  -2  -8   9   11.68    0.60
   1   8  -9    7.35    0.45
  -1  -8   9    7.56    0.45
   0   8  -9    1.53    0.24
   0   8  -9    1.61    0.24
   0  -8   9    1.52    0.24
  -1   8  -9    0.69    0.21
  -1   8  -9    0.50    0.20
  -1   8  -9    0.64    0.19
  -1   8  -9    1.06    0.23
   1  -8   9    0.65    0.22
  -2   8  -9    3.73    0.34
  -2   8  -9    3.71    0.29
  -2   8  -9    3.93    0.30
  -2   8  -9    3.99    0.32
   2  -8   9    3.69    0.34
  -3   8  -9    5.76    0.34
  -3   8  -9    6.95    0.41
  -3   8  -9    6.77    0.37
  -3   8  -9    6.57    0.35
  -3   8  -9    6.95    0.39
  -4   8  -9    0.14    0.16
  -4   8  -9    0.06    0.14
  -4   8  -9    0.24    0.19
  -5   8  -9    3.42    0.26
  -5   8  -9    3.41    0.31
  -5   8  -9    3.71    0.32
  -6   8  -9   10.36    0.51
  -6   8  -9   11.30    0.52
  -7   8  -9    0.19    0.17
  -7   8  -9    0.64    0.17
   6   7  -9   -0.32    0.26
   6   7  -9   -0.44    0.27
   5   7  -9    0.90    0.28
   5   7  -9    1.09    0.28
  -5  -7   9    0.72    0.26
   4   7  -9   -0.29    0.23
   4   7  -9   -0.47    0.22
  -4  -7   9   -0.05    0.24
   3   7  -9    1.57    0.27
  -3  -7   9    1.52    0.26
   2   7  -9    1.32    0.26
  -2  -7   9    1.20    0.24
   1   7  -9   16.68    0.74
  -1  -7   9   16.50    0.75
   0   7  -9   36.87    1.40
   0   7  -9   35.99    1.42
   0   7  -9   34.14    1.39
  -1   7  -9    0.72    0.18
  -1   7  -9    0.72    0.21
  -1   7  -9    1.11    0.20
  -2   7  -9    0.56    0.17
  -2   7  -9    1.20    0.22
  -2   7  -9    0.93    0.19
  -2   7  -9    1.18    0.18
  -2   7  -9    0.91    0.19
  -3   7  -9   11.62    0.53
  -3   7  -9   12.81    0.55
  -3   7  -9   12.67    0.54
  -3   7  -9   11.94    0.57
  -3   7  -9   12.55    0.54
  -4   7  -9   10.95    0.53
  -4   7  -9   11.70    0.53
  -4   7  -9   11.44    0.49
  -5   7  -9    1.17    0.20
  -5   7  -9    1.53    0.20
  -5   7  -9    1.45    0.18
  -6   7  -9    3.60    0.28
  -6   7  -9    3.22    0.28
   7   6  -9    0.74    0.32
   7   6  -9    0.58    0.29
   6   6  -9    0.67    0.27
   6   6  -9    1.10    0.29
  -6  -6   9    0.91    0.27
   5   6  -9    1.94    0.30
   5   6  -9    2.92    0.32
  -5  -6   9    2.24    0.29
   4   6  -9    6.92    0.46
  -4  -6   9    7.69    0.48
   3   6  -9    1.11    0.24
  -3  -6   9    0.88    0.24
   2   6  -9   -0.56    0.20
   1   6  -9    1.52    0.22
   1   6  -9    0.98    0.22
   0   6  -9   72.53    2.72
   0   6  -9   70.74    2.65
   0   6  -9   71.28    2.69
  -1   6  -9   25.62    0.95
  -1   6  -9   24.74    0.99
  -1   6  -9   23.79    0.99
  -1   6  -9   24.67    1.00
  -2   6  -9    1.96    0.20
  -2   6  -9    2.26    0.22
  -2   6  -9    2.25    0.24
  -2   6  -9    2.27    0.22
  -2   6  -9    2.28    0.23
  -3   6  -9    5.39    0.32
  -3   6  -9    4.46    0.34
  -3   6  -9    5.41    0.32
  -3   6  -9    5.35    0.35
  -3   6  -9    5.13    0.30
  -4   6  -9    0.61    0.19
  -4   6  -9    0.44    0.18
  -4   6  -9    0.82    0.17
  -5   6  -9    2.80    0.23
  -5   6  -9    2.55    0.23
  -5   6  -9    3.14    0.27
  -6   6  -9    3.52    0.29
  -6   6  -9    3.75    0.27
  -7   6  -9    0.90    0.19
   7   5  -9    1.90    0.35
   7   5  -9    1.90    0.31
   6   5  -9    0.32    0.24
  -6  -5   9    0.16    0.24
   5   5  -9    0.02    0.23
  -5  -5   9   -0.24    0.23
   4   5  -9    2.74    0.29
   3   5  -9    4.14    0.36
   2   5  -9    5.59    0.39
   1   5  -9    0.46    0.21
   1   5  -9    0.87    0.21
   1   5  -9    0.83    0.20
   0   5  -9    1.94    0.21
   0   5  -9    1.74    0.22
   0   5  -9    1.59    0.23
   0   5  -9    1.97    0.22
  -1   5  -9   27.80    1.12
  -1   5  -9   29.31    1.14
  -1   5  -9   28.78    1.13
  -1   5  -9   28.77    1.08
  -2   5  -9   18.32    0.75
  -2   5  -9   16.97    0.72
  -2   5  -9   18.91    0.76
  -2   5  -9   17.73    0.74
  -2   5  -9   17.73    0.76
  -3   5  -9    0.02    0.15
  -3   5  -9    0.04    0.16
  -3   5  -9    0.04    0.17
  -3   5  -9    0.04    0.13
  -3   5  -9    0.05    0.18
  -4   5  -9    5.41    0.31
  -4   5  -9    5.17    0.34
  -4   5  -9    4.81    0.34
  -5   5  -9    1.08    0.21
  -5   5  -9    1.40    0.18
  -5   5  -9    1.24    0.19
  -6   5  -9    5.48    0.34
  -6   5  -9    4.87    0.32
  -7   5  -9    1.32    0.20
  -7   5  -9    0.97    0.18
   7   4  -9    4.63    0.42
  -7  -4   9    5.21    0.44
   6   4  -9    0.95    0.27
  -6  -4   9    1.09    0.26
   5   4  -9    2.54    0.29
   4   4  -9    3.61    0.31
   3   4  -9    2.58    0.27
   2   4  -9    0.69    0.21
   1   4  -9    3.28    0.28
   1   4  -9    3.54    0.30
   1   4  -9    3.28    0.27
   0   4  -9    3.64    0.30
   0   4  -9    3.06    0.26
   0   4  -9    3.14    0.27
   0   4  -9    3.25    0.25
  -1   4  -9    0.50    0.17
  -1   4  -9    0.43    0.16
  -1   4  -9    0.13    0.19
  -1   4  -9   -0.01    0.17
  -1   4  -9    0.08    0.18
  -2   4  -9    7.90    0.45
  -2   4  -9    8.12    0.43
  -2   4  -9    8.18    0.45
  -2   4  -9    8.19    0.42
  -2   4  -9    8.73    0.42
   2  -4   9    8.86    0.44
  -3   4  -9   60.47    2.26
  -3   4  -9   61.60    2.14
  -3   4  -9   60.16    2.24
  -3   4  -9   64.16    2.28
  -3   4  -9   60.64    2.24
   3  -4   9   55.63    2.48
  -4   4  -9    0.18    0.19
  -4   4  -9    0.39    0.17
  -4   4  -9    0.33    0.16
  -4   4  -9    0.05    0.11
   4  -4   9    0.54    0.18
  -5   4  -9    6.04    0.36
  -5   4  -9    5.38    0.36
  -5   4  -9    6.04    0.32
  -6   4  -9    1.86    0.23
  -6   4  -9    1.96    0.21
  -7   4  -9    2.07    0.21
  -7   4  -9    1.95    0.23
  -8   4  -9    1.27    0.21
   7   3  -9    5.19    0.43
  -7  -3   9    4.71    0.43
   6   3  -9    0.23    0.23
   5   3  -9   -0.21    0.21
   4   3  -9   -0.05    0.20
   3   3  -9    0.56    0.21
   2   3  -9    7.17    0.44
   1   3  -9    9.19    0.48
   1   3  -9    8.48    0.47
   1   3  -9    9.34    0.47
   0   3  -9   -0.16    0.17
   0   3  -9   -0.05    0.16
   0   3  -9   -0.02    0.16
   0   3  -9    0.01    0.18
  -1   3  -9    0.15    0.18
  -1   3  -9   -0.05    0.15
  -1   3  -9    0.03    0.16
  -1   3  -9   -0.29    0.16
   1  -3   9    0.06    0.17
  -2   3  -9    0.03    0.17
  -2   3  -9   -0.08    0.15
  -2   3  -9   -0.02    0.17
  -2   3  -9   -0.08    0.17
  -2   3  -9    0.02    0.20
   2  -3   9    0.38    0.18
  -3   3  -9    8.20    0.47
  -3   3  -9    8.88    0.44
  -3   3  -9    9.11    0.44
  -3   3  -9    9.03    0.48
  -3   3  -9    8.65    0.43
   3  -3   9    9.27    0.48
  -4   3  -9   12.49    0.58
  -4   3  -9   12.93    0.53
  -4   3  -9   11.42    0.51
  -4   3  -9   12.35    0.57
  -4   3  -9   12.70    0.54
   4  -3   9   11.65    0.61
  -5   3  -9    3.35    0.31
  -5   3  -9    3.33    0.31
   5  -3   9    3.19    0.34
  -6   3  -9    1.03    0.22
  -6   3  -9    0.59    0.19
  -7   3  -9    1.22    0.22
  -8   3  -9    0.30    0.21
  -8  -2   9   -0.09    0.24
   7   2  -9    7.73    0.50
   6   2  -9    1.36    0.26
   5   2  -9    3.40    0.31
   4   2  -9   -0.23    0.20
  -4  -2   9    0.27    0.13
   3   2  -9    0.71    0.21
   2   2  -9    0.85    0.21
   1   2  -9   21.64    0.93
   1   2  -9   22.97    0.95
   1   2  -9   23.51    0.95
   0   2  -9   14.40    0.66
   0   2  -9   14.87    0.66
   0   2  -9   14.76    0.67
   0   2  -9   14.11    0.62
   0  -2   9   14.92    0.70
  -1   2  -9    0.15    0.17
  -1   2  -9    0.29    0.16
  -1   2  -9    0.02    0.17
  -1   2  -9    0.06    0.18
   1  -2   9    0.41    0.21
  -2   2  -9   -0.17    0.16
  -2   2  -9    0.04    0.18
  -2   2  -9    0.15    0.15
  -2   2  -9    0.05    0.16
   2  -2   9   -0.17    0.19
  -3   2  -9    0.16    0.16
  -3   2  -9    0.02    0.19
  -3   2  -9    0.08    0.17
  -3   2  -9    0.25    0.15
   3  -2   9    0.16    0.21
  -4   2  -9    0.89    0.17
  -4   2  -9    0.60    0.20
  -4   2  -9    0.77    0.14
   4  -2   9    0.74    0.23
  -5   2  -9   -0.17    0.20
   5  -2   9    0.34    0.23
  -6   2  -9    1.11    0.23
   6  -2   9    1.00    0.28
  -7   2  -9    0.34    0.22
  -8  -1   9    8.44    0.63
   7   1  -9    4.25    0.39
   6   1  -9    4.53    0.40
   5   1  -9   10.12    0.55
   4   1  -9    6.38    0.42
  -4  -1   9    5.95    0.32
   3   1  -9    8.83    0.49
   2   1  -9    3.47    0.33
   1   1  -9    1.21    0.21
   1   1  -9    1.31    0.21
   1   1  -9    1.56    0.21
  -1  -1   9    1.67    0.26
   0   1  -9    3.75    0.33
   0   1  -9    4.45    0.32
   0   1  -9    4.20    0.35
   0  -1   9    4.64    0.38
  -1   1  -9   12.30    0.56
  -1   1  -9   11.57    0.57
  -1   1  -9   12.01    0.56
   1  -1   9   11.54    0.61
  -2   1  -9    1.04    0.20
  -2   1  -9    0.79    0.21
  -2   1  -9    0.86    0.19
  -2   1  -9    1.33    0.19
   2  -1   9    0.93    0.24
  -3   1  -9    2.61    0.26
  -3   1  -9    2.43    0.22
  -3   1  -9    2.41    0.24
  -3   1  -9    2.36    0.22
   3  -1   9    2.56    0.29
  -4   1  -9    0.43    0.17
  -4   1  -9    0.28    0.15
  -4   1  -9    0.14    0.20
   4  -1   9    0.49    0.24
  -5   1  -9    1.85    0.26
   5  -1   9    2.44    0.31
  -6   1  -9    0.98    0.24
   6  -1   9    1.05    0.30
  -7   1  -9    0.05    0.24
   7  -1   9   -0.23    0.30
  -8   0   9    7.79    0.63
   7   0  -9    7.92    0.50
   6   0  -9   11.68    0.61
   5   0  -9    2.43    0.27
   4   0  -9    6.02    0.42
  -4   0   9    6.92    0.35
  -4   0   9    7.15    0.34
   3   0  -9    0.93    0.22
   2   0  -9    0.29    0.20
   1   0  -9    2.57    0.26
  -1   0   9    2.50    0.30
   0   0  -9    0.18    0.17
   0   0  -9    0.50    0.20
   0   0  -9    0.11    0.19
   0   0   9    0.04    0.24
  -1   0  -9    8.44    0.45
  -1   0  -9    8.43    0.47
  -1   0  -9    7.44    0.45
   1   0   9    8.06    0.49
  -2   0  -9    9.09    0.47
  -2   0  -9    9.30    0.49
  -2   0  -9    9.62    0.48
   2   0   9    8.98    0.54
  -3   0  -9    1.17    0.19
  -3   0  -9    0.73    0.22
  -3   0  -9    0.89    0.20
   3   0   9    0.63    0.26
  -4   0  -9    0.18    0.16
  -4   0  -9    0.32    0.22
  -4   0  -9    0.19    0.17
   4   0   9    0.11    0.25
  -5   0  -9    1.77    0.18
  -5   0  -9    2.21    0.28
   5   0   9    2.51    0.33
  -6   0  -9    0.17    0.25
   6   0   9    0.05    0.28
  -8   1   9   -0.08    0.21
  -8   1   9   -0.61    0.32
   7  -1  -9   -0.09    0.23
   6  -1  -9   12.36    0.62
   5  -1  -9    6.66    0.44
   4  -1  -9    5.64    0.42
  -4   1   9    5.41    0.31
   3  -1  -9    0.36    0.21
  -3   1   9    0.13    0.16
   2  -1  -9    1.55    0.25
  -2   1   9    1.66    0.30
   1  -1  -9    1.52    0.24
  -1   1   9    1.91    0.30
   0  -1  -9    8.51    0.49
   0   1   9    9.09    0.55
  -1  -1  -9    2.35    0.25
  -1  -1  -9    2.53    0.27
   1   1   9    2.71    0.31
  -2  -1  -9   12.48    0.63
  -2  -1  -9   13.54    0.62
  -2  -1  -9   13.98    0.64
   2   1   9   12.92    0.69
  -3  -1  -9    2.42    0.26
  -3  -1  -9    2.55    0.28
  -3  -1  -9    2.55    0.24
   3   1   9    2.49    0.33
  -4  -1  -9   -0.05    0.16
  -4  -1  -9   -0.14    0.18
  -4  -1  -9   -0.22    0.22
   4   1   9    0.06    0.26
  -5  -1  -9    1.91    0.29
  -5  -1  -9    1.79    0.20
   5   1   9    1.81    0.34
  -6  -1  -9   -0.24    0.26
   6   1   9    0.26    0.31
  -8   2   9    0.40    0.23
  -8   2   9    0.53    0.38
   6  -2  -9    1.84    0.27
   5  -2  -9   10.48    0.56
   4  -2  -9    8.32    0.49
   3  -2  -9   20.62    0.94
  -3   2   9   22.88    0.88
   2  -2  -9   -0.15    0.21
  -2   2   9    0.45    0.27
  -2   2   9    0.00    0.16
   1  -2  -9    0.18    0.21
  -1   2   9    0.05    0.26
   0  -2  -9    6.45    0.45
   0   2   9    7.42    0.51
  -1  -2  -9    1.61    0.25
   1   2   9    1.17    0.29
  -2  -2  -9    4.04    0.37
   2   2   9    4.09    0.41
  -3  -2  -9    1.34    0.25
  -3  -2  -9    1.55    0.23
   3   2   9    1.76    0.33
  -4  -2  -9    2.73    0.28
  -4  -2  -9    2.49    0.25
   4   2   9    2.52    0.36
   5   2   9    1.01    0.33
   6  -3  -9    0.92    0.25
   5  -3  -9    5.29    0.42
   4  -3  -9    4.33    0.41
   3  -3  -9   11.77    0.62
  -3   3   9   12.11    0.54
   2  -3  -9    6.88    0.46
  -2   3   9    6.94    0.41
  -2   3   9    6.81    0.50
   1  -3  -9    0.13    0.22
  -1   3   9   -0.40    0.26
   0  -3  -9    3.45    0.33
   0   3   9    3.89    0.39
  -1  -3  -9    0.16    0.23
   1   3   9    0.37    0.28
  -2  -3  -9   -0.12    0.22
   2   3   9    0.00    0.27
  -3  -3  -9    2.15    0.28
   3   3   9    2.23    0.35
   4   3   9    0.32    0.32
  -7   4   9   -0.38    0.38
   6  -4  -9    0.42    0.25
   5  -4  -9    0.30    0.25
   4  -4  -9    1.36    0.28
   3  -4  -9    4.41    0.40
  -3   4   9    4.34    0.46
   2  -4  -9    3.02    0.33
  -2   4   9    3.01    0.37
   1  -4  -9    3.04    0.32
  -1   4   9    3.60    0.39
   0  -4  -9    3.54    0.34
   0   4   9    4.14    0.42
  -1  -4  -9    0.48    0.24
   1   4   9    0.48    0.29
   2   4   9    0.30    0.30
   6  -5  -9    0.05    0.26
   5  -5  -9    0.44    0.26
   4  -5  -9   -0.05    0.25
   3  -5  -9    2.14    0.31
  -3   5   9    1.96    0.37
   2  -5  -9    3.13    0.34
  -2   5   9    4.00    0.41
   1  -5  -9    3.23    0.34
  -1   5   9    2.67    0.39
   0   5   9    4.87    0.50
  -3  12 -10    2.15    0.26
  -3  12 -10    2.55    0.30
  -1 -11  10    2.17    0.31
   0 -11  10    0.29    0.25
  -1  11 -10    0.09    0.23
   1 -11  10    0.53    0.24
  -2  11 -10    0.36    0.23
  -3  11 -10    4.52    0.36
  -3  11 -10    4.25    0.32
  -3  11 -10    3.50    0.31
  -4  11 -10   -0.31    0.24
  -4  11 -10   -0.04    0.15
  -4  11 -10   -0.02    0.15
  -5  11 -10   -0.04    0.24
  -6  11 -10    2.06    0.22
  -2 -10  10    0.90    0.27
   1  10 -10    1.36    0.27
  -1 -10  10    1.35    0.26
   0  10 -10    4.80    0.40
   0 -10  10    4.88    0.40
  -1  10 -10   -0.01    0.23
   1 -10  10    0.22    0.22
  -2  10 -10   -0.03    0.18
  -2  10 -10   -0.05    0.21
  -3  10 -10    0.80    0.25
  -3  10 -10    0.80    0.21
  -3  10 -10    0.95    0.19
  -3  10 -10    1.05    0.19
  -4  10 -10    0.09    0.14
  -4  10 -10    0.02    0.22
  -4  10 -10   -0.12    0.13
  -5  10 -10    2.95    0.31
  -6  10 -10    2.39    0.29
  -6  10 -10    2.50    0.23
   3   9 -10   -0.03    0.25
  -3  -9  10   -0.07    0.24
   2   9 -10    2.38    0.31
  -2  -9  10    2.54    0.31
   1   9 -10   13.35    0.66
  -1  -9  10   14.00    0.68
   0   9 -10    7.60    0.46
   0  -9  10    8.26    0.49
  -1   9 -10    2.58    0.27
  -1   9 -10    2.25    0.27
   1  -9  10    2.33    0.27
  -2   9 -10   -0.21    0.20
  -2   9 -10    0.09    0.22
  -2   9 -10   -0.03    0.17
  -2   9 -10   -0.06    0.17
   2  -9  10    0.09    0.20
  -3   9 -10   -0.55    0.22
  -3   9 -10   -0.06    0.19
  -3   9 -10   -0.21    0.15
  -3   9 -10   -0.29    0.15
  -4   9 -10    1.18    0.16
  -4   9 -10    1.39    0.25
  -5   9 -10    0.74    0.18
  -5   9 -10    1.17    0.24
  -6   9 -10    2.34    0.25
  -7   9 -10    0.05    0.19
   4   8 -10    1.37    0.29
  -4  -8  10    2.26    0.32
   3   8 -10    6.80    0.45
  -3  -8  10    6.78    0.47
   2   8 -10    1.94    0.28
  -2  -8  10    2.10    0.29
   1   8 -10    4.10    0.35
  -1  -8  10    3.25    0.32
   0   8 -10   21.76    0.93
   0  -8  10   22.41    0.95
  -1   8 -10    6.75    0.41
  -1   8 -10    6.32    0.44
  -1   8 -10    6.66    0.41
   1  -8  10    6.11    0.45
  -2   8 -10    2.16    0.24
  -2   8 -10    2.27    0.22
  -2   8 -10    2.33    0.23
  -2   8 -10    2.69    0.28
  -3   8 -10    0.34    0.15
  -3   8 -10    0.48    0.15
  -3   8 -10    0.10    0.21
  -3   8 -10    0.55    0.18
  -4   8 -10    3.03    0.22
  -4   8 -10    3.25    0.28
  -4   8 -10    3.31    0.29
  -5   8 -10    2.18    0.24
  -5   8 -10    2.22    0.21
  -6   8 -10    0.65    0.20
  -7   8 -10    0.50    0.20
  -7   8 -10    0.53    0.20
   5   7 -10   16.58    0.80
   4   7 -10   14.02    0.71
  -4  -7  10   15.01    0.73
   3   7 -10    1.97    0.28
  -3  -7  10    1.17    0.26
   2   7 -10   61.56    2.35
  -2  -7  10   60.75    2.36
   1   7 -10    1.93    0.26
   0   7 -10    0.78    0.22
   0   7 -10    0.92    0.21
  -1   7 -10    7.40    0.45
  -1   7 -10    7.29    0.42
  -1   7 -10    7.10    0.41
  -2   7 -10   14.35    0.62
  -2   7 -10   13.04    0.63
  -2   7 -10   13.70    0.61
  -3   7 -10    0.67    0.18
  -3   7 -10    1.20    0.17
  -3   7 -10    0.89    0.22
  -3   7 -10    0.57    0.15
  -3   7 -10    0.57    0.19
  -4   7 -10    0.32    0.17
  -4   7 -10    0.22    0.19
  -5   7 -10   -0.12    0.16
  -5   7 -10    0.10    0.19
  -6   7 -10    0.35    0.19
  -6   7 -10    0.80    0.19
  -7   7 -10    6.74    0.40
  -7   7 -10    6.75    0.38
   6   6 -10    0.06    0.28
   6   6 -10   -0.50    0.25
   5   6 -10    3.74    0.36
  -5  -6  10    3.85    0.35
   4   6 -10    3.91    0.34
  -4  -6  10    3.58    0.35
   3   6 -10   16.59    0.76
   2   6 -10    0.91    0.24
   1   6 -10   22.83    0.95
   0   6 -10    6.59    0.40
   0   6 -10    6.56    0.40
   0   6 -10    6.57    0.42
  -1   6 -10    7.88    0.43
  -1   6 -10    7.94    0.45
  -1   6 -10    7.70    0.43
  -2   6 -10    9.80    0.51
  -2   6 -10    9.78    0.48
  -2   6 -10   10.06    0.48
  -2   6 -10    9.65    0.48
  -3   6 -10   11.21    0.51
  -3   6 -10   10.85    0.50
  -3   6 -10   10.17    0.54
  -3   6 -10   11.02    0.50
  -4   6 -10   -0.02    0.17
  -4   6 -10   -0.02    0.18
  -5   6 -10    0.92    0.18
  -5   6 -10    1.30    0.21
  -6   6 -10   -0.08    0.18
  -6   6 -10    0.02    0.20
  -7   6 -10    3.55    0.32
  -7   6 -10    3.37    0.29
   7   5 -10    2.40    0.34
   6   5 -10   -0.10    0.25
  -6  -5  10    0.00    0.24
   5   5 -10    2.10    0.30
  -5  -5  10    2.03    0.30
   4   5 -10    5.55    0.43
   3   5 -10    2.25    0.28
   2   5 -10   18.39    0.80
   1   5 -10    0.20    0.19
   0   5 -10    8.64    0.47
   0   5 -10    9.56    0.49
   0   5 -10    8.57    0.49
  -1   5 -10   49.13    1.88
  -1   5 -10   47.68    1.84
  -1   5 -10   48.77    1.85
  -2   5 -10   13.29    0.59
  -2   5 -10   12.75    0.58
  -2   5 -10   12.90    0.61
  -2   5 -10   13.19    0.58
  -3   5 -10   21.85    0.82
  -3   5 -10   20.48    0.83
  -3   5 -10   20.74    0.84
  -3   5 -10   19.41    0.86
  -4   5 -10    0.41    0.12
  -4   5 -10    0.48    0.20
  -4   5 -10    0.46    0.17
  -4   5 -10    0.41    0.15
  -5   5 -10   -0.01    0.16
  -5   5 -10    0.24    0.21
  -6   5 -10    1.44    0.23
  -7   5 -10    0.05    0.20
  -7   5 -10    0.29    0.18
   7   4 -10    1.43    0.30
   6   4 -10    9.21    0.55
  -6  -4  10    9.06    0.56
   5   4 -10    1.82    0.28
   4   4 -10    4.31    0.38
   3   4 -10   11.04    0.57
   2   4 -10    8.38    0.47
   1   4 -10   -0.17    0.16
   1   4 -10    0.11    0.19
   0   4 -10    1.43    0.22
   0   4 -10    1.12    0.21
   0   4 -10    0.91    0.23
  -1   4 -10   11.51    0.57
  -1   4 -10   11.51    0.55
  -1   4 -10   11.62    0.55
  -2   4 -10    6.07    0.37
  -2   4 -10    6.56    0.39
  -2   4 -10    6.50    0.42
  -2   4 -10    6.90    0.39
  -3   4 -10   15.43    0.67
  -3   4 -10   15.60    0.67
  -3   4 -10   15.11    0.72
  -3   4 -10   15.35    0.65
  -4   4 -10   22.83    0.98
  -4   4 -10   26.53    0.97
  -4   4 -10   25.79    0.98
  -4   4 -10   25.93    1.03
  -5   4 -10   -0.03    0.17
  -5   4 -10    0.41    0.20
  -6   4 -10    0.84    0.22
  -7   4 -10    1.83    0.25
   7   3 -10    3.84    0.37
  -7  -3  10    4.25    0.38
   6   3 -10    7.97    0.51
   5   3 -10   10.90    0.58
   4   3 -10   -0.13    0.21
   3   3 -10    1.79    0.25
   2   3 -10   17.97    0.79
   1   3 -10    2.89    0.27
   1   3 -10    2.96    0.27
   0   3 -10    3.21    0.30
   0   3 -10    2.85    0.28
   0   3 -10    3.21    0.31
  -1   3 -10    0.32    0.19
  -1   3 -10    0.21    0.22
  -1   3 -10   -0.02    0.17
   1  -3  10    0.68    0.21
  -2   3 -10    1.97    0.23
  -2   3 -10    2.31    0.23
  -2   3 -10    1.79    0.25
   2  -3  10    2.55    0.26
  -3   3 -10    0.13    0.17
  -3   3 -10   -0.01    0.15
  -3   3 -10    0.10    0.20
  -3   3 -10   -0.05    0.17
   3  -3  10    0.23    0.20
  -4   3 -10   24.34    0.93
  -4   3 -10   23.70    0.97
  -4   3 -10   24.19    0.92
  -4   3 -10   21.72    0.93
   4  -3  10   23.47    1.06
  -5   3 -10   15.71    0.71
  -6   3 -10    5.52    0.40
  -7   3 -10    1.25    0.24
   7   2 -10    6.03    0.47
   6   2 -10   12.28    0.63
   5   2 -10    2.65    0.31
   4   2 -10    4.47    0.38
   3   2 -10    0.16    0.21
   2   2 -10    0.49    0.22
   1   2 -10   11.63    0.57
   0   2 -10    9.93    0.51
   0   2 -10    9.21    0.53
   0   2 -10    9.50    0.50
   0  -2  10    9.89    0.54
  -1   2 -10    1.07    0.22
  -1   2 -10    0.92    0.19
  -1   2 -10    0.88    0.21
   1  -2  10    0.74    0.24
  -2   2 -10    4.04    0.36
  -2   2 -10    4.80    0.33
  -2   2 -10    4.60    0.33
   2  -2  10    4.17    0.36
  -3   2 -10    8.28    0.43
  -3   2 -10    8.81    0.45
  -3   2 -10    8.28    0.48
   3  -2  10    8.69    0.51
  -4   2 -10    5.45    0.34
  -4   2 -10    5.81    0.40
  -4   2 -10    4.67    0.30
   4  -2  10    6.13    0.43
  -5   2 -10    5.12    0.39
   5  -2  10    4.59    0.41
  -6   2 -10    9.74    0.53
  -8  -1  10   -0.21    0.34
   7   1 -10    6.38    0.48
   6   1 -10    1.16    0.28
   5   1 -10    2.82    0.31
   4   1 -10   12.13    0.61
   3   1 -10    6.37    0.42
   2   1 -10    3.63    0.31
   1   1 -10    0.00    0.20
  -1  -1  10   -0.21    0.23
   0   1 -10    9.57    0.51
   0   1 -10    9.38    0.51
   0  -1  10   10.79    0.57
  -1   1 -10    5.09    0.39
  -1   1 -10    5.40    0.37
  -1   1 -10    4.98    0.36
   1  -1  10    5.19    0.42
  -2   1 -10    0.27    0.18
  -2   1 -10    0.32    0.21
  -2   1 -10    0.20    0.19
   2  -1  10    0.43    0.24
  -3   1 -10    4.84    0.33
  -3   1 -10    5.32    0.38
  -3   1 -10    5.12    0.34
   3  -1  10    5.12    0.42
  -4   1 -10    5.22    0.33
  -4   1 -10    5.96    0.35
  -4   1 -10    5.83    0.41
   4  -1  10    5.97    0.45
  -5   1 -10    3.41    0.33
   5  -1  10    4.48    0.42
  -6   1 -10    0.57    0.25
   6  -1  10    1.07    0.31
  -8   0  10    2.92    0.46
   7   0 -10    0.19    0.26
   6   0 -10    3.88    0.34
   5   0 -10    0.10    0.22
   4   0 -10   21.55    0.93
   3   0 -10   11.72    0.60
   2   0 -10    5.91    0.42
   1   0 -10    4.95    0.38
  -1   0  10    4.87    0.43
   0   0 -10    0.29    0.21
   0   0  10    0.22    0.25
  -1   0 -10    0.49    0.19
  -1   0 -10    0.32    0.21
   1   0  10    0.33    0.26
  -2   0 -10    0.50    0.19
  -2   0 -10    0.44    0.20
   2   0  10    0.61    0.26
  -3   0 -10   -0.07    0.17
  -3   0 -10   -0.15    0.19
  -3   0 -10   -0.27    0.21
   3   0  10   -0.16    0.25
  -4   0 -10    0.58    0.18
  -4   0 -10    0.58    0.19
  -4   0 -10    0.71    0.25
   4   0  10    0.51    0.28
  -5   0 -10    0.54    0.26
   5   0  10    0.66    0.30
   7  -1 -10    0.11    0.25
   6  -1 -10    0.00    0.23
   5  -1 -10    1.74    0.26
   4  -1 -10    2.84    0.30
   3  -1 -10   12.95    0.65
  -3   1  10   13.39    0.59
   2  -1 -10    0.60    0.23
  -2   1  10    0.12    0.26
   1  -1 -10    7.17    0.45
  -1   1  10    7.04    0.50
   0  -1 -10    2.59    0.28
   0   1  10    2.20    0.33
  -1  -1 -10    1.22    0.24
   1   1  10    1.25    0.29
  -2  -1 -10   -0.29    0.21
   2   1  10    0.30    0.27
  -3  -1 -10   -0.09    0.20
  -3  -1 -10   -0.10    0.18
   3   1  10    0.25    0.28
  -4  -1 -10   -0.16    0.19
  -4  -1 -10   -0.12    0.18
   4   1  10   -0.18    0.28
   5   1  10    0.02    0.31
   6  -2 -10    1.16    0.26
   5  -2 -10    2.25    0.30
   4  -2 -10    0.48    0.24
   3  -2 -10    6.11    0.44
   2  -2 -10    2.77    0.30
  -2   2  10    2.80    0.36
   1  -2 -10    0.21    0.24
  -1   2  10    0.28    0.28
   0  -2 -10    0.85    0.26
   0   2  10    0.75    0.30
  -1  -2 -10    6.19    0.45
   1   2  10    6.08    0.48
  -2  -2 -10    4.14    0.39
   2   2  10    3.41    0.39
  -3  -2 -10   -0.23    0.22
   3   2  10   -0.15    0.28
  -4  -2 -10    0.32    0.20
   4   2  10    0.10    0.31
   6  -3 -10   -0.04    0.26
   5  -3 -10    1.11    0.27
   4  -3 -10    2.15    0.30
   3  -3 -10   -0.06    0.24
   2  -3 -10   18.12    0.86
  -2   3  10   18.91    0.95
   1  -3 -10   12.42    0.68
  -1   3  10   14.67    0.78
   0  -3 -10    0.57    0.25
   0   3  10    0.33    0.30
  -1  -3 -10    1.29    0.28
   1   3  10    1.71    0.33
   2   3  10    6.11    0.53
   6  -4 -10    1.22    0.30
   5  -4 -10    0.51    0.27
   4  -4 -10    0.38    0.27
   3  -4 -10    0.04    0.26
   2  -4 -10    3.71    0.36
  -2   4  10    3.54    0.42
  -1   4  10    6.66    0.56
   0   4  10   10.46    0.69
   0 -11  11    0.88    0.26
  -2  11 -11    8.83    0.51
  -3  11 -11    3.51    0.31
  -3  11 -11    3.58    0.31
  -3  11 -11    3.10    0.28
  -4  11 -11    5.31    0.45
  -1 -10  11    0.52    0.26
   0  10 -11    6.85    0.46
   0 -10  11    7.78    0.49
  -1  10 -11    1.37    0.26
   1 -10  11    0.90    0.25
  -2  10 -11    1.02    0.24
  -2  10 -11    1.12    0.22
  -3  10 -11    4.63    0.41
  -3  10 -11    4.17    0.31
  -3  10 -11    4.33    0.35
  -3  10 -11    3.54    0.30
  -4  10 -11    6.08    0.45
  -4  10 -11    6.43    0.35
  -5  10 -11    8.53    0.50
   2   9 -11   -0.55    0.24
  -2  -9  11   -0.23    0.24
   1   9 -11   -0.08    0.23
  -1  -9  11    0.27    0.24
   0   9 -11    2.91    0.30
   0  -9  11    2.52    0.30
  -1   9 -11    8.58    0.47
   1  -9  11    7.33    0.49
  -2   9 -11   -0.14    0.17
  -2   9 -11   -0.03    0.20
  -2   9 -11    0.01    0.17
  -3   9 -11    0.92    0.22
  -3   9 -11    1.64    0.20
  -3   9 -11    1.15    0.19
  -3   9 -11    1.85    0.28
  -4   9 -11    3.43    0.31
  -5   9 -11   20.47    0.88
  -5   9 -11   20.91    0.82
  -6   9 -11    3.15    0.29
   3   8 -11    1.41    0.28
  -3  -8  11    1.27    0.28
   2   8 -11    0.97    0.27
  -2  -8  11    0.72    0.26
   1   8 -11   -0.34    0.23
  -1  -8  11   -0.04    0.23
   0   8 -11    0.43    0.23
  -1   8 -11    0.05    0.19
  -1   8 -11   -0.10    0.20
  -2   8 -11    6.91    0.39
  -2   8 -11    6.81    0.40
  -2   8 -11    5.97    0.37
  -2   8 -11    6.50    0.44
  -3   8 -11    6.32    0.37
  -3   8 -11    7.28    0.39
  -3   8 -11    7.13    0.45
  -3   8 -11    6.73    0.40
  -4   8 -11    0.10    0.12
  -4   8 -11    0.11    0.21
  -5   8 -11    0.53    0.22
  -5   8 -11    0.33    0.19
   4   7 -11    1.84    0.31
  -4  -7  11    2.00    0.30
   3   7 -11    2.13    0.31
  -3  -7  11    2.39    0.32
   2   7 -11    0.22    0.23
   1   7 -11    0.83    0.24
   0   7 -11   -0.14    0.20
  -1   7 -11    2.17    0.25
  -1   7 -11    2.52    0.26
  -2   7 -11    2.34    0.27
  -2   7 -11    2.10    0.24
  -2   7 -11    2.16    0.23
  -3   7 -11   11.81    0.55
  -3   7 -11   10.73    0.53
  -3   7 -11   12.77    0.60
  -3   7 -11   12.50    0.55
  -4   7 -11    4.73    0.33
  -4   7 -11    4.63    0.36
  -5   7 -11    0.17    0.18
  -5   7 -11    0.33    0.21
  -6   7 -11    0.17    0.23
  -7   7 -11    3.56    0.34
   5   6 -11    0.24    0.28
   4   6 -11   16.91    0.80
   3   6 -11   11.79    0.61
   2   6 -11    4.00    0.39
   1   6 -11    2.77    0.28
   0   6 -11    0.58    0.21
  -1   6 -11    3.11    0.30
  -1   6 -11    2.78    0.26
  -1   6 -11    3.10    0.30
  -2   6 -11    3.40    0.31
  -2   6 -11    4.28    0.31
  -2   6 -11    3.61    0.32
  -3   6 -11    4.21    0.37
  -3   6 -11    4.70    0.30
  -3   6 -11    4.67    0.32
  -4   6 -11   -0.17    0.18
  -4   6 -11    0.15    0.21
  -4   6 -11    0.04    0.13
  -5   6 -11    0.80    0.20
  -5   6 -11    1.44    0.25
  -6   6 -11    0.13    0.22
  -7   6 -11    1.13    0.25
   6   5 -11    1.39    0.31
   5   5 -11    2.70    0.33
   4   5 -11   13.92    0.69
   3   5 -11    4.57    0.40
   2   5 -11    5.81    0.42
   1   5 -11    0.10    0.21
   0   5 -11    1.37    0.23
   0   5 -11    1.26    0.22
  -1   5 -11    0.55    0.19
  -1   5 -11    0.64    0.23
  -1   5 -11    1.00    0.21
  -2   5 -11    1.34    0.21
  -2   5 -11    1.16    0.20
  -2   5 -11    1.27    0.24
  -3   5 -11    2.89    0.27
  -3   5 -11    2.48    0.27
  -3   5 -11    2.38    0.23
  -4   5 -11    2.17    0.23
  -4   5 -11    1.64    0.17
  -4   5 -11    1.61    0.26
  -5   5 -11    0.57    0.22
  -5   5 -11    0.39    0.18
  -6   5 -11    5.84    0.41
   6   4 -11    0.76    0.28
   5   4 -11    0.64    0.26
   4   4 -11    4.72    0.41
   3   4 -11    6.66    0.45
   2   4 -11    7.10    0.45
   1   4 -11    5.84    0.39
   0   4 -11    3.86    0.33
   0   4 -11    3.33    0.29
  -1   4 -11    2.72    0.29
  -1   4 -11    3.25    0.31
  -1   4 -11    3.16    0.30
  -2   4 -11    2.04    0.22
  -2   4 -11    1.81    0.23
  -2   4 -11    2.08    0.27
  -3   4 -11    0.10    0.18
  -3   4 -11    0.17    0.17
  -3   4 -11    0.11    0.21
  -4   4 -11   12.97    0.58
  -4   4 -11   14.49    0.65
  -5   4 -11    3.06    0.29
  -6   4 -11    2.79    0.29
   7   3 -11    0.31    0.28
   6   3 -11    0.04    0.26
   5   3 -11    0.02    0.24
   4   3 -11    0.02    0.23
   3   3 -11    0.82    0.25
   2   3 -11   22.53    0.96
   1   3 -11   41.37    1.62
   0   3 -11    2.34    0.26
  -1   3 -11    1.36    0.22
  -1   3 -11    1.19    0.21
  -1   3 -11    1.54    0.26
   1  -3  11    1.12    0.24
  -2   3 -11    0.14    0.18
  -2   3 -11    0.26    0.21
  -2   3 -11    0.05    0.18
   2  -3  11    0.03    0.22
  -3   3 -11    0.14    0.21
  -3   3 -11    0.26    0.17
  -3   3 -11    0.24    0.18
  -4   3 -11    6.80    0.45
  -4   3 -11    7.04    0.38
  -4   3 -11    6.20    0.35
  -5   3 -11    8.59    0.50
  -6   3 -11    0.82    0.25
   7   2 -11    8.25    0.55
   6   2 -11    0.11    0.25
   5   2 -11    0.67    0.26
   4   2 -11    2.07    0.28
   3   2 -11    0.48    0.24
   2   2 -11    4.40    0.39
   1   2 -11   19.95    0.87
   0   2 -11   18.12    0.81
   0  -2  11   18.97    0.89
  -1   2 -11    1.44    0.22
  -1   2 -11    1.89    0.24
   1  -2  11    1.34    0.27
  -2   2 -11    0.08    0.21
  -2   2 -11    0.48    0.20
  -2   2 -11    0.23    0.19
   2  -2  11    0.09    0.24
  -3   2 -11    0.11    0.17
  -3   2 -11    0.15    0.22
  -3   2 -11    0.03    0.18
   3  -2  11    0.08    0.24
  -4   2 -11    0.45    0.16
  -4   2 -11    0.44    0.18
  -4   2 -11    0.46    0.24
   4  -2  11    0.62    0.26
  -5   2 -11    4.10    0.39
  -6   2 -11    0.98    0.26
   7   1 -11    3.95    0.38
   6   1 -11    2.30    0.31
   5   1 -11    1.58    0.28
   4   1 -11    3.38    0.33
   3   1 -11    6.19    0.43
   2   1 -11    2.49    0.28
   1   1 -11    0.15    0.21
   0   1 -11    2.75    0.28
   0  -1  11    3.02    0.33
  -1   1 -11   15.57    0.72
   1  -1  11   15.83    0.79
  -2   1 -11    7.02    0.42
  -2   1 -11    7.13    0.42
   2  -1  11    6.85    0.48
  -3   1 -11    0.41    0.19
  -3   1 -11    0.81    0.21
   3  -1  11    0.76    0.28
  -4   1 -11    0.12    0.17
  -4   1 -11    0.11    0.19
  -4   1 -11    0.02    0.24
   4  -1  11   -0.44    0.26
  -5   1 -11    2.73    0.32
   5  -1  11    2.96    0.37
   7   0 -11    0.49    0.28
   6   0 -11    0.27    0.26
   5   0 -11    4.43    0.41
   4   0 -11    4.41    0.39
   3   0 -11    6.68    0.45
   2   0 -11    0.55    0.24
   1   0 -11    2.32    0.29
  -1   0  11    2.61    0.34
   0   0 -11    0.90    0.25
   0   0  11    1.37    0.30
  -1   0 -11   14.52    0.70
   1   0  11   14.87    0.78
  -2   0 -11   11.04    0.56
   2   0  11   10.22    0.62
  -3   0 -11    1.69    0.25
  -3   0 -11    1.73    0.24
   3   0  11    2.15    0.34
  -4   0 -11    0.32    0.19
  -4   0 -11    0.60    0.20
   4   0  11    0.25    0.30
   7  -1 -11    1.53    0.31
   6  -1 -11    3.97    0.37
   5  -1 -11    0.29    0.23
   4  -1 -11   11.72    0.63
   3  -1 -11   -0.23    0.23
   2  -1 -11    0.81    0.25
   1  -1 -11    4.15    0.39
  -1   1  11    3.74    0.39
   0  -1 -11    4.09    0.39
   0   1  11    4.91    0.46
  -1  -1 -11    6.21    0.43
   1   1  11    6.11    0.51
  -2  -1 -11    5.43    0.42
   2   1  11    6.09    0.48
  -3  -1 -11    0.87    0.24
   3   1  11    1.48    0.33
   4   1  11    0.19    0.32
   6  -2 -11   13.41    0.69
   5  -2 -11    3.83    0.37
   4  -2 -11   -0.52    0.24
   3  -2 -11    1.98    0.30
   2  -2 -11   -0.19    0.23
  -2   2  11   -0.51    0.29
   1  -2 -11    2.64    0.31
  -1   2  11    2.65    0.37
   0  -2 -11    7.63    0.50
   0   2  11    7.96    0.58
  -1  -2 -11    0.25    0.24
   1   2  11   -0.34    0.30
   2   2  11    2.34    0.37
  -2   3  11    0.44    0.33
  -1   3  11    0.87    0.33
   0   3  11    4.29    0.46
   1   3  11   -0.38    0.33
   0 -10  12    7.72    0.52
  -1  10 -12    0.41    0.23
  -2  10 -12    0.34    0.24
  -2  10 -12    0.34    0.21
  -3  10 -12    3.90    0.32
  -3  10 -12    3.85    0.31
  -4  10 -12    2.22    0.31
  -2  -9  12    0.55    0.27
   1   9 -12    5.31    0.42
  -1  -9  12    5.52    0.44
   0   9 -12    1.65    0.28
   0  -9  12    1.69    0.29
  -1   9 -12    0.59    0.23
   1  -9  12    0.82    0.26
  -2   9 -12    0.21    0.18
  -2   9 -12   -0.21    0.20
  -3   9 -12    1.78    0.24
  -3   9 -12    1.68    0.22
  -3   9 -12    1.60    0.21
  -3   9 -12    1.96    0.29
  -4   9 -12    5.95    0.44
  -5   9 -12    4.64    0.41
   2   8 -12    0.22    0.26
  -2  -8  12    0.55    0.27
   1   8 -12    1.14    0.27
   0   8 -12    1.67    0.27
  -1   8 -12   -0.06    0.21
  -2   8 -12    0.95    0.22
  -2   8 -12    0.93    0.21
  -3   8 -12    1.24    0.19
  -3   8 -12    0.68    0.20
  -3   8 -12    0.87    0.25
  -3   8 -12    0.74    0.17
  -4   8 -12    1.03    0.25
  -4   8 -12    1.21    0.17
  -5   8 -12    1.36    0.26
   3   7 -12    1.47    0.29
   2   7 -12   12.37    0.64
   1   7 -12   -0.01    0.23
   0   7 -12    0.46    0.23
  -1   7 -12    1.75    0.25
  -1   7 -12    1.61    0.24
  -2   7 -12    1.90    0.24
  -2   7 -12    2.06    0.29
  -2   7 -12    2.17    0.24
  -3   7 -12    0.25    0.17
  -3   7 -12    0.39    0.19
  -3   7 -12    0.34    0.23
  -4   7 -12    0.11    0.22
  -5   7 -12    0.07    0.23
  -6   7 -12    1.71    0.28
  -6   7 -12    1.65    0.22
   4   6 -12   -0.19    0.25
   3   6 -12    0.63    0.26
   2   6 -12    4.17    0.41
   1   6 -12    0.40    0.23
   0   6 -12    0.73    0.23
  -1   6 -12    7.16    0.44
  -1   6 -12    7.87    0.45
  -2   6 -12   13.33    0.65
  -2   6 -12   12.65    0.60
  -2   6 -12   13.64    0.62
  -3   6 -12   -0.08    0.22
  -3   6 -12   -0.06    0.17
  -3   6 -12   -0.12    0.17
  -4   6 -12    2.31    0.22
  -4   6 -12    2.09    0.30
  -5   6 -12   -0.10    0.24
  -6   6 -12    0.39    0.24
   5   5 -12    0.86    0.29
   4   5 -12    2.37    0.32
   3   5 -12   -0.10    0.23
   2   5 -12    2.85    0.31
   1   5 -12    6.21    0.42
   0   5 -12    1.51    0.25
  -1   5 -12    1.56    0.24
  -1   5 -12    1.86    0.24
  -2   5 -12    1.62    0.23
  -2   5 -12    1.43    0.22
  -2   5 -12    1.11    0.26
  -3   5 -12   11.03    0.54
  -3   5 -12   12.21    0.63
  -3   5 -12   11.25    0.55
  -4   5 -12    1.29    0.26
  -4   5 -12    1.18    0.17
  -5   5 -12    1.05    0.26
   5   4 -12    0.06    0.27
   4   4 -12   -0.03    0.25
   3   4 -12    0.59    0.25
   2   4 -12    0.13    0.22
   1   4 -12   12.87    0.63
   0   4 -12    5.53    0.40
  -1   4 -12    2.78    0.28
  -1   4 -12    2.60    0.27
  -2   4 -12    6.12    0.39
  -2   4 -12    5.64    0.40
  -3   4 -12    1.10    0.22
  -3   4 -12    1.41    0.27
  -3   4 -12    1.09    0.20
  -4   4 -12   10.83    0.57
  -4   4 -12    9.50    0.47
  -5   4 -12    0.48    0.25
   5   3 -12    2.43    0.33
   4   3 -12    0.81    0.26
   3   3 -12    0.99    0.26
   2   3 -12    4.33    0.40
   1   3 -12   -0.03    0.21
   0   3 -12    6.34    0.44
  -1   3 -12    3.22    0.29
  -2   3 -12    0.87    0.21
  -2   3 -12    0.97    0.22
  -3   3 -12   -0.18    0.17
  -3   3 -12   -0.18    0.23
  -3   3 -12    0.06    0.19
  -4   3 -12    2.79    0.31
  -4   3 -12    2.45    0.23
  -5   3 -12    1.86    0.30
   5   2 -12    0.85    0.29
   4   2 -12    1.75    0.29
   3   2 -12    0.42    0.24
   2   2 -12    0.16    0.23
   1   2 -12    0.87    0.25
   0   2 -12    1.29    0.25
  -1   2 -12    5.14    0.41
   1  -2  12    5.56    0.43
  -2   2 -12    5.14    0.39
  -2   2 -12    5.46    0.40
   2  -2  12    5.67    0.45
  -3   2 -12    1.08    0.21
  -3   2 -12    1.10    0.22
  -4   2 -12    1.49    0.20
   5   1 -12   -0.21    0.24
   4   1 -12    5.07    0.44
   3   1 -12    4.40    0.41
   2   1 -12    0.93    0.26
   1   1 -12    1.25    0.26
   0   1 -12   -0.19    0.21
   0  -1  12   -0.29    0.26
  -1   1 -12    4.09    0.36
   1  -1  12    3.61    0.39
   2  -1  12   12.38    0.70
  -3   1 -12    0.17    0.21
  -3   1 -12    0.14    0.20
   3  -1  12    0.24    0.28
   5   0 -12    0.53    0.27
   4   0 -12    3.66    0.35
   3   0 -12    0.28    0.24
   2   0 -12    0.52    0.24
   1   0 -12   -0.11    0.22
  -1   0  12   -0.06    0.28
   0   0 -12   -0.21    0.22
   0   0  12   -0.36    0.26
  -1   0 -12   -0.12    0.22
   1   0  12    0.16    0.30
  -2   0 -12    4.50    0.38
   2   0  12    4.34    0.44
   3   0  12    7.99    0.57
   3  -1 -12    0.07    0.25
   2  -1 -12    1.75    0.30
   1  -1 -12    1.05    0.28
  -1   1  12    1.13    0.33
   0   1  12    1.67    0.35
   1   1  12    1.65    0.36
   2   1  12    0.33    0.33
  -1   2  12    0.84    0.35
   0   2  12    0.64    0.34
  -1  -9  13    1.40    0.31
   0  -9  13    0.64    0.28
  -2   9 -13    0.70    0.22
  -2   9 -13    0.30    0.24
  -3   9 -13   -0.18    0.16
  -4   9 -13    0.03    0.25
   0   8 -13   -0.10    0.23
  -1   8 -13    0.46    0.24
  -2   8 -13    6.04    0.39
  -2   8 -13    5.09    0.40
  -3   8 -13    4.63    0.31
  -4   8 -13   -0.27    0.24
   1   7 -13    4.45    0.42
   0   7 -13    1.47    0.27
  -1   7 -13    0.05    0.21
  -2   7 -13    0.23    0.21
  -2   7 -13    0.17    0.19
  -3   7 -13    2.56    0.26
  -3   7 -13    2.35    0.24
  -4   7 -13    0.44    0.25
   2   6 -13    1.19    0.28
   1   6 -13    0.23    0.23
   0   6 -13    1.09    0.25
  -1   6 -13    1.06    0.23
  -2   6 -13   -0.05    0.19
  -2   6 -13   -0.06    0.18
  -3   6 -13    1.23    0.21
  -3   6 -13    1.04    0.22
  -4   6 -13    0.23    0.26
   3   5 -13    0.20    0.25
   2   5 -13    0.01    0.23
   1   5 -13   -0.16    0.23
   0   5 -13    5.01    0.41
  -1   5 -13    1.42    0.25
  -2   5 -13    0.24    0.20
  -2   5 -13    0.26    0.21
  -3   5 -13    1.59    0.23
  -3   5 -13    1.81    0.23
  -4   5 -13    1.19    0.27
   3   4 -13    0.42    0.25
   2   4 -13    6.95    0.47
   1   4 -13    1.55    0.27
   0   4 -13    0.73    0.23
  -1   4 -13    0.13    0.22
  -2   4 -13    2.14    0.27
  -2   4 -13    2.14    0.26
  -3   4 -13    0.15    0.20
  -3   4 -13   -0.11    0.18
   3   3 -13    0.47    0.25
   2   3 -13    0.99    0.26
   1   3 -13    9.96    0.56
   0   3 -13    0.91    0.25
  -1   3 -13    0.12    0.22
  -2   3 -13    5.28    0.41
  -3   3 -13    0.10    0.21
  -3   3 -13    0.08    0.18
   3   2 -13    1.79    0.29
   2   2 -13    0.76    0.26
   1   2 -13    0.31    0.24
   0   2 -13   -0.02    0.23
  -1   2 -13    5.06    0.42
  -2   2 -13    0.44    0.24
  -3   2 -13    0.26    0.22
  -3   2 -13    0.40    0.21
   0  -1  13   -0.07    0.29
   1  -1  13    0.87    0.31
   0   0  13    2.95    0.40
   1   0  13    1.45    0.36
  -1   1  13    1.32    0.36
   0   1  13   -0.19    0.33
  -2   7 -14    1.74    0.26
  -2   6 -14    8.29    0.48
  -2   5 -14    0.31    0.22
   0   0   0    0.00    0.00
;
_shelx_hkl_checksum              74282
loop_
_space_group_symop_operation_xyz
'x, y, z'
'-x, -y, -z'
loop_
_atom_site_label
_atom_site_type_symbol
_atom_site_fract_x
_atom_site_fract_y
_atom_site_fract_z
_atom_site_U_iso_or_equiv
_atom_site_adp_type
_atom_site_occupancy
_atom_site_site_symmetry_order
_atom_site_calc_flag
_atom_site_refinement_flags_posn
_atom_site_refinement_flags_adp
Al1 Al 0.43592(7) 0.54153(6) 0.23181(5) 0.01684(15) Uani 1 1 d . .
O1 O 0.26299(15) 0.68397(14) 0.26236(12) 0.0179(3) Uani 1 1 d . .
N1 N 0.59404(19) 0.39182(17) 0.13339(15) 0.0178(3) Uani 1 1 d . .
N2 N 0.62395(19) 0.37283(17) 0.00676(15) 0.0179(3) Uani 1 1 d . .
N3 N 0.55128(19) 0.45466(17) -0.04544(14) 0.0175(3) Uani 1 1 d . .
C1 C 0.6654(2) 0.2922(2) 0.18250(18) 0.0177(3) Uani 1 1 d . .
C2 C 0.6962(2) 0.3399(2) 0.32765(19) 0.0230(4) Uani 1 1 d . .
H2 H 0.6708 0.4361 0.3899 0.028 Uiso 1 1 calc R U
C3 C 0.7640(3) 0.2464(2) 0.3809(2) 0.0255(4) Uani 1 1 d . .
H3 H 0.7851 0.2792 0.4796 0.031 Uiso 1 1 calc R U
C4 C 0.8014(2) 0.1048(2) 0.2905(2) 0.0259(4) Uani 1 1 d . .
H4 H 0.8498 0.0421 0.3273 0.031 Uiso 1 1 calc R U
C5 C 0.7673(3) 0.0561(2) 0.1464(2) 0.0257(4) Uani 1 1 d . .
H5 H 0.7906 -0.0415 0.0845 0.031 Uiso 1 1 calc R U
C6 C 0.6994(2) 0.1482(2) 0.09130(19) 0.0216(3) Uani 1 1 d . .
H6 H 0.6762 0.1136 -0.0076 0.026 Uiso 1 1 calc R U
C7 C 0.3191(2) 0.8623(2) 0.30567(19) 0.0213(3) Uani 1 1 d . .
H7A H 0.4000 0.8933 0.2427 0.026 Uiso 1 1 calc R U
H7B H 0.3855 0.9209 0.4032 0.026 Uiso 1 1 calc R U
C8 C 0.1420(2) 0.9045(2) 0.2954(2) 0.0241(4) Uani 1 1 d . .
H8A H 0.1617 1.0016 0.2731 0.029 Uiso 1 1 calc R U
H8B H 0.0895 0.9263 0.3838 0.029 Uiso 1 1 calc R U
C9 C 0.0183(2) 0.7480(2) 0.17420(18) 0.0216(3) Uani 1 1 d . .
H9A H -0.1131 0.7383 0.1788 0.026 Uiso 1 1 calc R U
H9B H 0.0459 0.7455 0.0817 0.026 Uiso 1 1 calc R U
C10 C 0.0688(2) 0.6135(2) 0.20076(19) 0.0211(3) Uani 1 1 d . .
H10A H -0.0064 0.5823 0.2664 0.025 Uiso 1 1 calc R U
H10B H 0.0496 0.5145 0.1117 0.025 Uiso 1 1 calc R U
C11 C 0.6291(2) 0.72396(18) 0.38736(16) 0.0133(3) Uani 1 1 d . .
H11A H 0.7393 0.6901 0.3916 0.020 Uiso 1 1 calc R U
H11B H 0.5825 0.7476 0.4772 0.020 Uiso 1 1 calc R U
H11C H 0.6598 0.8231 0.3691 0.020 Uiso 1 1 calc R U
C12 C 0.2466(2) 0.3628(2) 0.25425(19) 0.0196(3) Uani 1 1 d . .
H12A H 0.1656 0.2920 0.1644 0.029 Uiso 1 1 calc R U
H12B H 0.1744 0.4110 0.3257 0.029 Uiso 1 1 calc R U
H12C H 0.3065 0.2973 0.2837 0.029 Uiso 1 1 calc R U
loop_
_atom_site_aniso_label
_atom_site_aniso_U_11
_atom_site_aniso_U_22
_atom_site_aniso_U_33
_atom_site_aniso_U_23
_atom_site_aniso_U_13
_atom_site_aniso_U_12
Al1 0.0174(2) 0.0200(3) 0.0167(3) 0.0084(2) 0.00622(18) 0.00939(18)
O1 0.0153(5) 0.0192(6) 0.0200(6) 0.0072(5) 0.0041(4) 0.0080(4)
N1 0.0190(7) 0.0213(7) 0.0182(7) 0.0105(6) 0.0062(5) 0.0104(5)
N2 0.0198(7) 0.0208(7) 0.0172(7) 0.0089(5) 0.0060(5) 0.0106(5)
N3 0.0197(7) 0.0214(7) 0.0166(7) 0.0084(5) 0.0073(5) 0.0131(5)
C1 0.0158(7) 0.0221(8) 0.0214(8) 0.0125(6) 0.0067(6) 0.0095(6)
C2 0.0261(9) 0.0280(9) 0.0230(9) 0.0137(7) 0.0091(7) 0.0152(7)
C3 0.0255(9) 0.0375(10) 0.0258(9) 0.0206(8) 0.0089(7) 0.0165(7)
C4 0.0212(8) 0.0339(10) 0.0381(10) 0.0259(8) 0.0110(7) 0.0150(7)
C5 0.0252(9) 0.0252(9) 0.0342(10) 0.0155(8) 0.0096(7) 0.0140(7)
C6 0.0210(8) 0.0234(8) 0.0241(9) 0.0111(7) 0.0071(6) 0.0098(6)
C7 0.0198(8) 0.0182(8) 0.0241(8) 0.0057(6) 0.0025(6) 0.0077(6)
C8 0.0229(8) 0.0230(8) 0.0262(9) 0.0062(7) 0.0040(7) 0.0131(7)
C9 0.0193(8) 0.0242(8) 0.0224(8) 0.0084(7) 0.0027(6) 0.0103(6)
C10 0.0168(7) 0.0227(8) 0.0242(9) 0.0092(7) 0.0022(6) 0.0074(6)
C11 0.0125(6) 0.0168(7) 0.0134(7) 0.0066(6) 0.0041(5) 0.0080(5)
C12 0.0182(7) 0.0207(8) 0.0247(8) 0.0120(7) 0.0082(6) 0.0089(6)
loop_
_atom_type_symbol
_atom_type_description
_atom_type_scat_dispersion_real
_atom_type_scat_dispersion_imag
_atom_type_scat_source
C C 0.0033 0.0016 'International Tables Vol C Tables 4.2.6.8 and 6.1.1.4'
H H 0.0000 0.0000 'International Tables Vol C Tables 4.2.6.8 and 6.1.1.4'
N N 0.0061 0.0033 'International Tables Vol C Tables 4.2.6.8 and 6.1.1.4'
Al Al 0.0645 0.0514 'International Tables Vol C Tables 4.2.6.8 and 6.1.1.4'
O O 0.0106 0.0060 'International Tables Vol C Tables 4.2.6.8 and 6.1.1.4'
loop_
_geom_angle_atom_site_label_1
_geom_angle_atom_site_label_2
_geom_angle_atom_site_label_3
_geom_angle
_geom_angle_site_symmetry_1
_geom_angle_site_symmetry_3
N3 Al1 C12 120.12(7) 2_665 .
N3 Al1 C11 114.93(7) 2_665 .
C12 Al1 C11 124.93(7) . .
N3 Al1 O1 87.29(5) 2_665 .
C12 Al1 O1 92.18(6) . .
C11 Al1 O1 91.81(6) . .
N3 Al1 N1 73.85(6) 2_665 .
C12 Al1 N1 94.16(6) . .
C11 Al1 N1 99.32(6) . .
O1 Al1 N1 160.79(6) . .
C10 O1 C7 109.53(12) . .
C10 O1 Al1 122.02(10) . .
C7 O1 Al1 125.87(10) . .
N2 N1 C1 113.32(13) . .
N2 N1 Al1 118.62(10) . .
C1 N1 Al1 127.84(11) . .
N1 N2 N3 115.24(13) . .
N2 N3 N3 113.50(16) . 2_665
N2 N3 Al1 127.72(10) . 2_665
N3 N3 Al1 118.76(13) 2_665 2_665
C2 C1 C6 119.70(15) . .
C2 C1 N1 117.64(14) . .
C6 C1 N1 122.62(15) . .
C3 C2 C1 119.96(16) . .
C2 C3 C4 120.45(17) . .
C5 C4 C3 119.44(16) . .
C4 C5 C6 120.85(17) . .
C5 C6 C1 119.57(17) . .
O1 C7 C8 105.37(14) . .
C7 C8 C9 102.44(13) . .
C10 C9 C8 102.05(14) . .
O1 C10 C9 105.38(13) . .
loop_
_geom_bond_atom_site_label_1
_geom_bond_atom_site_label_2
_geom_bond_distance
_geom_bond_site_symmetry_2
Al1 N3 1.9693(15) 2_665
Al1 C12 1.9857(17) .
Al1 C11 2.0116(16) .
Al1 O1 2.0548(12) .
Al1 N1 2.0745(14) .
O1 C10 1.463(2) .
O1 C7 1.463(2) .
N1 N2 1.303(2) .
N1 C1 1.427(2) .
N2 N3 1.3084(19) .
N3 N3 1.414(2) 2_665
N3 Al1 1.9692(15) 2_665
C1 C2 1.397(2) .
C1 C6 1.400(2) .
C2 C3 1.389(2) .
C3 C4 1.393(3) .
C4 C5 1.387(3) .
C5 C6 1.390(2) .
C7 C8 1.519(2) .
C8 C9 1.535(2) .
C9 C10 1.517(2) .
