#------------------------------------------------------------------------------
#$Date: 2019-11-24 12:26:56 +0200 (Sun, 24 Nov 2019) $
#$Revision: 237902 $
#$URL: file:///home/coder/svn-repositories/cod/cif/4/08/89/4088957.cif $
#------------------------------------------------------------------------------
#
# This file is available in the Crystallography Open Database (COD),
# http://www.crystallography.net/
#
# All data on this site have been placed in the public domain by the
# contributors.
#
data_4088957
loop_
_publ_author_name
'Brown, Loren C.'
'Ressegue, Emily'
'Merola, Joseph S.'
_publ_section_title
;
 Rapid Access to Derivatized, Dimeric, Ring-Substituted
 Dichloro(cyclopentadienyl)rhodium(III) and Iridium(III) Complexes
;
_journal_issue                   24
_journal_name_full               Organometallics
_journal_page_first              4014
_journal_paper_doi               10.1021/acs.organomet.6b00580
_journal_volume                  35
_journal_year                    2016
_chemical_formula_moiety         'C26 H42 Cl4 Ir2'
_chemical_formula_sum            'C26 H42 Cl4 Ir2'
_chemical_formula_weight         880.79
_space_group_crystal_system      triclinic
_space_group_IT_number           2
_space_group_name_Hall           '-P 1'
_space_group_name_H-M_alt        'P -1'
_atom_sites_solution_hydrogens   geom
_audit_creation_date             2015-11-12
_audit_creation_method
;
Olex2 1.2
(compiled 2015.09.30 svn.r3233 for OlexSys, GUI svn.r5103)
;
_cell_angle_alpha                109.693(4)
_cell_angle_beta                 100.752(3)
_cell_angle_gamma                92.206(3)
_cell_formula_units_Z            1
_cell_length_a                   8.7695(3)
_cell_length_b                   8.8947(4)
_cell_length_c                   9.5445(3)
_cell_measurement_reflns_used    7928
_cell_measurement_temperature    99(2)
_cell_measurement_theta_max      32.2580
_cell_measurement_theta_min      3.9080
_cell_volume                     684.49(5)
_computing_cell_refinement
;
CrysAlisPro, Agilent Technologies,
Version 1.171.37.35 (release 13-08-2014 CrysAlis171 .NET)
(compiled Aug 13 2014,18:06:01)
;
_computing_data_collection
;
CrysAlisPro, Agilent Technologies,
Version 1.171.37.35 (release 13-08-2014 CrysAlis171 .NET)
(compiled Aug 13 2014,18:06:01)
;
_computing_data_reduction
;
CrysAlisPro, Agilent Technologies,
Version 1.171.37.35 (release 13-08-2014 CrysAlis171 .NET)
(compiled Aug 13 2014,18:06:01)
;
_computing_molecular_graphics    'Olex2 (Dolomanov et al., 2009)'
_computing_publication_material  'Olex2 (Dolomanov et al., 2009)'
_computing_structure_refinement  'ShelXL (Sheldrick, 2015)'
_computing_structure_solution    'ShelXT (Sheldrick, 2015)'
_diffrn_ambient_environment      N~2~
_diffrn_ambient_temperature      99(2)
_diffrn_detector                 'CCD plate'
_diffrn_detector_area_resol_mean 8.0061
_diffrn_detector_type            Eos
_diffrn_measured_fraction_theta_full 0.998
_diffrn_measured_fraction_theta_max 0.998
_diffrn_measurement_details
;
#__ type_ start__ end____ width___ exp.time_
  1 omega -109.00  -35.00   1.0000    2.0000
omega____ theta____ kappa____ phi______ frames
    -      -29.5315 -178.0000   60.0000 74

#__ type_ start__ end____ width___ exp.time_
  2 omega -102.00    4.00   1.0000    2.0000
omega____ theta____ kappa____ phi______ frames
    -      -29.5315  -77.0000 -150.0000 106

#__ type_ start__ end____ width___ exp.time_
  3 omega  -64.00   43.00   1.0000    2.0000
omega____ theta____ kappa____ phi______ frames
    -      -29.5315   80.0000  -15.0000 107

#__ type_ start__ end____ width___ exp.time_
  4 omega -102.00    4.00   1.0000    2.0000
omega____ theta____ kappa____ phi______ frames
    -      -29.5315  -77.0000   90.0000 106

#__ type_ start__ end____ width___ exp.time_
  5 omega  -63.00   43.00   1.0000    2.0000
omega____ theta____ kappa____ phi______ frames
    -      -29.5315   77.0000   90.0000 106

#__ type_ start__ end____ width___ exp.time_
  6 omega -104.00   45.00   1.0000    2.0000
omega____ theta____ kappa____ phi______ frames
    -      -29.5315    0.0000 -180.0000 149

#__ type_ start__ end____ width___ exp.time_
  7 omega -109.00  -49.00   1.0000    2.0000
omega____ theta____ kappa____ phi______ frames
    -      -29.5315 -178.0000  120.0000 60

#__ type_ start__ end____ width___ exp.time_
  8 omega -100.00   -6.00   1.0000    2.0000
omega____ theta____ kappa____ phi______ frames
    -      -29.5315  -57.0000  -30.0000 94
;
_diffrn_measurement_device       'four-circle diffractometer'
_diffrn_measurement_device_type  'Xcalibur, Eos, Gemini ultra'
_diffrn_measurement_method       '\w scans'
_diffrn_orient_matrix_UB_11      -0.0577783000
_diffrn_orient_matrix_UB_12      -0.0470108000
_diffrn_orient_matrix_UB_13      0.0149902000
_diffrn_orient_matrix_UB_21      -0.0514941000
_diffrn_orient_matrix_UB_22      -0.0029503000
_diffrn_orient_matrix_UB_23      -0.0679056000
_diffrn_orient_matrix_UB_31      0.0295005000
_diffrn_orient_matrix_UB_32      -0.0710086000
_diffrn_orient_matrix_UB_33      -0.0410812000
_diffrn_radiation_monochromator  graphite
_diffrn_radiation_probe          x-ray
_diffrn_radiation_type           MoK\a
_diffrn_radiation_wavelength     0.71073
_diffrn_reflns_av_R_equivalents  0.0505
_diffrn_reflns_av_unetI/netI     0.0521
_diffrn_reflns_Laue_measured_fraction_full 0.998
_diffrn_reflns_Laue_measured_fraction_max 0.998
_diffrn_reflns_limit_h_max       12
_diffrn_reflns_limit_h_min       -12
_diffrn_reflns_limit_k_max       12
_diffrn_reflns_limit_k_min       -12
_diffrn_reflns_limit_l_max       13
_diffrn_reflns_limit_l_min       -13
_diffrn_reflns_number            12303
_diffrn_reflns_point_group_measured_fraction_full 0.998
_diffrn_reflns_point_group_measured_fraction_max 0.998
_diffrn_reflns_theta_full        30.032
_diffrn_reflns_theta_max         30.032
_diffrn_reflns_theta_min         3.595
_diffrn_source                   'Enhance (Mo) X-ray Source'
_exptl_absorpt_coefficient_mu    10.115
_exptl_absorpt_correction_T_max  0.296
_exptl_absorpt_correction_T_min  0.099
_exptl_absorpt_correction_type   analytical
_exptl_absorpt_process_details
;
CrysAlisPro, Agilent Technologies,
Version 1.171.37.35 (release 13-08-2014 CrysAlis171 .NET)
(compiled Aug 13 2014,18:06:01)
Analytical numeric absorption correction using a multifaceted crystal
			model based on expressions derived by R.C. Clark & J.S. Reid.
(Clark, R. C. & Reid, J. S. (1995). Acta Cryst. A51, 887-897)
Empirical absorption correction using spherical harmonics,
 implemented in SCALE3 ABSPACK scaling algorithm.
;
_exptl_crystal_colour            red
_exptl_crystal_colour_primary    red
_exptl_crystal_density_diffrn    2.137
_exptl_crystal_description       block
_exptl_crystal_F_000             420
_exptl_crystal_size_max          0.3332
_exptl_crystal_size_mid          0.2791
_exptl_crystal_size_min          0.1645
_refine_diff_density_max         1.420
_refine_diff_density_min         -1.977
_refine_diff_density_rms         0.216
_refine_ls_extinction_method     none
_refine_ls_goodness_of_fit_ref   1.067
_refine_ls_hydrogen_treatment    constr
_refine_ls_matrix_type           full
_refine_ls_number_parameters     150
_refine_ls_number_reflns         3995
_refine_ls_number_restraints     0
_refine_ls_restrained_S_all      1.067
_refine_ls_R_factor_all          0.0311
_refine_ls_R_factor_gt           0.0274
_refine_ls_shift/su_max          0.001
_refine_ls_shift/su_mean         0.000
_refine_ls_structure_factor_coef Fsqd
_refine_ls_weighting_details
'w=1/[\s^2^(Fo^2^)+(0.0223P)^2^] where P=(Fo^2^+2Fc^2^)/3'
_refine_ls_weighting_scheme      calc
_refine_ls_wR_factor_gt          0.0608
_refine_ls_wR_factor_ref         0.0629
_reflns_Friedel_coverage         0.000
_reflns_number_gt                3696
_reflns_number_total             3995
_reflns_threshold_expression     'I > 2\s(I)'
_cod_data_source_file            om6b00580_si_002.cif
_cod_data_source_block           2d_lbx-015abs
_cod_original_cell_volume        684.50(5)
_cod_database_code               4088957
_chemical_oxdiff_formula         'C26 H42 Cl4 Ir2'
_chemical_oxdiff_usercomment     'IrCp*butyl dimer'
_shelx_space_group_comment
;
The symmetry employed for this shelxl refinement is uniquely defined
by the following loop, which should always be used as a source of
symmetry information in preference to the above space-group names.
They are only intended as comments.
;
_olex2_refinement_description
;
1. Others
 Fixed Uiso: H6A(0.029) H6B(0.029) H6C(0.029) H7A(0.028) H7B(0.028) H7C(0.028)
 H8A(0.024) H8B(0.024) H8C(0.024) H9A(0.022) H9B(0.022) H9C(0.022) H10A(0.021)
 H10B(0.021) H11A(0.023) H11B(0.023) H12A(0.021) H12B(0.021) H13A(0.03)
 H13B(0.03) H13C(0.03)
 Fixed X: H6A(0.4597) H6B(0.4998) H6C(0.6093) H7A(0.7019) H7B(0.6433)
 H7C(0.6427) H8A(0.4445) H8B(0.2925) H8C(0.2802) H9A(0.0514) H9B(-0.0017) H9C(-
 0.0229) H10A(0.1948) H10B(0.0491) H11A(0.0317) H11B(0.1822) H12A(-0.1024)
 H12B(0.0481) H13A(-0.1178) H13B(-0.1256) H13C(0.0302)
 Fixed Y: H6A(0.0565) H6B(0.2233) H6C(0.1688) H7A(0.3836) H7B(0.5299)
 H7C(0.5251) H8A(0.5874) H8B(0.6393) H8C(0.5161) H9A(0.3189) H9B(0.4062)
 H9C(0.2181) H10A(-0.0243) H10B(0.0445) H11A(0.0282) H11B(0.1505) H12A(0.2299)
 H12B(0.3521) H13A(0.2094) H13B(0.3875) H13C(0.3353)
 Fixed Z: H6A(0.8817) H6B(1.0145) H6C(0.8983) H7A(0.8152) H7B(0.9301)
 H7C(0.7643) H8A(0.6191) H8B(0.678) H8C(0.5129) H9A(0.4692) H9B(0.6217)
 H9C(0.5512) H10A(0.735) H10B(0.6659) H11A(0.9063) H11B(0.9823) H12A(0.8456)
 H12B(0.9243) H13A(1.0831) H13B(1.09) H13C(1.1609)
;
_shelx_res_file
;
    lbx-015abs.res created by SHELXL-2014/7

TITL lbx-015abs_a.res in P-1
REM Old TITL LBX-015ABS in P-1 #2
REM SHELXT solution in P-1
REM R1 0.038, Rweak 0.012, Alpha 0.028, Orientation as input
REM Formula found by SHELXT: C9 Cl1 Ir
CELL 0.71073 8.769489 8.894692 9.544539 109.6931 100.7515 92.2058
ZERR 1 0.000327 0.000372 0.000347 0.0036 0.0032 0.0032
LATT 1
SFAC C H Cl Ir
UNIT 26 42 4 2

L.S. 10
PLAN  20
TEMP 100
BOND $H
LIST 6
MORE -1
CONF
fmap 2
acta 65
REM <olex2.extras>
REM <HklSrc "%.\\LBX-015ABS.hkl">
REM </olex2.extras>

WGHT    0.022300
FVAR       0.57555
IR1   4    0.382425    0.174041    0.567402    11.00000    0.00915    0.00801 =
         0.00781    0.00270    0.00279    0.00237
CL1   3    0.295801    0.154937    0.308533    11.00000    0.02009    0.01941 =
         0.01068    0.00567    0.00203    0.00569
CL2   3    0.643378    0.121189    0.518305    11.00000    0.01075    0.00956 =
         0.01509    0.00269    0.00512    0.00114
C1    1    0.409456    0.243362    0.809993    11.00000    0.01652    0.01325 =
         0.00917    0.00247    0.00496    0.00686
C2    1    0.466615    0.377326    0.773202    11.00000    0.01603    0.00845 =
         0.01132   -0.00045    0.00376    0.00276
C3    1    0.337294    0.416404    0.675601    11.00000    0.01281    0.01337 =
         0.01096    0.00267    0.00469    0.00213
C4    1    0.201324    0.308989    0.654467    11.00000    0.01271    0.00915 =
         0.01350    0.00179    0.00747    0.00347
C5    1    0.245622    0.201264    0.737820    11.00000    0.01800    0.01021 =
         0.01272    0.00183    0.00958    0.00351
C6    1    0.502995    0.166018    0.910161    11.00000    0.02507    0.02396 =
         0.01302    0.00893    0.00587    0.01127
AFIX 137
H6A   2    0.459726    0.056497    0.881743    11.00000   -1.50000
H6B   2    0.499788    0.223344    1.014484    11.00000   -1.50000
H6C   2    0.609279    0.168760    0.898303    11.00000   -1.50000
AFIX   0
C7    1    0.627924    0.461447    0.825305    11.00000    0.01324    0.02110 =
         0.01589   -0.00147    0.00200    0.00260
AFIX 137
H7A   2    0.701866    0.383642    0.815200    11.00000   -1.50000
H7B   2    0.643320    0.529868    0.930067    11.00000   -1.50000
H7C   2    0.642669    0.525110    0.764266    11.00000   -1.50000
AFIX   0
C8    1    0.338783    0.551951    0.616073    11.00000    0.01859    0.01357 =
         0.01861    0.00748    0.00557    0.00527
AFIX 137
H8A   2    0.444548    0.587379    0.619137    11.00000   -1.50000
H8B   2    0.292534    0.639323    0.677957    11.00000   -1.50000
H8C   2    0.280221    0.516098    0.512941    11.00000   -1.50000
AFIX   0
C9    1    0.042894    0.313442    0.566284    11.00000    0.00969    0.01582 =
         0.01707    0.00309    0.00297    0.00183
AFIX 137
H9A   2    0.051410    0.318851    0.469228    11.00000   -1.50000
H9B   2   -0.001682    0.406227    0.621725    11.00000   -1.50000
H9C   2   -0.022879    0.218111    0.551218    11.00000   -1.50000
AFIX   0
C10   1    0.140826    0.071013    0.747817    11.00000    0.02315    0.01252 =
         0.02038    0.00606    0.01297    0.00462
AFIX  23
H10A  2    0.194840   -0.024318    0.734960    11.00000   -1.20000
H10B  2    0.049084    0.044484    0.665872    11.00000   -1.20000
AFIX   0
C11   1    0.089746    0.120419    0.900872    11.00000    0.02419    0.01895 =
         0.02214    0.01200    0.01576    0.00482
AFIX  23
H11A  2    0.031666    0.028239    0.906327    11.00000   -1.20000
H11B  2    0.182210    0.150462    0.982275    11.00000   -1.20000
AFIX   0
C12   1   -0.010250    0.258703    0.927199    11.00000    0.01904    0.01618 =
         0.01932    0.00741    0.00746    0.00428
AFIX  23
H12A  2   -0.102441    0.229870    0.845557    11.00000   -1.20000
H12B  2    0.048125    0.352109    0.924329    11.00000   -1.20000
AFIX   0
C13   1   -0.060517    0.301718    1.079427    11.00000    0.02315    0.01852 =
         0.02144    0.00783    0.00937    0.00824
AFIX 137
H13A  2   -0.117797    0.209437    1.083113    11.00000   -1.50000
H13B  2   -0.125616    0.387517    1.090028    11.00000   -1.50000
H13C  2    0.030241    0.335258    1.160899    11.00000   -1.50000
AFIX   0
HKLF 4

REM  lbx-015abs_a.res in P-1
REM R1 =  0.0274 for    3696 Fo > 4sig(Fo)  and  0.0311 for all    3995 data
REM    150 parameters refined using      0 restraints

END

WGHT      0.0223      0.0000

REM Highest difference peak  1.420,  deepest hole -1.977,  1-sigma level  0.216
Q1    1   0.3559  0.1448  0.6309  11.00000  0.05    1.42
Q2    1   0.4052  0.2211  0.5054  11.00000  0.05    1.29
Q3    1   0.3091  0.1294  0.5901  11.00000  0.05    1.07
Q4    1   0.4052  0.0953  0.5807  11.00000  0.05    1.06
Q5    1   0.4729  0.2040  0.6011  11.00000  0.05    0.94
Q6    1  -0.0369 -0.1154  0.8734  11.00000  0.05    0.85
Q7    1   0.1299  0.1148  0.1967  11.00000  0.05    0.82
Q8    1   0.2319  0.2077  0.5544  11.00000  0.05    0.82
Q9    1   0.7775 -0.0011  0.4564  11.00000  0.05    0.80
Q10   1   0.4409  0.2231  0.7354  11.00000  0.05    0.78
Q11   1  -0.0632  0.3534  1.3054  11.00000  0.05    0.74
Q12   1   0.3737  0.2572  0.6606  11.00000  0.05    0.70
Q13   1   0.4329  0.3313  0.8255  11.00000  0.05    0.69
Q14   1  -0.0012  0.2527  1.0181  11.00000  0.05    0.69
Q15   1   0.2591  0.3809  0.5348  11.00000  0.05    0.69
Q16   1   0.2983  0.1326  0.5271  11.00000  0.05    0.69
Q17   1   0.5087  0.4623  0.9447  11.00000  0.05    0.68
Q18   1   0.3392  0.2239  0.7480  11.00000  0.05    0.68
Q19   1   0.2439  0.3865  0.6797  11.00000  0.05    0.67
Q20   1   0.2314  0.1039  0.6341  11.00000  0.05    0.67
;
_shelx_res_checksum              74877
_shelx_hkl_file
;
   0   0  -2 2064.39   84.11
   0   0   2 2165.04   78.97
   0   0  -2 2174.00   79.69
   0   0  -2 2167.69   99.80
   0   0   3  580.97   36.24
   0   0  -3  498.68   39.47
   0   0  -3  588.01   37.38
   0   0  -3  645.69   55.61
   0   0  -4   23.33   15.68
   0   0  -4   41.41   12.71
   0   0  -4   16.29    7.65
   0   0   4   35.23   10.18
   0   0  -5  141.34   22.90
   0   0  -5  120.99   24.98
   0   0   5  104.49   19.02
   0   0  -5  103.31   29.53
   0   0  -6 1687.91  128.57
   0   0  -6 1996.52  115.83
   0   0   6 1786.93  100.35
   0   0  -6 2001.83  106.41
   0   0  -7 1613.91  134.25
   0   0  -7 1972.82  114.95
   0   0   7 1924.75  110.64
   0   0  -7 2076.26  124.30
   0   0  -8 2888.25  155.80
   0   0   8 2721.69  149.64
   0   0  -8 2860.64  190.52
   0   0  -8 2918.54  159.21
   0   0  -9 1067.07  116.98
   0   0   9 1149.91   94.60
   0   0  -9 1048.48   92.55
   0   0  10  107.22   33.03
   0   0 -10  136.57   43.68
   0   0 -10  149.00   37.91
   0   0 -11    6.46   14.34
   0   0  11    1.33   15.33
   0   0 -11   -2.76   19.74
   0   0  12  330.66   61.99
   0   0 -12  254.99   60.21
   0   0 -12  292.63   58.02
   0   1 -12  754.38   90.06
   0  -1  12  642.04   85.45
   0   1 -12  546.88   91.49
   0   1 -11 1256.33  133.55
   0  -1  11 1193.29  109.45
   0   1 -11 1162.57  108.14
   0  -1  10 1052.61   93.56
   0   1 -10  792.84  101.82
   0   1 -10  838.94   85.43
   0   1  -9  818.29   79.82
   0   1  -9  884.58  103.15
   0  -1   9  971.98   84.06
   0   1  -9 1157.31   93.85
   0   1  -8  444.12   68.40
   0   1  -8  466.89   56.31
   0  -1   8  428.77   50.28
   0   1  -8  449.59   52.31
   0   1  -7  350.10   42.34
   0   1  -7  386.64   59.74
   0   1  -7  388.93   48.36
   0  -1   7  401.46   43.95
   0   1  -6   38.34   16.48
   0  -1   6   45.09   14.84
   0   1  -6   61.93   18.39
   0   1  -6   58.67   16.41
   0  -1   5 3941.09  153.67
   0   1  -5 3899.00  155.79
   0   1  -5 3882.13  192.02
   0  -1   4 7138.92  236.99
   0   1  -4 7536.14  241.33
   0  -1   4 7028.24  210.62
   0   1  -4 7032.03  274.58
   0  -1   3 7256.17  227.04
   0   1  -3 6414.80  227.26
   0   1  -3 7059.66  241.07
   0  -1   3 7318.36  210.86
   0  -1   2 5223.51  164.75
   0   1  -2 5508.75  168.95
   0  -1   2 5331.14  159.46
   0   1  -2 5064.55  172.38
   0  -1  -1  176.58   18.99
   0  -1  -1  177.43   16.85
   0  -1  -1  174.28   11.21
   0  -1  -1  161.86   17.42
   0   1   1  180.54   13.77
   0  -1  -2  174.30   19.50
   0  -1  -2  147.26   10.28
   0   1   2  126.45   14.49
   0  -1  -2  187.17   23.13
   0  -1  -2  140.85   21.85
   0   1   3 2950.61  117.87
   0  -1  -3 3525.49  142.22
   0  -1  -3 3136.78  125.09
   0  -1  -3 3084.21   97.12
   0  -1  -3 2668.30  140.61
   0  -1  -4 4149.17  162.59
   0   1   4 3725.94  153.20
   0  -1  -4 3639.23  186.36
   0  -1  -4 4597.62  182.52
   0   1   5 2670.37  126.15
   0  -1  -5 2858.57  165.98
   0  -1  -5 2952.83  136.21
   0  -1  -5 2876.30  145.32
   0  -1  -6 2073.68  145.31
   0   1   6 1902.01  107.97
   0  -1  -6 2122.23  118.05
   0  -1  -6 2039.53  120.88
   0   1   7  969.49   76.76
   0  -1  -7  845.94   94.85
   0  -1  -7 1015.11   82.30
   0  -1  -7  996.34   82.04
   0   1   8  257.52   41.51
   0  -1  -8  267.86   44.50
   0  -1  -8  278.99   43.17
   0  -1  -8  341.74   62.24
   0  -1  -9   26.44   20.25
   0   1   9   -8.51   17.02
   0  -1  -9  -10.80   20.60
   0  -1 -10  469.78   79.48
   0   1  10  431.61   63.93
   0  -1 -10  510.88   69.33
   0   1  11 1060.67  108.65
   0  -1 -11 1167.38  130.11
   0   2 -12 1363.84  143.52
   0  -2  12 1368.79  123.37
   0   2 -12 1098.25  110.23
   0   2 -11  536.24   70.79
   0  -2  11  593.71   73.42
   0   2 -11  539.80   85.93
   0   2 -10   59.64   30.19
   0   2 -10   91.49   28.25
   0   2 -10   51.27   21.82
   0  -2  10   39.18   19.68
   0   2  -9  132.50   32.10
   0   2  -9  142.28   32.14
   0  -2   9  124.03   29.71
   0   2  -9  143.51   40.53
   0   2  -8 1052.32   89.08
   0   2  -8  901.49   97.93
   0   2  -8 1204.97   86.28
   0  -2   8 1199.17   84.63
   0   2  -7  777.87   64.27
   0  -2   7  806.69   63.21
   0   2  -7  843.45   86.62
   0  -2   6 3748.77  123.08
   0  -2   6 3727.18  154.08
   0   2  -6 3752.20  158.13
   0   2  -6 3646.16  191.83
   0   2  -5 5011.10  203.47
   0   2  -5 4993.28  188.63
   0  -2   5 5025.24  183.96
   0  -2   5 5159.69  162.20
   0  -2   4 5189.00  155.96
   0   2  -4 4519.65  179.46
   0  -2   4 4729.06  166.49
   0   2  -4 4484.93  170.56
   0  -2   3 5174.18  157.51
   0   2  -3 4673.39  169.68
   0   2  -3 4517.98  164.06
   0  -2   3 4978.83  159.81
   0  -2   2   74.87    7.80
   0   2  -2   59.24    9.69
   0  -2   2   62.42    8.87
   0   2  -2   61.21    9.14
   0   2  -1  308.75   20.79
   0  -2   1  295.81   20.37
   0  -2   0 4030.06  128.23
   0   2   0 4165.45  128.36
   0  -2   0 4185.45  142.13
   0  -2   0 4329.36  137.13
   0  -2  -1 2501.62   89.20
   0  -2  -1 2426.80   88.22
   0  -2  -1 2383.98  101.68
   0   2   1 2539.41   89.54
   0   2   2 3389.56  126.73
   0  -2  -2 3606.28  148.85
   0  -2  -2 3512.36  144.35
   0  -2  -2 3493.39  137.85
   0  -2  -2 3473.34  118.09
   0   2   3 5682.08  203.60
   0  -2  -3 5636.71  232.17
   0  -2  -3 5776.05  224.72
   0  -2  -3 5882.13  185.40
   0  -2  -3 6025.85  224.40
   0  -2  -4 2987.52  160.58
   0  -2  -4 3065.60  145.76
   0  -2  -4 3018.14  147.47
   0   2   4 3014.08  131.53
   0  -2  -4 3112.85  107.31
   0  -2  -5 1677.15  104.26
   0  -2  -5 1648.94   65.88
   0  -2  -5 1471.34  114.38
   0  -2  -5 1914.19  110.47
   0   2   5 1636.85   93.48
   0  -2  -6    9.67   12.99
   0  -2  -6   96.17   24.51
   0  -2  -6   12.06   10.10
   0   2   6   23.08   10.83
   0  -2  -7  759.73   71.78
   0  -2  -7  804.89   77.15
   0   2   7  652.00   66.32
   0  -2  -7  870.73   95.46
   0   2   8 1147.29   94.26
   0  -2  -8 1104.77  115.58
   0  -2  -8 1083.64   96.42
   0  -2  -9  881.88   90.44
   0   2   9  921.84   90.28
   0  -2  -9  845.32  105.10
   0  -2 -10  549.78   87.39
   0   2  10  458.10   68.00
   0  -2 -11  569.06   92.38
   0   2  11  583.92   82.66
   0   3 -13   95.66   44.66
   0  -3  13   67.66   31.24
   0   3 -13  120.16   39.55
   0   3 -12   21.35   18.81
   0  -3  12   34.46   21.91
   0   3 -12  -19.55   27.36
   0   3 -11   57.11   25.06
   0   3 -11   52.10   29.06
   0  -3  11   35.60   17.06
   0   3 -10  178.11   40.92
   0   3 -10  249.20   43.88
   0  -3  10  255.07   42.65
   0   3 -10  158.40   45.77
   0   3  -9 1644.04  139.35
   0   3  -9 1610.15  109.77
   0   3  -9 1525.43  117.26
   0  -3   9 1612.91  107.31
   0   3  -8 3343.17  164.72
   0   3  -8 3336.52  201.17
   0  -3   8 3591.67  164.39
   0   3  -7 3231.24  181.52
   0  -3   7 3252.25  116.00
   0  -3   7 3100.52  142.78
   0   3  -7 2999.62  145.71
   0  -3   6 1646.27   85.77
   0   3  -6 1607.22   89.98
   0   3  -6 1691.40  101.37
   0  -3   6 1643.26   70.36
   0  -3   5  193.94   19.24
   0  -3   5  194.27   22.81
   0   3  -5  170.99   23.97
   0   3  -5  227.33   29.59
   0   3  -4   62.76   13.19
   0  -3   4   45.99    9.37
   0   3  -4   39.16   11.73
   0  -3   4   41.39    9.43
   0  -3   3 1179.21   49.56
   0   3  -3 1095.35   55.23
   0   3  -3 1045.89   57.12
   0  -3   3 1071.84   53.26
   0   3  -2 3806.65  136.58
   0  -3   2 3874.27  136.15
   0  -3   1 5524.25  186.06
   0   3  -1 5640.58  187.52
   0  -3   0 8573.84  254.34
   0  -3   0 8107.57  266.98
   0   3   0 8875.29  276.11
   0  -3   0 7827.56  273.16
   0   3   0 8484.07  255.01
   0  -3  -1 4450.49  157.08
   0  -3  -1 4260.29  171.38
   0   3   1 4733.78  155.36
   0  -3  -1 4557.91  149.88
   0  -3  -2 1074.30   54.19
   0   3   2 1054.74   57.18
   0  -3  -2 1032.49   56.76
   0  -3  -2 1047.11   71.58
   0  -3  -3   95.10   22.14
   0  -3  -3   99.56   23.96
   0  -3  -3   92.85   18.32
   0  -3  -3   89.57   13.78
   0   3   3  126.74   20.20
   0  -3  -4   58.85   19.97
   0   3   4   60.20   15.81
   0  -3  -4   76.59   24.08
   0  -3  -4   49.57   16.04
   0  -3  -4   51.45   10.67
   0  -3  -5  323.34   51.65
   0  -3  -5  334.23   27.73
   0  -3  -5  314.75   45.30
   0  -3  -5  308.29   42.20
   0   3   5  304.67   38.33
   0  -3  -6 1093.50   84.90
   0  -3  -6 1136.53   92.44
   0   3   6  960.24   78.31
   0  -3  -6  939.18   97.49
   0   3   7 1855.83  121.02
   0  -3  -7 1834.94  148.84
   0  -3  -7 1933.62  130.38
   0  -3  -8 1258.45  126.45
   0   3   8 1166.61  100.30
   0   3   9  189.90   42.85
   0  -3  -9  309.87   63.68
   0  -3 -10   29.30   23.96
   0   3  10    5.07   14.03
   0  -4  13  278.72   59.07
   0   4 -13  242.26   52.16
   0   4 -13  469.74   84.41
   0   4 -12  853.18   93.48
   0  -4  12  952.48   99.90
   0   4 -12  957.72  120.04
   0  -4  11 1107.91   99.63
   0   4 -11  986.26  116.91
   0   4 -11  984.40  100.73
   0   4 -11  853.18   88.18
   0   4 -10  858.53  105.73
   0  -4  10 1022.06   88.03
   0   4 -10  868.90   83.12
   0   4  -9 1771.47  144.95
   0  -4   9 1861.57  114.71
   0   4  -9 1719.66  114.53
   0   4  -8  599.33   59.35
   0   4  -8  566.27   65.65
   0  -4   8  674.02   59.30
   0  -4   7  124.29   22.74
   0  -4   7   85.03   14.79
   0   4  -7   89.72   20.68
   0   4  -7   74.04   21.58
   0  -4   6  488.47   40.67
   0   4  -6  426.02   46.44
   0   4  -6  380.81   40.17
   0  -4   6  429.30   33.57
   0   4  -5 3417.56  144.50
   0  -4   5 3429.62  135.17
   0  -4   5 3854.97  139.68
   0   4  -5 3550.30  151.94
   0   4  -4 4713.69  177.68
   0  -4   4 4511.50  161.60
   0   4  -4 4822.48  173.33
   0  -4   4 4727.75  169.06
   0  -4   3 4240.64  159.50
   0   4  -3 4501.51  164.49
   0   4  -3 4503.66  157.50
   0  -4   2 2503.68  103.29
   0   4  -2 2344.05  101.57
   0   4  -1 3629.86  110.98
   0  -4   1 3292.62  132.59
   0   4  -1 3325.63  134.32
   0  -4   1 3235.32  135.98
   0   4   0 1959.69   73.63
   0  -4   0 1868.51   92.49
   0  -4   0 1677.76   83.00
   0   4   0 1754.37   89.77
   0   4   1  245.91   23.31
   0  -4  -1  247.72   31.83
   0  -4  -1  228.35   19.39
   0  -4  -1  225.37   25.21
   0  -4  -2  195.42   23.07
   0   4   2  205.31   24.22
   0  -4  -2  155.70   28.31
   0  -4  -2  167.08   19.60
   0   4   3 2040.76  102.46
   0  -4  -3 2105.32   98.73
   0  -4  -3 2069.56  124.86
   0  -4  -3 2021.76   93.91
   0  -4  -4 2393.40  119.91
   0   4   4 2315.97  117.82
   0  -4  -4 2135.60  138.58
   0  -4  -4 2242.52  101.87
   0   4   5 1208.89   87.18
   0  -4  -5 1128.29  103.79
   0  -4  -5 1499.13   75.56
   0  -4  -5 1321.23   93.42
   0  -4  -6  879.81   76.09
   0  -4  -6  682.49   85.13
   0   4   6  883.05   76.97
   0  -4  -7  263.77   56.40
   0   4   7  264.53   45.00
   0   4   8    2.13   13.98
   0  -4  -8   -8.88   13.23
   0  -4  -9   74.31   28.94
   0   4   9   76.39   28.13
   0  -4 -10  616.10   96.41
   0   4  10  520.49   77.64
   0   5 -13  767.93   92.43
   0   5 -13  723.01  109.19
   0   5 -12  828.44  110.87
   0   5 -12  784.90   88.86
   0   5 -11  611.15   73.04
   0   5 -11  588.94   89.36
   0   5 -10   58.41   26.46
   0   5 -10   80.28   26.00
   0  -5  10   46.79   18.83
   0  -5   9  330.67   45.24
   0   5  -9  255.93   46.93
   0   5  -9  266.19   41.98
   0  -5   8 1239.13   68.64
   0   5  -8 1031.39   81.06
   0   5  -8 1136.27   92.12
   0  -5   8 1083.25   79.61
   0  -5   7 1532.28   79.17
   0   5  -7 1455.84   92.15
   0   5  -7 1416.06   97.35
   0  -5   7 1409.59   85.83
   0   5  -6 2799.35  131.16
   0  -5   6 2779.79  120.01
   0  -5   6 2749.05  122.84
   0   5  -6 2802.75  138.01
   0  -5   5 4840.65  177.04
   0  -5   5 4444.50  166.58
   0   5  -5 4712.16  188.15
   0   5  -5 4583.32  180.13
   0  -5   4 3551.74  111.53
   0   5  -4 3675.70  143.13
   0  -5   4 3445.65  143.32
   0   5  -4 3817.02  151.89
   0   5  -3 2994.08  128.48
   0   5  -3 2992.63  118.89
   0  -5   3 2992.53  127.20
   0  -5   2  490.54   41.21
   0   5  -2  474.31   40.81
   0   5  -1  624.06   49.03
   0  -5   1  591.04   46.84
   0   5  -1  649.04   32.86
   0  -5   1  683.63   52.53
   0   5   0 1246.54   58.33
   0  -5   0 1235.01   77.70
   0  -5   0 1117.58   68.60
   0   5   0 1079.90   72.36
   0   5   1 1573.17   75.03
   0  -5  -1 1391.98   91.20
   0  -5  -1 1458.18   80.68
   0  -5  -1 1435.51   63.79
   0   5   2 1912.26   92.76
   0  -5  -2 1767.41   78.16
   0  -5  -2 1636.56   89.85
   0  -5  -2 1791.34  111.55
   0  -5  -3 2526.41  108.05
   0  -5  -3 2618.20  148.66
   0  -5  -3 2231.75  112.40
   0   5   3 2507.05  121.43
   0  -5  -4 1565.95   85.76
   0  -5  -4 1510.06   85.26
   0   5   4 1479.27   94.37
   0  -5  -4 1373.14  112.52
   0  -5  -5  107.38   33.95
   0   5   5  114.66   27.53
   0  -5  -6  137.11   38.53
   0   5   6  118.64   30.35
   0  -5  -7 1184.83  121.97
   0   5   7 1150.09  100.70
   0  -5  -8  505.58   83.89
   0   5   8  763.70   85.40
   0  -5  -9  673.57  100.54
   0   5   9  883.65   99.44
   0   6 -13   26.18   21.87
   0   6 -13  -13.83   26.13
   0   6 -12    6.24   16.78
   0   6 -12   11.73   16.31
   0   6 -11   46.70   29.80
   0   6 -11  159.46   37.80
   0   6 -10  926.88   86.68
   0   6 -10  749.11   86.57
   0   6  -9 2104.28  131.96
   0   6  -9 2430.12  150.68
   0   6  -8 3198.58  174.00
   0  -6   8 3437.70  148.09
   0   6  -8 3596.92  171.59
   0  -6   7 3388.86  145.73
   0   6  -7 3071.31  153.73
   0   6  -7 3500.03  168.61
   0  -6   6 1367.81   80.75
   0   6  -6 1329.20   84.43
   0   6  -6 1480.18   94.18
   0  -6   5   75.65   16.89
   0   6  -5   52.64   16.61
   0   6  -5   48.54   13.55
   0   6  -4   11.67    7.85
   0   6  -4   11.51   12.53
   0  -6   4    9.65    8.94
   0   6  -3  231.44   26.06
   0   6  -3  230.59   30.54
   0  -6   3  181.75   27.13
   0   6  -2 2271.17  113.43
   0  -6   2 2306.55  114.00
   0  -6   1 4175.62  178.03
   0   6  -1 4617.68  151.92
   0   6  -1 4160.50  180.57
   0  -6   0 3152.20  145.31
   0   6   0 3452.86  129.40
   0   6   0 3311.83  154.53
   0  -6   0 3026.90  152.77
   0  -6  -1 1520.03  100.53
   0   6   1 1400.31   76.15
   0  -6  -1 1371.36   85.04
   0   6   1 1305.21   93.56
   0  -6  -2  471.44   56.87
   0  -6  -2  386.55   41.96
   0   6   2  409.28   41.07
   0  -6  -2  400.10   30.80
   0  -6  -3   23.69   10.32
   0   6   3   12.34    9.25
   0  -6  -3    5.16   11.76
   0   6   4  179.01   32.77
   0  -6  -4  234.87   33.32
   0  -6  -4  159.54   39.46
   0  -6  -5  445.46   69.02
   0   6   5  752.17   71.77
   0   6   6 1032.44   92.72
   0  -6  -6 1015.15  110.67
   0  -6  -7 1139.87  124.53
   0   6   7 1242.67  109.56
   0  -6  -8  711.62  101.41
   0   6   8  784.10   92.31
   0   7 -12 1239.56  115.17
   0   7 -12 1170.29  136.28
   0   7 -11 1494.49  121.49
   0   7 -10  952.73   97.01
   0   7 -10 1107.72   95.99
   0  -7   9  977.46   71.56
   0   7  -9  904.48   88.49
   0   7  -9  916.98   82.53
   0  -7   8 1023.26   73.91
   0   7  -8  988.68   81.60
   0   7  -8 1110.70   91.43
   0  -7   7   29.19   13.33
   0   7  -7    6.84    7.71
   0   7  -7   25.52   13.50
   0   7  -6  550.77   57.36
   0  -7   6  605.84   54.61
   0   7  -6  628.81   55.67
   0   7  -5 2096.26  116.00
   0  -7   5 1975.52  110.68
   0   7  -5 2102.28  107.49
   0   7  -4 2145.51  118.04
   0  -7   4 2187.99  118.33
   0   7  -4 2455.70  111.77
   0  -7   3 2154.47  115.79
   0   7  -3 1964.23  111.42
   0   7  -3 2232.22  101.14
   0   7  -2 2442.34  126.91
   0  -7   2 2482.92  127.51
   0   7  -1  967.53   75.04
   0  -7   1 1013.02   74.76
   0   7   0  461.15   53.10
   0  -7   0  432.76   52.73
   0  -7   0  578.39   55.30
   0   7   0  608.31   44.83
   0  -7  -1   11.28   13.71
   0  -7  -1    4.49    8.09
   0   7   1   -2.66   12.24
   0   7   1   15.04    8.49
   0   7   2  423.71   57.55
   0  -7  -2  470.78   51.78
   0  -7  -2  517.12   64.84
   0   7   2  547.31   51.57
   0  -7  -3 1643.90  129.05
   0  -7  -3 1702.26  108.56
   0   7   3 1977.65  114.20
   0   7   4 2085.77  128.64
   0  -7  -4 2086.30  154.40
   0  -7  -5  583.16   82.13
   0   7   5  589.50   67.81
   0  -7  -6  206.05   50.39
   0   7   6  222.85   45.53
   0   7   7   26.45   17.19
   0  -7  -7   70.16   33.25
   0   8 -12  948.17  100.51
   0   8 -12 1096.88  131.47
   0   8 -11  358.46   63.12
   0   8 -11  375.96   59.37
   0   8 -10    6.53   15.64
   0   8 -10   18.65   19.31
   0   8  -9  187.45   40.06
   0   8  -9  189.11   37.65
   0  -8   9  241.47   37.23
   0  -8   8 1012.47   78.28
   0   8  -8  883.62   79.60
   0   8  -8  966.69   88.06
   0   8  -7 1498.08  100.38
   0   8  -7 1631.81  111.53
   0  -8   7 1538.57  100.66
   0   8  -6 2103.94  117.65
   0   8  -6 2117.59  126.71
   0  -8   6 2107.74  121.05
   0  -8   5 2237.01  127.55
   0   8  -5 2382.13  120.35
   0   8  -5 2327.89  131.12
   0   8  -4 2014.57  117.46
   0   8  -4 2032.47  103.14
   0  -8   4 1781.25  112.12
   0   8  -3 1269.11   73.23
   0  -8   3 1272.56   90.08
   0   8  -3 1069.73   83.55
   0  -8   2    9.32   12.19
   0   8  -2    3.77    9.97
   0   8  -1  714.57   67.77
   0  -8   1  581.67   61.07
   0   8   0 1086.07   88.32
   0  -8   0  920.70   84.58
   0  -8   0  906.64   78.50
   0  -8  -1 1165.95  100.45
   0  -8  -1 1104.99   87.35
   0   8   1 1011.93   91.25
   0  -8  -2 1095.65   88.15
   0   8   2 1012.22   96.21
   0  -8  -2 1103.80  103.02
   0  -8  -3  804.28   75.33
   0   8   3  711.01   85.32
   0  -8  -3  713.32   86.99
   0  -8  -4  230.24   51.42
   0  -8  -5   46.48   28.48
   0  -8  -6  407.57   74.41
   0   9 -11  152.18   38.19
   0   9 -11  210.80   47.67
   0   9 -10 1162.02  111.73
   0   9 -10 1472.21  116.17
   0   9  -9 1782.10  125.16
   0   9  -9 1832.40  135.28
   0  -9   9 1700.45  114.61
   0   9  -8 2183.99  147.15
   0   9  -8 2363.32  142.24
   0  -9   8 2640.03  145.15
   0   9  -7 1368.32   97.62
   0   9  -7 1357.00  105.44
   0  -9   7 1366.18   99.96
   0  -9   6  458.00   55.53
   0   9  -6  545.76   56.07
   0   9  -6  611.00   66.17
   0   9  -5   21.52   11.66
   0   9  -5   57.10   22.47
   0  -9   5   58.52   20.59
   0  -9   4   44.89   20.68
   0   9  -4   19.34    8.06
   0   9  -4   25.93   15.44
   0  -9   3  231.82   40.15
   0   9  -3  168.07   33.69
   0   9  -3  186.02   27.43
   0  -9   2 1499.83  108.22
   0   9  -2 1574.75  109.30
   0  -9   1 1634.74  113.41
   0   9  -1 1509.57  111.10
   0   9   0 1220.33  101.30
   0  -9   0 1144.08   95.60
   0  -9   0 1235.38  106.50
   0  -9  -1  236.74   47.98
   0   9   1  253.79   47.35
   0  -9  -1  291.00   47.14
   0  -9  -2   33.84   17.26
   0   9   2   48.46   22.90
   0  -9  -2   46.37   25.70
   0  -9  -3   86.56   27.09
   0   9   3   37.68   24.34
   0  -9  -3   63.74   29.50
   0  -9  -4  152.78   44.81
   0   9   4  145.31   42.46
   0   9   5  522.06   81.83
   0  -9  -5  460.52   79.92
   0  10 -11 1241.03  122.34
   0  10 -11 1126.91  109.58
   0  10 -10  646.34   77.47
   0  10 -10  604.74   79.88
   0  10  -9  468.32   62.42
   0 -10   9  463.98   60.73
   0  10  -9  568.75   74.22
   0  10  -8  447.90   57.97
   0  10  -8  520.63   67.88
   0 -10   8  424.75   57.20
   0 -10   7   20.23   14.12
   0  10  -7   66.17   24.57
   0  10  -7   20.39   14.37
   0 -10   6  237.68   42.91
   0  10  -6  290.84   41.34
   0  10  -6  147.87   34.34
   0 -10   5 1124.78   96.05
   0  10  -5 1089.79   93.53
   0  10  -5 1069.23   79.75
   0  10  -4 1448.34  109.13
   0 -10   4 1241.97  103.65
   0  10  -3  887.99   84.15
   0 -10   3  949.12   89.01
   0 -10   2  461.26   61.29
   0  10  -2  385.24   55.79
   0  10  -1  207.46   42.27
   0 -10   1  242.08   45.81
   0 -10   0   15.49   13.57
   0  10   0   23.68   17.84
   0 -10  -1  189.06   42.05
   0 -10  -1  144.15   39.43
   0  10   1  193.26   43.97
   0  10   2  493.96   73.40
   0 -10  -2  453.48   73.84
   0 -10  -2  599.96   74.22
   0 -10  -3  870.14  106.39
   0  10   3  951.55  106.25
   0 -11   9   60.62   27.38
   0  11  -9   27.10   13.41
   0  11  -9   33.80   19.83
   0 -11   8  441.61   62.28
   0  11  -8  422.21   57.91
   0  11  -8  361.17   60.58
   0 -11   7  844.70   87.39
   0  11  -7  796.81   88.16
   0  11  -7  826.85   78.69
   0  11  -6 1282.52  108.36
   0 -11   6 1008.57   97.42
   0 -11   5 1229.87  108.51
   0  11  -5 1353.21  111.21
   0  11  -4  552.88   69.62
   0 -11   4  581.42   73.40
   0 -11   3  106.55   32.45
   0  11  -3   76.14   28.74
   0  11  -2  159.19   39.05
   0 -11   2   65.71   27.47
   0  11  -1  349.72   57.43
   0 -11   1  381.62   61.42
   0 -11   0  655.16   80.01
   0  11   0  568.11   75.27
   0  11   1  479.40   72.57
   0 -11  -1  570.04   76.89
   0  12  -7  542.14   75.56
   0 -12   7  751.76   87.15
   0  12  -6   63.80   27.30
   0 -12   6   90.82   32.31
   0  12  -5   30.95   18.72
   0 -12   5    6.91   18.03
   0  12  -4   35.23   22.31
   0 -12   4   49.77   27.42
   0  12  -3  270.48   50.88
   0 -12   3  232.14   50.25
   0  12  -2  521.23   73.24
   0 -12   2  545.09   77.13
   0  12  -1  693.33   87.42
   0 -12   1  791.20   94.11
  -1  12  -1  460.45   67.43
   1 -12   1  367.01   63.73
   1 -12   2  609.04   82.08
  -1  12  -2  734.25   83.80
   1 -12   3  782.55   91.66
  -1  12  -3  672.67   79.37
   1 -12   4 1054.51  106.14
  -1  12  -4  896.74   92.75
  -1  12  -5  749.68   84.09
   1 -12   5  805.92   92.62
   1 -12   6  217.34   47.82
  -1  12  -6  214.96   45.96
   1 -12   7   -3.28   14.85
  -1  12  -7   31.19   23.13
   1 -11  -2  116.67   37.14
   1 -11  -2  194.12   50.75
  -1  11   2  227.34   48.68
   1 -11  -1  777.17   90.46
  -1  11   1  667.65   82.20
   1 -11   0 1629.35  133.42
  -1  11   0 1617.27  127.61
   1 -11   1 1325.58  117.24
  -1  11  -1 1433.46  115.50
  -1  11  -2 1001.83   93.87
   1 -11   2  948.34   96.67
   1 -11   3  289.80   53.84
  -1  11  -3  392.34   56.65
  -1  11  -4   18.92   15.31
   1 -11   4   35.63   20.74
   1 -11   5   22.77   16.97
  -1  11  -5   33.09   18.45
   1 -11   6  301.67   52.96
  -1  11  -6  370.77   55.98
  -1  11  -7 1128.67  101.80
   1 -11   7  928.66   93.80
  -1  11  -8 1338.44  116.46
   1 -11   8 1397.81  115.58
  -1  11  -8 1392.91  109.34
  -1  11  -9  671.96   77.81
   1 -11   9  550.35   70.50
  -1  11  -9  806.62   91.39
   1 -10  -3 1391.36  132.46
  -1  10   3 1410.46  126.53
   1 -10  -2 1110.20  112.67
  -1  10   2 1098.86  106.93
   1 -10  -2 1363.30  114.80
   1 -10  -1 1058.06  105.35
  -1  10   1  957.85   94.47
   1 -10  -1 1040.94   98.55
  -1  10   0  638.20   72.48
   1 -10   0  540.64   69.54
   1 -10   1  398.49   58.48
  -1  10  -1  452.90   58.46
  -1  10  -2   11.93   10.95
   1 -10   2    2.41   11.66
   1 -10   3  447.18   60.94
  -1  10  -3  470.48   57.98
   1 -10   4  934.29   88.38
  -1  10  -4 1008.99   86.85
  -1  10  -5 1322.15  101.61
   1 -10   5 1233.95  102.60
  -1  10  -6  839.01   72.63
  -1  10  -6  873.41   81.92
   1 -10   6  660.85   73.77
  -1  10  -7  374.96   54.73
   1 -10   7  334.41   51.43
  -1  10  -7  263.93   42.17
  -1  10  -8  132.56   33.07
   1 -10   8  107.43   30.65
  -1  10  -8   77.11   25.40
  -1  10  -9   21.47   18.66
  -1  10  -9   36.63   23.73
   1 -10   9    7.42   14.64
  -1  10 -10  126.12   37.37
  -1  10 -10  250.91   47.85
  -1   9   5  897.75  104.60
   1  -9  -5 1165.03  123.52
  -1   9   4 1292.16  120.18
   1  -9  -4 1108.93  118.36
  -1   9   3 1185.51  111.72
   1  -9  -3 1263.54  120.70
   1  -9  -3 1478.16  114.36
  -1   9   2  255.18   48.16
   1  -9  -2  337.24   51.70
   1  -9  -2  293.84   54.53
  -1   9   1   20.17   18.08
   1  -9  -1   22.28   16.35
   1  -9  -1   -3.54   13.07
  -1   9   0  108.46   30.68
   1  -9   0  163.99   34.19
   1  -9   1  285.42   45.59
  -1   9  -1  421.68   52.45
  -1   9  -2  912.19   79.06
   1  -9   2 1080.17   89.45
   1  -9   3 1594.51  113.09
  -1   9  -3 1813.84  113.31
   1  -9   4  924.70   81.35
  -1   9  -4  780.51   71.89
  -1   9  -4  906.25   65.47
   1  -9   5  809.14   76.11
  -1   9  -5  786.03   64.52
  -1   9  -5  820.46   73.91
   1  -9   6    7.49   11.69
  -1   9  -6   18.89   11.14
  -1   9  -6   -4.66   10.46
  -1   9  -7  211.46   36.72
   1  -9   7  229.77   39.87
  -1   9  -7  309.40   47.24
  -1   9  -8  795.34   77.45
   1  -9   8  880.93   78.52
  -1   9  -8  833.85   83.63
  -1   9  -9 1131.32   99.37
   1  -9   9 1233.78   96.31
  -1   9  -9 1409.02  114.91
  -1   9 -10  605.63   74.20
  -1   9 -10  627.94   79.19
  -1   9 -11  850.23   93.71
  -1   9 -11  881.39  100.59
  -1   8   6  938.48   93.29
   1  -8  -6  643.07   92.63
   1  -8  -5  295.22   58.93
  -1   8   5  451.29   59.53
   1  -8  -4  226.44   49.42
   1  -8  -3    6.05   11.27
  -1   8   3   21.36   13.52
   1  -8  -3    3.14   14.03
  -1   8   2  192.79   39.56
   1  -8  -2  227.41   39.08
   1  -8  -2  290.45   50.06
   1  -8  -1  978.97   88.53
   1  -8  -1 1038.69   84.75
  -1   8   1  921.32   82.28
   1  -8   0 2029.17  130.45
  -1   8   0 2145.03  126.99
   1  -8   0 2202.66  129.33
  -1   8  -1 2109.23  122.16
   1  -8   1 2241.58  129.77
  -1   8  -2 1255.60   88.28
  -1   8  -2 1425.88   72.91
   1  -8   2 1374.67   95.96
  -1   8  -3   31.43   10.98
  -1   8  -3   12.80   11.73
   1  -8   3   20.68   12.37
   1  -8   4  138.34   29.04
  -1   8  -4  157.62   24.84
  -1   8  -4  137.78   27.53
  -1   8  -5  182.39   29.22
  -1   8  -5  174.96   31.75
   1  -8   5  216.12   35.18
   1  -8   6  703.22   65.35
  -1   8  -6  601.22   62.14
  -1   8  -6  783.91   65.39
   1  -8   7 1674.83  107.27
  -1   8  -7 1783.67  116.53
  -1   8  -7 1609.24  106.37
   1  -8   8 2143.20  126.16
  -1   8  -8 2374.01  145.27
  -1   8  -8 2320.31  137.52
   1  -8   9  739.94   66.75
  -1   8  -9  672.27   76.75
  -1   8  -9  635.37   71.14
  -1   8 -10   67.24   27.91
  -1   8 -10   29.37   18.49
  -1   8 -11    0.08   11.07
  -1   8 -11   -6.34   16.35
  -1   8 -12  160.46   40.45
  -1   8 -12  106.55   45.72
   1  -7  -7  327.39   64.91
  -1   7   7  291.12   51.87
   1  -7  -6   18.45   17.98
  -1   7   6   41.56   19.00
  -1   7   5  326.12   48.03
   1  -7  -5  214.56   48.54
   1  -7  -4 1119.14   86.16
  -1   7   4 1036.96   82.08
   1  -7  -4  926.71   97.02
   1  -7  -3 2622.24  165.21
   1  -7  -3 2819.87  147.94
  -1   7   3 2875.02  141.17
   1  -7  -2 1618.78  115.63
  -1   7   2 1401.93  106.72
   1  -7  -2 1544.72  101.83
  -1   7   2 1835.99   96.66
   1  -7  -1 1213.15   93.38
   1  -7  -1 1211.77   86.56
  -1   7   1 1175.73   88.53
  -1   7   1 1249.25   71.94
  -1   7   0  962.23   54.44
   1  -7   0  841.60   69.68
  -1   7   0  865.45   70.26
   1  -7   0  853.37   72.90
   1  -7   1  324.40   41.27
  -1   7  -1  328.72   27.33
  -1   7  -1  356.86   41.06
  -1   7  -2   15.85    9.75
  -1   7  -2   15.02    6.88
   1  -7   2  -23.88   12.82
  -1   7  -3 2202.34  114.54
   1  -7   3 2076.49  116.95
  -1   7  -3 2382.05  104.31
   1  -7   4 1467.71   93.55
  -1   7  -4 1675.85   87.47
  -1   7  -4 1504.67   91.34
   1  -7   5 1662.53   98.09
  -1   7  -5 1616.77   92.33
  -1   7  -5 1489.37   94.41
   1  -7   6 1255.82   83.83
  -1   7  -6 1191.62   86.40
  -1   7  -6 1235.42   83.33
  -1   7  -7  379.37   49.65
  -1   7  -7  431.36   49.33
   1  -7   7  413.96   45.66
   1  -7   8  220.64   32.84
  -1   7  -8  161.08   34.13
  -1   7  -8  153.67   33.03
  -1   7  -9   22.04   16.60
  -1   7  -9   41.76   20.90
  -1   7 -10  261.02   47.18
  -1   7 -10  308.21   54.73
  -1   7 -11 1439.37  142.17
  -1   7 -11 1296.30  115.03
  -1   7 -12 1616.34  135.75
  -1   7 -12 1528.25  156.67
   1  -6  -8  166.44   49.27
  -1   6   8  167.65   42.41
  -1   6   7  440.93   61.03
   1  -6  -7  347.85   65.70
   1  -6  -6 1134.02  114.23
  -1   6   6 1140.28   94.53
   1  -6  -5 1641.54  130.98
  -1   6   5 1656.99  109.10
   1  -6  -4 3024.06  147.08
   1  -6  -4 2792.53  172.64
  -1   6   4 2990.37  147.27
   1  -6  -3 2109.74  138.91
   1  -6  -3 2416.11  124.83
  -1   6   3 2475.17  120.91
  -1   6   2  334.09   35.21
   1  -6  -2  352.74   41.47
   1  -6  -2  394.92   49.65
   1  -6  -1   25.76   11.84
  -1   6   1    9.60    6.49
  -1   6   1   56.76   18.38
   1  -6  -1   20.45   13.50
   1  -6   0  484.81   49.79
   1  -6   0  519.96   48.74
  -1   6   0  581.03   37.27
  -1   6   0  568.14   50.71
  -1   6  -1  921.23   64.27
  -1   6  -1 1020.13   46.52
  -1   6  -1  987.16   49.23
   1  -6   1  935.03   66.87
  -1   6  -2 2218.39   92.70
  -1   6  -2 2031.69  103.95
  -1   6  -2 2224.87   74.85
   1  -6   2 2217.00  111.89
  -1   6  -3 1960.04  101.27
   1  -6   3 2098.27  107.75
  -1   6  -3 2179.38   95.68
   1  -6   4 1485.68   88.09
  -1   6  -4 1639.90   84.77
  -1   6  -4 1638.60   89.73
  -1   6  -5  936.65   68.21
  -1   6  -5 1020.57   67.80
   1  -6   5  956.09   66.74
  -1   6  -6  114.73   23.54
  -1   6  -6   92.42   21.80
   1  -6   6  107.31   21.44
   1  -6   6  128.93   20.40
  -1   6  -7  938.46   75.58
   1  -6   7 1027.33   69.34
  -1   6  -7 1091.10   84.40
   1  -6   8 1617.10   92.08
  -1   6  -8 1599.51  107.62
  -1   6  -8 1648.90  114.73
  -1   6  -9 1687.26  119.16
  -1   6  -9 1939.54  133.25
  -1   6 -10 1720.60  146.97
  -1   6 -10 1324.99  110.31
  -1   6 -11 1088.95  102.83
  -1   6 -11 1012.50  121.09
  -1   6 -12  656.94   99.05
  -1   6 -12  593.85   80.26
   1  -5  -9  829.26  109.80
  -1   5   9 1026.36  103.31
  -1   5   8 1673.16  126.80
   1  -5  -8 1482.99  142.56
  -1   5   7 2374.63  146.97
   1  -5  -7 2311.05  171.58
  -1   5   6 1859.74  116.98
   1  -5  -6 1476.32  128.80
  -1   5   5  286.54   40.29
   1  -5  -5  325.90   54.09
  -1   5   4  249.20   34.45
   1  -5  -4  250.22   32.41
   1  -5  -4  249.15   43.09
  -1   5   3  167.05   24.90
   1  -5  -3  134.33   14.12
   1  -5  -3  104.57   27.92
   1  -5  -3   88.16   19.19
   1  -5  -2  694.10   54.01
   1  -5  -2  720.46   33.27
  -1   5   2  783.13   51.69
   1  -5  -2  751.79   65.63
  -1   5   1 2106.10  109.62
  -1   5   1 2242.41   93.20
   1  -5  -1 2194.34  114.51
   1  -5  -1 2045.45  103.56
   1  -5   0 5335.05  205.68
   1  -5   0 5750.38  214.08
  -1   5   0 5320.44  205.77
  -1   5   0 5693.05  183.92
  -1   5  -1 2534.47   93.15
  -1   5  -1 2569.01   88.31
  -1   5  -1 2407.76  109.46
   1  -5   1 2408.80  113.02
  -1   5  -2  792.07   51.27
  -1   5  -2  728.93   42.72
   1  -5   2  714.80   51.78
  -1   5  -3  195.45   24.51
  -1   5  -3  190.72   22.26
   1  -5   3  162.90   23.19
  -1   5  -4  402.57   36.98
   1  -5   4  432.57   38.97
   1  -5   4  481.98   30.47
  -1   5  -4  431.11   39.57
   1  -5   5 1330.50   73.57
  -1   5  -5 1190.71   74.35
  -1   5  -5 1310.16   79.54
   1  -5   5 1205.47   71.34
   1  -5   6 2439.74  121.90
  -1   5  -6 2221.86  118.18
   1  -5   6 2402.98  110.45
  -1   5  -6 2458.70  126.50
  -1   5  -7 2322.84  125.26
   1  -5   7 2501.88  131.59
   1  -5   7 2285.71  108.26
  -1   5  -7 2163.03  128.50
   1  -5   8 3116.37  172.10
  -1   5  -8 3446.33  174.74
  -1   5  -8 3779.52  189.08
   1  -5   8 3892.32  151.27
  -1   5  -9 1349.97  103.02
   1  -5   9 1298.63  103.57
  -1   5  -9 1400.46  125.74
  -1   5 -10  117.06   39.83
  -1   5 -10  169.64   38.81
   1  -5  10  118.53   32.49
  -1   5 -11   -0.33   24.58
   1  -5  11    4.81   14.55
  -1   5 -11   -5.35   13.82
  -1   5 -12  110.06   39.37
  -1   5 -12  151.21   39.40
  -1   4  10 1260.55  118.94
   1  -4 -10 1170.20  133.59
   1  -4  -9  801.42  105.54
  -1   4   9 1005.33   98.28
  -1   4   8  814.35   82.49
   1  -4  -8  876.38  103.96
   1  -4  -7  617.27   83.08
   1  -4  -7  696.51   77.38
  -1   4   7  599.88   65.66
  -1   4   6    7.13   11.03
   1  -4  -6   13.47   15.05
   1  -4  -6   53.09   21.92
  -1   4   5  935.85   70.75
   1  -4  -5 1047.19   64.96
   1  -4  -5  929.46   86.55
   1  -4  -5  888.43   67.30
   1  -4  -5  814.44   83.55
   1  -4  -4 2371.90  141.70
   1  -4  -4 2591.25  113.59
  -1   4   4 2347.37  117.87
   1  -4  -4 2704.16  152.98
   1  -4  -4 2447.16  110.21
   1  -4  -3 2881.61  124.82
   1  -4  -3 2572.48  144.25
   1  -4  -3 3086.42  110.80
   1  -4  -3 3226.15  165.67
  -1   4   3 2884.40  126.10
   1  -4  -2 1631.91   95.19
   1  -4  -2 1594.75   80.76
  -1   4   2 1597.95   77.15
   1  -4  -2 1619.75   59.38
   1  -4  -1 1523.64   84.00
  -1   4   1 1535.86   67.85
   1  -4  -1 1447.25   75.44
  -1   4   0  370.53   32.12
   1  -4   0  315.85   31.83
   1  -4   0  312.35   30.04
  -1   4   0  328.15   22.64
   1  -4   1   59.50   12.81
  -1   4  -1   46.15   10.55
  -1   4  -1   56.28    8.84
  -1   4  -2  991.82   53.71
  -1   4  -2  961.12   48.94
   1  -4   2 1014.09   57.81
  -1   4  -3 3580.54  139.82
   1  -4   3 3768.88  127.49
  -1   4  -3 3844.16  139.43
   1  -4   3 3508.25  140.11
   1  -4   4 4069.00  155.99
  -1   4  -4 4149.80  161.15
   1  -4   4 4387.92  162.38
  -1   4  -4 4234.57  163.68
   1  -4   5 2961.41  140.29
  -1   4  -5 3475.97  146.36
  -1   4  -5 3165.98  139.59
   1  -4   5 3362.15  129.99
   1  -4   6 1415.06   90.15
  -1   4  -6 1565.39   95.54
  -1   4  -6 1403.67   87.02
   1  -4   6 1510.07   75.11
   1  -4   7  789.21   68.75
   1  -4   7  909.38   54.10
  -1   4  -7  748.65   65.94
  -1   4  -7  805.78   72.73
  -1   4  -8  258.34   49.50
  -1   4  -8  195.36   35.50
   1  -4   8  192.46   35.45
   1  -4   9   87.61   23.67
  -1   4  -9  129.22   31.67
  -1   4  -9   87.91   33.85
  -1   4 -10 1112.96  119.00
  -1   4 -10 1171.96  100.93
   1  -4  10 1083.22  100.08
  -1   4 -11 1881.92  140.72
   1  -4  11 1756.69  140.36
  -1   4 -11 2043.52  171.23
  -1   4 -12 1480.82  149.46
   1  -4  12 1490.88  135.56
  -1   4 -12 1608.52  135.15
  -1   3  11  805.02   95.31
   1  -3 -11  610.51   96.67
  -1   3  10  217.94   47.77
   1  -3 -10  198.85   56.03
   1  -3  -9   26.85   27.49
  -1   3   9   -8.59   13.87
   1  -3  -8  323.74   51.96
   1  -3  -8  430.80   70.34
  -1   3   8  383.38   53.52
   1  -3  -7  553.48   66.94
  -1   3   7  418.40   52.07
   1  -3  -7  476.62   70.28
   1  -3  -7  499.10   59.09
  -1   3   6 1661.38  102.67
   1  -3  -6 1831.50  125.37
   1  -3  -6 1796.25  112.92
   1  -3  -6 1534.27  124.49
  -1   3   5 2100.08  110.38
   1  -3  -5 1995.57  133.77
   1  -3  -5 2075.00  119.16
   1  -3  -5 2191.96   96.64
   1  -3  -5 2204.29  138.75
  -1   3   5 2114.72   98.54
   1  -3  -4 3814.30  160.16
   1  -3  -4 3536.42  136.51
  -1   3   4 3401.37  146.42
   1  -3  -4 3270.19  171.50
   1  -3  -4 3872.01  189.08
   1  -3  -3 1903.53  119.10
  -1   3   3 1900.54   89.35
   1  -3  -3 1922.65   85.06
   1  -3  -3 1806.02  106.17
   1  -3  -3 1922.44   87.29
   1  -3  -2   31.89   14.73
   1  -3  -2    9.13    6.04
  -1   3   2   12.71    5.74
   1  -3  -2   16.41    4.26
   1  -3  -2   21.77   11.21
  -1   3   1  863.55   42.73
   1  -3  -1  779.98   46.00
   1  -3  -1  810.56   51.98
  -1   3   0 4248.19  128.10
   1  -3   0 4040.00  147.73
   1  -3   0 4048.52  149.37
  -1   3   0 4173.96  146.14
  -1   3  -1 1986.72   78.44
  -1   3  -1 2021.98   72.70
   1  -3   1 1948.61   83.40
   1  -3   1 1988.31   80.39
  -1   3  -2 3870.04  133.65
   1  -3   2 3754.10  136.21
   1  -3   2 3562.92  128.66
   1  -3   2 3890.92  125.48
  -1   3  -2 3801.26  131.74
   1  -3   3 3053.10  114.27
   1  -3   3 3092.24  105.27
   1  -3   3 2927.49  119.96
  -1   3  -3 2983.58  117.22
  -1   3  -3 2891.68  115.91
   1  -3   4 2280.99   82.07
   1  -3   4 2484.83   96.15
  -1   3  -4 2442.56  107.83
  -1   3  -4 2278.99  103.46
   1  -3   4 2205.44  107.28
   1  -3   5  961.51   52.16
   1  -3   5 1005.80   39.44
  -1   3  -5 1029.30   65.90
   1  -3   5  944.03   65.87
  -1   3  -5  981.36   68.50
   1  -3   6  514.23   35.18
   1  -3   6  402.18   44.24
  -1   3  -6  491.02   47.59
   1  -3   7 1992.66  119.15
   1  -3   7 2400.63   94.14
  -1   3  -7 2054.09  119.30
  -1   3  -7 2138.54  144.55
  -1   3  -8 2923.45  184.47
  -1   3  -8 3105.89  158.98
   1  -3   8 2780.19  154.23
  -1   3  -9 1993.68  155.58
  -1   3  -9 1768.91  124.29
   1  -3   9 2058.62  133.77
  -1   3  -9 2010.91  130.23
  -1   3 -10 1111.23  119.31
   1  -3  10 1291.21  110.09
  -1   3 -10 1288.30  108.09
  -1   3 -11  901.61  110.97
  -1   3 -11  962.18   98.95
   1  -3  11  978.06  102.29
   1  -3  12  575.04   83.18
  -1   3 -12  394.89   75.85
  -1   3 -12  582.40   79.86
  -1   2  11   32.70   26.50
   1  -2 -11   18.47   25.20
  -1   2  10  244.54   47.14
   1  -2 -10  299.40   63.42
   1  -2  -9 1153.74  122.28
  -1   2   9 1186.95  100.31
  -1   2   8 2184.64  134.48
   1  -2  -8 2110.51  163.55
   1  -2  -8 2401.09  151.61
   1  -2  -8 2559.32  145.43
   1  -2  -7 3027.45  172.56
  -1   2   7 2964.85  151.34
   1  -2  -7 3121.13  157.75
   1  -2  -7 2784.32  183.29
   1  -2  -6 1088.38  100.41
   1  -2  -6 1393.65   88.54
   1  -2  -6 1168.90   97.90
  -1   2   6 1148.65   79.59
   1  -2  -5  274.11   44.41
   1  -2  -5  348.97   50.07
   1  -2  -5  347.26   38.02
   1  -2  -5  299.11   26.11
  -1   2   5  256.45   21.53
  -1   2   5  366.26   37.74
   1  -2  -4   73.63   22.96
  -1   2   4   38.64   11.37
   1  -2  -4   52.39   10.94
   1  -2  -4   46.65   18.87
   1  -2  -4   37.12   11.77
  -1   2   4   29.51   10.83
   1  -2  -3 1036.37   56.17
  -1   2   3  969.71   54.88
   1  -2  -3  971.11   49.37
   1  -2  -3 1064.86   80.89
   1  -2  -3  896.75   67.51
   1  -2  -2 2140.05   82.73
   1  -2  -2 2071.84  112.77
  -1   2   2 2106.42   84.10
   1  -2  -2 1982.79   96.39
   1  -2  -2 2125.75   82.71
   1  -2  -1 2589.64   94.74
   1  -2  -1 2581.70  100.65
   1  -2  -1 2518.00   94.39
   1  -2  -1 2444.05  116.93
  -1   2   0 5350.42  167.29
  -1   2   0 5330.30  156.63
   1  -2   0 5448.29  171.65
   1  -2   0 5029.87  171.54
   1  -2   0 5106.18  169.78
  -1   2  -1 3686.51  119.54
   1  -2   1 3700.60  125.61
   1  -2   1 3596.65  120.98
  -1   2  -1 3608.98  118.68
  -1   2  -2  254.50   20.55
   1  -2   2  223.21   22.59
   1  -2   2  221.48   19.15
   1  -2   2  235.99   16.56
  -1   2  -2  219.97   19.82
   1  -2   3  724.85   38.59
   1  -2   3  651.72   46.61
   1  -2   3  780.10   33.75
  -1   2  -3  763.86   47.18
  -1   2  -3  760.75   45.79
   1  -2   4  657.81   36.65
   1  -2   4  665.07   30.20
  -1   2  -4  566.70   44.37
  -1   2  -4  646.02   50.28
   1  -2   4  725.86   50.68
   1  -2   5 2141.57  105.00
  -1   2  -5 1868.72   99.81
   1  -2   5 2100.95   81.04
   1  -2   5 1971.37   71.83
  -1   2  -5 2064.20  123.48
  -1   2  -6 3763.77  176.98
   1  -2   6 4853.34  138.51
   1  -2   6 4094.81  181.25
  -1   2  -6 3825.79  206.29
   1  -2   6 3963.73  147.03
  -1   2  -7 3833.41  215.43
  -1   2  -7 4320.13  191.63
   1  -2   7 4349.27  191.38
  -1   2  -8 2567.07  139.16
  -1   2  -8 2247.25  136.85
   1  -2   8 2607.34  143.45
  -1   2  -8 2250.14  162.12
  -1   2  -9 1125.92   95.54
   1  -2   9 1003.09   90.37
  -1   2  -9  981.46  107.84
  -1   2 -10   28.92   24.19
   1  -2  10   67.63   28.37
  -1   2 -10   39.42   21.63
  -1   2 -11  -61.53   32.63
  -1   2 -11  -11.87   20.62
   1  -2  11   -5.35   13.13
   1  -2  12  142.43   44.26
  -1   2 -12  147.16   42.55
  -1   2 -12   95.17   40.11
  -1   1  12  903.27  102.57
   1  -1 -12  954.66  119.80
  -1   1  11 1514.01  124.64
   1  -1 -11 1090.15  126.79
   1  -1 -10 1195.87  104.06
  -1   1  10 1213.01  104.15
   1  -1 -10 1049.38  120.14
   1  -1  -9 1475.09  115.77
   1  -1  -9 1359.82  132.70
   1  -1  -9 1494.72  109.54
  -1   1   9 1296.69  102.33
   1  -1  -8  770.83   71.24
   1  -1  -8  865.42   84.92
   1  -1  -8  802.78   95.83
  -1   1   8  824.98   72.88
   1  -1  -7  254.19   44.52
   1  -1  -7  315.68   57.51
  -1   1   7  253.22   35.92
   1  -1  -7  286.40   38.45
   1  -1  -6   47.29   18.89
   1  -1  -6  126.53   33.09
   1  -1  -6  114.87   21.75
  -1   1   6   73.73   17.99
  -1   1   5 1743.82   90.02
  -1   1   5 1758.08   61.17
   1  -1  -5 1696.55  118.52
   1  -1  -5 1839.00   89.70
   1  -1  -5 1750.60  116.39
   1  -1  -4 5357.82  178.73
  -1   1   4 4864.97  180.06
   1  -1  -4 4963.39  215.79
  -1   1   4 4779.70  161.40
   1  -1  -4 5509.15  221.99
   1  -1  -3 1550.09   93.72
  -1   1   3 1587.44   70.63
  -1   1   3 1502.30   69.69
   1  -1  -3 1626.56   66.90
   1  -1  -3 1409.71   86.51
   1  -1  -3 1619.11   66.29
  -1   1   2  283.50   24.75
   1  -1  -2  200.23   28.16
   1  -1  -2  232.68   18.33
   1  -1  -2  216.20   14.69
   1  -1  -2  217.55   17.01
   1  -1  -2  207.50   23.97
   1  -1  -1 1737.58   81.60
   1  -1  -1 1672.80   63.60
   1  -1  -1 1625.20   61.05
   1  -1  -1 1621.41   64.87
  -1   1  -1  275.81   19.88
   1  -1   1  304.61   18.14
   1  -1   1  281.81   22.43
   1  -1   1  311.00   20.29
   1  -1   2 3127.77  104.69
  -1   1  -2 2896.77  111.16
   1  -1   2 2944.29  117.37
  -1   1  -3 5811.25  208.92
   1  -1   3 6356.84  194.15
   1  -1   3 6425.87  213.79
  -1   1  -3 5356.44  223.70
  -1   1  -4 7333.86  281.55
  -1   1  -4 7129.22  251.49
   1  -1   4 7064.18  249.82
  -1   1  -5 4307.81  210.66
   1  -1   5 4705.03  183.90
  -1   1  -5 4551.31  184.93
   1  -1   6 1396.59   89.23
  -1   1  -6 1412.19   91.31
  -1   1  -6 1526.09  115.64
  -1   1  -6 1496.01   58.50
  -1   1  -6 1346.28   85.36
  -1   1  -7  398.77   61.29
   1  -1   7  599.87   58.45
  -1   1  -7  517.24   56.94
  -1   1  -7  525.74   52.68
  -1   1  -8   23.24   17.68
   1  -1   8   76.45   24.27
  -1   1  -8   89.06   23.84
  -1   1  -8   85.38   26.36
  -1   1  -9   63.61   26.49
  -1   1  -9   51.88   26.51
   1  -1   9   72.59   27.04
  -1   1 -10  590.60   87.47
  -1   1 -10  573.12   73.44
   1  -1  10  575.21   73.82
  -1   1 -11 1325.93  137.26
   1  -1  11 1121.12  114.37
  -1   1 -11 1402.43  124.76
   1  -1  12 1365.39  134.55
  -1   1 -12 1342.37  142.41
  -1   1 -12 1323.08  127.57
   1   0 -12 1317.27  143.43
  -1   0  12 1558.18  132.35
   1   0 -11 1158.98  129.45
   1   0 -11 1286.25  111.63
  -1   0  11 1184.89  107.43
   1   0 -10  396.78   71.83
  -1   0  10  283.82   47.58
   1   0 -10  385.64   55.38
   1   0  -9   39.73   20.40
   1   0  -9  101.60   35.20
  -1   0   9   60.22   22.39
   1   0  -9   86.43   25.35
   1   0  -8  648.55   61.14
  -1   0   8  527.23   56.75
   1   0  -8  503.89   73.81
   1   0  -8  737.47   77.93
   1   0  -7  821.68   79.22
   1   0  -7  725.49   60.00
  -1   0   7  689.27   58.79
   1   0  -7  701.21   81.78
   1   0  -6 1068.31   86.74
  -1   0   6 1033.11   67.78
   1   0  -6  990.04   65.57
   1   0  -6 1081.09   96.95
   1   0  -5 4134.73  152.79
  -1   0   5 3941.72  123.60
   1   0  -5 3349.73  185.45
  -1   0   5 3742.56  151.52
   1   0  -5 4155.64  184.67
   1   0  -4 1503.86  101.08
  -1   0   4 1855.12   64.83
   1   0  -4 1904.99   79.71
   1   0  -4 1769.73  100.01
  -1   0   4 1645.17   79.10
   1   0  -3  568.72   47.02
   1   0  -3  634.40   34.83
   1   0  -3  661.66   29.54
  -1   0   3  682.17   32.08
   1   0  -3  718.90   55.14
  -1   0   3  665.92   37.61
  -1   0   2  164.62   14.71
   1   0  -2  194.89   22.59
   1   0  -2  182.91   13.61
   1   0  -2  225.11   13.63
   1   0  -2  291.54   27.00
  -1   0  -1 9999.00  304.81
  -1   0  -1 9302.92  292.71
  -1   0  -2 4456.29  148.41
  -1   0  -2 4560.36  170.38
  -1   0  -2 4912.62  153.02
  -1   0  -2 4771.98  185.22
   1   0   2 5055.60  168.71
  -1   0  -3 5253.57  194.48
  -1   0  -3 4659.95  211.29
  -1   0  -3 5192.98  161.99
   1   0   3 5295.69  188.62
  -1   0  -3 5465.59  178.18
  -1   0  -4 2327.29  102.97
  -1   0  -4 2284.19  112.67
  -1   0  -4 2093.14  131.03
   1   0   4 2367.09  108.48
  -1   0  -5  163.51   24.98
  -1   0  -5  141.57   33.36
  -1   0  -5  189.15   30.22
   1   0   5  172.45   27.61
  -1   0  -6  147.66   37.00
  -1   0  -6  124.92   27.46
   1   0   6  122.69   25.16
  -1   0  -6  177.18   28.14
  -1   0  -7 1818.94  105.46
  -1   0  -7 1708.32  114.59
  -1   0  -7 1685.19  136.13
   1   0   7 1723.94  110.89
   1   0   8 1753.64  118.52
  -1   0  -8 1489.15  133.39
  -1   0  -8 1706.10  121.50
  -1   0  -9 1209.05  123.53
   1   0   9 1344.26  108.29
  -1   0  -9 1129.77  103.93
   1   0  10  843.13   93.14
  -1   0 -10 1034.89  116.48
  -1   0 -10  923.19   96.72
  -1   0 -11  878.09  111.07
  -1   0 -11  891.51   99.59
   1   0  11  839.56  100.45
  -1   0 -12  388.38   76.08
   1   0  12  335.03   67.48
  -1   0 -12  442.24   73.59
   1   1 -12   48.62   28.14
  -1  -1  12   46.50   22.62
   1   1 -12  102.43   31.62
   1   1 -11   11.63   18.96
  -1  -1  11   27.75   15.12
   1   1 -11   13.98   14.23
   1   1 -10  676.24   92.80
   1   1 -10  643.19   77.21
   1   1 -10  569.16   65.36
  -1  -1  10  545.98   64.27
   1   1  -9 1946.21  157.77
   1   1  -9 2212.85  128.45
  -1  -1   9 2013.08  123.83
   1   1  -9 2058.68  142.75
   1   1  -8 2135.79  159.11
   1   1  -8 2292.40  145.41
  -1  -1   8 2362.40  126.13
   1   1  -8 2445.55  128.16
   1   1  -7 1939.80  102.42
   1   1  -7 1761.91  118.76
  -1  -1   7 1723.24   97.37
   1   1  -7 1720.89  131.22
   1   1  -6  752.98   76.85
   1   1  -6  704.43   52.35
  -1  -1   6  716.03   52.19
   1   1  -6  672.38   65.26
   1   1  -5   11.71   11.55
  -1  -1   5    6.46    6.76
   1   1  -5   19.56   11.73
  -1  -1   5   18.47    3.84
  -1  -1   5   17.94    5.31
   1   1  -5   18.13    9.00
   1   1  -4  345.39   41.60
  -1  -1   4  348.64   22.67
   1   1  -4  330.32   34.26
  -1  -1   4  336.49   18.85
   1   1  -4  331.51   27.52
  -1  -1   4  299.22   25.73
   1   1  -4  334.03   15.48
  -1  -1   3  956.89   45.20
   1   1  -3 1028.16   35.71
  -1  -1   3 1024.55   44.46
   1   1  -3  870.58   51.92
  -1  -1   3 1005.30   40.92
   1   1  -3  980.11   46.84
   1   1  -2 4495.69  145.17
  -1  -1   2 4311.29  142.34
  -1  -1   0 7745.00  235.81
  -1  -1  -1 3061.28  124.22
  -1  -1  -1 3128.93  102.95
  -1  -1  -1 3502.64  124.54
   1   1   1 2977.82  116.22
  -1  -1  -2  103.29    9.13
  -1  -1  -2   99.02   10.63
  -1  -1  -2  159.64   24.80
  -1  -1  -2  131.05   22.81
  -1  -1  -2  120.25   13.94
   1   1   2  172.87   20.46
  -1  -1  -3  528.36   48.54
   1   1   3  485.79   40.24
  -1  -1  -3  517.21   37.29
  -1  -1  -3  526.84   54.75
  -1  -1  -3  529.48   26.88
  -1  -1  -4  783.35   33.82
   1   1   4  786.54   57.29
  -1  -1  -4  784.76   64.72
  -1  -1  -4  830.56   78.36
  -1  -1  -4  843.29   55.64
  -1  -1  -5 1261.84   75.50
  -1  -1  -5 1306.67  107.19
  -1  -1  -5 1249.37   88.69
  -1  -1  -5 1133.62   41.12
   1   1   5 1199.08   79.48
  -1  -1  -6 2857.92  181.17
   1   1   6 2662.29  141.41
  -1  -1  -6 2957.11  136.66
  -1  -1  -6 2742.91  152.52
  -1  -1  -7 3942.49  201.68
   1   1   7 4050.22  193.92
  -1  -1  -7 4181.47  234.99
   1   1   8 2952.96  165.03
  -1  -1  -8 2531.82  184.82
  -1  -1  -8 2748.98  167.41
  -1  -1  -9  671.57   90.70
   1   1   9  638.43   77.04
  -1  -1  -9  684.13   80.42
  -1  -1 -10   32.79   24.42
   1   1  10    3.06   16.68
  -1  -1 -10   -8.05   21.42
   1   1  11  -18.74   25.37
  -1  -1 -11   15.31   25.60
  -1  -1 -11   35.75   24.97
  -1  -2  13  499.50   75.02
   1   2 -13  586.04   80.52
   1   2 -13  503.60   89.41
  -1  -2  12 1448.22  121.90
   1   2 -12 1341.07  143.04
   1   2 -12 1356.22  117.40
   1   2 -11 1673.08  133.70
  -1  -2  11 1494.35  116.96
   1   2 -11 1621.86  120.85
   1   2 -11 1385.21  144.37
   1   2 -10  853.05  103.68
   1   2 -10  803.26   77.55
   1   2 -10  818.10   89.33
  -1  -2  10  831.43   78.30
  -1  -2   9  563.95   58.92
   1   2  -9  683.73   65.52
   1   2  -9  667.47   75.22
   1   2  -9  600.78   83.40
   1   2  -8  541.59   74.57
   1   2  -8  663.20   59.12
  -1  -2   8  611.71   55.40
   1   2  -8  513.12   64.01
   1   2  -7   25.50   18.06
  -1  -2   7   13.44    3.68
   1   2  -7   16.51   10.36
  -1  -2   7    5.02    7.43
   1   2  -7   -2.70    7.68
  -1  -2   6  325.56   32.55
   1   2  -6  358.02   50.68
  -1  -2   6  325.10   21.22
   1   2  -6  307.89   33.52
   1   2  -5 3309.49  145.60
  -1  -2   5 3311.59  126.29
   1   2  -5 3005.33  128.89
  -1  -2   5 3377.78  112.53
   1   2  -4 4627.17  177.26
  -1  -2   4 4799.86  157.07
   1   2  -4 4880.81  169.51
  -1  -2   4 5010.50  163.23
  -1  -2   4 4681.36  160.94
  -1  -2   3 5008.39  159.28
  -1  -2   3 4810.04  153.06
   1   2  -3 4814.18  168.01
  -1  -2   3 4659.18  161.57
   1   2  -2 2415.64   91.33
  -1  -2   2 2454.87   92.18
  -1  -2   2 2430.52   90.06
  -1  -2   1  368.06   22.99
   1   2  -1  364.17   25.52
   1   2  -1  373.01   19.63
  -1  -2   1  376.13   25.49
  -1  -2   1  361.28   25.24
  -1  -2   0  816.88   46.14
   1   2   0  875.52   47.38
  -1  -2   0 1026.70   46.19
  -1  -2   0  901.14   44.30
  -1  -2   0  919.53   43.91
  -1  -2  -1  662.04   43.46
  -1  -2  -1  684.07   35.04
   1   2   1  729.96   43.82
  -1  -2  -1  654.47   46.49
  -1  -2  -1  588.95   34.89
  -1  -2  -2 3335.71  143.86
   1   2   2 3359.09  130.05
  -1  -2  -2 3150.67  113.30
  -1  -2  -2 2987.27  141.82
  -1  -2  -3 6977.33  233.17
  -1  -2  -3 6543.92  214.91
  -1  -2  -3 7449.83  270.89
  -1  -2  -3 6339.90  265.61
   1   2   3 6912.52  242.56
   1   2   4 5772.12  228.59
  -1  -2  -4 6773.02  224.78
  -1  -2  -4 6086.26  254.13
  -1  -2  -4 6039.18  195.30
  -1  -2  -4 5638.62  260.32
  -1  -2  -5 2899.17  129.94
  -1  -2  -5 2885.82   99.87
  -1  -2  -5 2695.05  153.65
   1   2   5 2554.78  136.29
  -1  -2  -5 2989.83  174.37
   1   2   6 1545.66  103.20
  -1  -2  -6 1587.36  129.77
  -1  -2  -6 1715.89   95.21
  -1  -2  -6 1522.58  113.12
  -1  -2  -7  580.81   70.03
  -1  -2  -7  409.11   70.21
   1   2   7  543.82   62.67
  -1  -2  -8   39.19   23.65
   1   2   8   19.91   17.03
  -1  -2  -8   21.67   22.47
   1   2   9  265.51   50.74
  -1  -2  -9  246.36   49.05
  -1  -2  -9  162.08   46.61
  -1  -2 -10  507.54   83.51
   1   2  10  572.32   79.51
  -1  -2 -11  939.15  118.07
   1   2  11  885.20  107.92
   1   3 -13 1200.81  138.48
  -1  -3  13 1351.40  123.47
   1   3 -13 1144.42  112.83
   1   3 -12  847.97  113.91
   1   3 -12 1120.46  104.25
  -1  -3  12 1145.88  104.33
   1   3 -11  446.34   78.58
  -1  -3  11  398.12   56.21
   1   3 -11  351.92   61.09
   1   3 -11  504.38   63.40
   1   3 -10   42.02   25.76
   1   3 -10   66.82   25.77
  -1  -3  10   70.76   24.19
   1   3 -10   52.82   21.42
   1   3  -9  176.99   41.72
   1   3  -9  210.54   47.11
   1   3  -9  184.97   34.49
  -1  -3   9  178.56   31.16
   1   3  -8 1129.79  106.01
   1   3  -8  984.62   75.52
  -1  -3   8 1099.08   74.55
  -1  -3   7 1370.31   61.00
   1   3  -7 1385.99   96.68
  -1  -3   7 1296.93   76.51
   1   3  -7 1348.40   83.39
   1   3  -6 2082.51  104.98
  -1  -3   6 2184.42   98.03
   1   3  -6 2253.60  118.46
  -1  -3   6 2240.16   87.97
   1   3  -5 3678.20  145.38
  -1  -3   5 3581.34  132.82
  -1  -3   5 3987.23  134.18
   1   3  -5 3312.49  150.35
   1   3  -4 2651.75  119.22
   1   3  -4 2801.52  115.12
  -1  -3   4 3207.45  112.68
  -1  -3   4 2924.68  102.91
  -1  -3   3  142.91   18.33
  -1  -3   3  114.29   15.53
  -1  -3   3  136.34   10.38
   1   3  -3  124.69   17.20
  -1  -3   2 1470.82   68.66
  -1  -3   2 1394.32   66.06
   1   3  -2 1433.23   67.38
  -1  -3   1 4928.64  164.13
   1   3  -1 5535.35  178.66
   1   3  -1 4901.31  162.48
  -1  -3   1 4998.04  171.84
  -1  -3   1 4680.29  172.04
  -1  -3   1 4883.71  171.93
  -1  -3   0 7569.26  243.26
   1   3   0 6759.01  241.45
  -1  -3   0 7727.26  238.56
  -1  -3   0 7636.10  252.28
  -1  -3  -1 4597.49  164.85
  -1  -3  -1 4707.23  184.16
  -1  -3  -1 4677.96  169.24
   1   3   1 4882.55  171.09
  -1  -3  -2 4873.85  174.70
   1   3   2 5233.63  189.26
  -1  -3  -2 5020.74  193.19
  -1  -3  -2 5118.52  208.66
  -1  -3  -3 4051.10  175.57
  -1  -3  -3 3751.89  182.98
   1   3   3 3889.52  160.22
  -1  -3  -3 3660.42  138.77
  -1  -3  -4 1355.27   65.99
   1   3   4 1366.90   86.52
  -1  -3  -4 1241.50  101.88
  -1  -3  -4 1477.98  102.62
  -1  -3  -5  136.36   23.50
  -1  -3  -5  149.24   35.74
  -1  -3  -5  124.75   30.96
   1   3   5  180.24   31.18
  -1  -3  -5  188.27   20.01
   1   3   6  226.94   38.57
  -1  -3  -6  226.23   49.36
  -1  -3  -6  319.40   50.64
  -1  -3  -7  970.67  107.45
   1   3   7 1097.06   95.37
  -1  -3  -7 1108.18   99.47
  -1  -3  -8 1332.22  115.05
  -1  -3  -8 1372.43  134.95
   1   3   8 1342.93  113.45
   1   3   9  690.54   85.52
  -1  -3  -9  579.44   90.50
  -1  -3 -10  693.45  100.71
   1   3  10  812.15   98.95
  -1  -4  13   12.83   16.24
   1   4 -13   -2.95   19.32
   1   4 -13  -26.68   25.23
  -1  -4  12   -3.72   13.11
   1   4 -12   20.08   16.92
   1   4 -12   -7.81   14.42
   1   4 -12  -38.72   29.10
   1   4 -11   95.20   36.03
   1   4 -11   61.18   23.73
   1   4 -11   31.97   27.19
  -1  -4  11   38.06   17.07
  -1  -4  10  845.03   74.16
   1   4 -10  787.90   98.58
   1   4 -10  663.24   69.70
   1   4  -9 2268.14  162.54
  -1  -4   9 2176.08  118.49
   1   4  -9 1817.21  117.20
   1   4  -8 2306.16  144.12
  -1  -4   8 2690.40  106.66
   1   4  -8 2640.37  135.55
  -1  -4   8 2587.88  124.93
  -1  -4   7 1066.94   65.65
   1   4  -7 1141.73   83.96
  -1  -4   7 1122.46   59.29
   1   4  -7  991.80   71.81
  -1  -4   6  209.08   23.19
   1   4  -6  214.85   31.54
  -1  -4   6  207.47   22.94
   1   4  -6  167.44   25.29
  -1  -4   5  581.02   41.53
  -1  -4   5  627.75   36.54
   1   4  -5  577.38   45.37
   1   4  -5  556.96   48.13
  -1  -4   4 1541.58   76.52
   1   4  -4 1599.12   83.63
  -1  -4   4 1647.73   60.66
   1   4  -3 1630.66   79.34
  -1  -4   3 1421.48   73.87
   1   4  -2 4663.39  175.30
  -1  -4   2 4874.00  174.91
   1   4  -1 6222.65  217.37
  -1  -4   1 6396.87  233.06
  -1  -4   1 6946.94  231.97
  -1  -4   1 7239.54  220.89
   1   4  -1 6629.49  235.59
  -1  -4   0 4918.16  195.31
   1   4   0 4952.87  181.74
  -1  -4   0 5235.37  187.04
  -1  -4   0 5399.20  178.05
   1   4   0 5111.10  198.04
  -1  -4  -1 1224.26   81.68
  -1  -4  -1 1342.39   71.85
  -1  -4  -1 1359.74   69.41
   1   4   1 1470.95   74.73
  -1  -4  -2   61.53   14.60
  -1  -4  -2   71.45   15.37
  -1  -4  -2   79.17   20.94
   1   4   2  102.15   19.26
   1   4   3  192.13   29.09
  -1  -4  -3  228.79   26.04
  -1  -4  -3  176.84   28.87
  -1  -4  -3  188.14   35.63
  -1  -4  -4  441.17   51.04
  -1  -4  -4  479.67   38.99
  -1  -4  -4  419.09   58.92
   1   4   4  420.19   47.30
   1   4   5  905.56   76.85
  -1  -4  -5  648.33   80.48
  -1  -4  -5  960.28   84.17
  -1  -4  -6 2048.56  158.13
  -1  -4  -6 2374.24  150.78
   1   4   6 2366.65  142.35
  -1  -4  -7 1648.54  149.18
   1   4   7 2010.45  137.02
   1   4   8 1102.12  106.46
  -1  -4  -8 1100.29  123.89
  -1  -4  -9  205.27   54.85
   1   4   9  174.11   45.78
   1   5 -13  436.19   84.66
   1   5 -13  615.83   80.67
   1   5 -12 1024.09  114.17
   1   5 -12  886.38   92.03
   1   5 -12  755.58  108.62
   1   5 -11  876.18   86.45
   1   5 -11  937.91  114.75
   1   5 -10  374.12   68.28
  -1  -5  10  621.62   61.67
   1   5 -10  638.98   67.45
   1   5  -9  211.66   42.20
  -1  -5   9  210.32   32.52
   1   5  -9  169.49   32.14
   1   5  -8   87.70   24.91
   1   5  -8  122.10   27.53
  -1  -5   8   97.70   17.57
  -1  -5   8   81.71   18.58
   1   5  -7   18.00   13.44
  -1  -5   7   16.48    8.14
  -1  -5   7   -3.53    5.72
   1   5  -7   27.15   14.79
   1   5  -6 1919.49  110.36
  -1  -5   6 2022.38   97.41
   1   5  -6 1888.03  102.95
  -1  -5   6 2185.05   89.06
  -1  -5   5 4778.01  150.40
  -1  -5   5 4247.09  170.48
   1   5  -5 4113.91  179.86
   1   5  -5 4384.98  174.56
  -1  -5   4 3674.71  150.57
   1   5  -4 3826.93  157.32
   1   5  -3 2862.82  128.09
  -1  -5   3 2934.92  126.24
   1   5  -2 1846.55   94.22
  -1  -5   2 1701.13   89.22
  -1  -5   1 1014.58   63.60
   1   5  -1  860.80   52.59
   1   5  -1  963.31   66.02
  -1  -5   1 1020.13   68.25
  -1  -5   0   20.88    7.51
  -1  -5   0   13.80   11.29
   1   5   0    8.09    4.71
  -1  -5   0   16.11   10.02
   1   5   0   17.68   10.94
  -1  -5  -1  373.14   37.78
   1   5   1  402.48   38.79
  -1  -5  -1  430.91   35.44
  -1  -5  -1  353.08   44.60
  -1  -5  -2 1982.99   98.40
  -1  -5  -2 1860.78  121.98
  -1  -5  -2 2071.58  103.60
   1   5   2 2260.80  110.97
  -1  -5  -3 3337.98  180.66
  -1  -5  -3 3216.50  141.99
   1   5   3 3410.96  157.32
  -1  -5  -3 3229.85  147.07
  -1  -5  -4 2883.25  142.61
  -1  -5  -4 2662.92  170.53
   1   5   4 2986.20  150.58
  -1  -5  -4 2545.00  123.40
   1   5   5 1767.29  118.34
  -1  -5  -5 1648.17  136.54
   1   5   6  336.51   52.14
  -1  -5  -6  276.04   55.72
  -1  -5  -7  109.95   37.59
   1   5   7   68.97   27.55
  -1  -5  -8   15.18   19.66
   1   5   8   -2.15   15.63
   1   5   9  293.84   60.41
  -1  -5  -9   91.85   39.16
   1   6 -13  626.98   82.49
   1   6 -13  800.31  113.33
   1   6 -13  553.54   90.05
   1   6 -12  861.31  114.40
   1   6 -12  867.84   91.90
   1   6 -11  252.54   57.38
   1   6 -11  191.72   40.97
   1   6 -10  106.04   33.05
   1   6 -10  160.61   35.45
   1   6  -9  500.29   59.06
   1   6  -9  554.52   67.30
   1   6  -8  927.28   75.97
   1   6  -8  873.88   80.71
  -1  -6   8  988.28   66.05
  -1  -6   7 1773.16   95.87
   1   6  -7 1751.37  112.12
   1   6  -7 1888.83  107.58
   1   6  -6 2971.15  145.90
   1   6  -6 2743.62  132.84
  -1  -6   6 2791.41  129.75
   1   6  -5 2157.05  107.17
   1   6  -5 2207.71  116.65
  -1  -6   5 2147.45  109.39
  -1  -6   4 1041.68   69.47
   1   6  -4 1005.55   70.88
   1   6  -3   69.42   18.41
  -1  -6   3   57.29   16.71
  -1  -6   2  579.32   51.51
   1   6  -2  635.62   54.63
   1   6  -1 2158.47  118.53
  -1  -6   1 2335.37  116.69
  -1  -6   1 2464.70  125.00
   1   6  -1 2188.64  101.24
  -1  -6   0 3180.89  156.33
   1   6   0 2968.23  152.31
   1   6   0 2966.92  134.43
  -1  -6   0 3183.34  125.00
  -1  -6   0 3077.32  142.77
  -1  -6  -1 1870.33   87.67
   1   6   1 1598.59  111.69
   1   6   1 1967.41  102.29
  -1  -6  -1 1609.16  110.63
  -1  -6  -1 1757.82  100.16
  -1  -6  -2 2001.70  135.93
   1   6   2 2397.42  124.31
  -1  -6  -2 2264.21  105.66
  -1  -6  -2 2276.72  117.99
  -1  -6  -3 2203.55  146.77
  -1  -6  -3 1959.85  110.26
  -1  -6  -3 2083.58  106.41
   1   6   3 2138.90  123.39
   1   6   4  819.57   76.18
  -1  -6  -4  793.37   64.20
  -1  -6  -4  754.71   87.68
   1   6   5   -3.30   11.22
  -1  -6  -5   -2.73   18.98
   1   6   6  371.17   58.06
  -1  -6  -6  343.51   65.32
  -1  -6  -7  550.18   87.34
   1   6   7  667.33   84.13
  -1  -6  -8  523.60   87.21
   1   6   8  501.95   77.07
   1   7 -12   32.34   27.50
   1   7 -12    1.83   15.82
   1   7 -11  318.01   52.01
   1   7 -11  247.12   51.48
   1   7 -10  928.74   95.06
   1   7 -10  896.70   84.90
   1   7  -9 2022.90  126.52
  -1  -7   9 1996.34  108.19
   1   7  -9 1607.98  124.88
  -1  -7   8 1757.26  101.18
   1   7  -8 1521.79  105.56
   1   7  -8 1917.79  124.64
  -1  -7   7 1111.25   78.33
   1   7  -7 1291.14   87.77
   1   7  -7 1140.45   89.82
  -1  -7   6    9.62    8.29
   1   7  -6    3.21   11.10
   1   7  -6    5.80   10.51
   1   7  -5  464.49   45.38
  -1  -7   5  445.89   46.72
   1   7  -5  423.75   48.66
   1   7  -4  581.40   57.18
  -1  -7   4  610.78   55.78
  -1  -7   3 1474.54   92.39
   1   7  -3 1430.14   93.34
   1   7  -2 2232.13  123.54
  -1  -7   2 2222.95  120.90
  -1  -7   1 4320.97  196.24
  -1  -7   1 4285.63  187.57
   1   7  -1 4054.99  191.32
  -1  -7   0 2208.90  124.18
   1   7   0 2320.46  136.44
  -1  -7   0 2432.28  139.84
   1   7   1  937.78   87.06
  -1  -7  -1 1035.84   62.55
  -1  -7  -1 1029.48   90.67
  -1  -7  -1 1222.45   84.74
   1   7   1 1078.24   79.74
  -1  -7  -2  104.24   30.98
   1   7   2  110.15   25.30
   1   7   2  136.71   35.45
  -1  -7  -2  139.44   28.13
  -1  -7  -3  154.65   30.34
   1   7   3  209.02   37.60
  -1  -7  -3  162.51   40.01
  -1  -7  -4  239.94   52.02
   1   7   4  211.57   41.33
   1   7   5  797.51   85.52
  -1  -7  -5  723.37   94.82
  -1  -7  -6  976.80  115.75
   1   7   6 1029.98  105.07
   1   7   7  835.67   99.38
  -1  -7  -7  590.65   93.49
   1   8 -12  913.85   96.95
   1   8 -12  965.30  109.69
   1   8 -11  783.43   85.54
   1   8 -11  857.42   97.41
   1   8 -10  453.37   61.55
   1   8 -10  424.89   64.86
  -1  -8   9  157.62   29.92
   1   8  -9  249.22   42.45
   1   8  -9  219.02   43.17
   1   8  -8   13.12   12.84
   1   8  -8   15.31   13.48
  -1  -8   8   17.67   11.23
   1   8  -7  138.23   32.54
  -1  -8   7   93.88   23.91
   1   8  -7  108.80   24.32
  -1  -8   6 1914.30  115.55
   1   8  -6 2057.19  114.52
   1   8  -6 1852.25  120.23
   1   8  -5 2780.99  151.71
  -1  -8   5 2942.74  149.84
   1   8  -5 2887.55  138.72
  -1  -8   4 2834.27  147.53
   1   8  -4 2786.31  149.70
  -1  -8   3 1927.92  118.34
   1   8  -3 2057.58  122.68
   1   8  -2 1075.68   85.65
  -1  -8   2  983.97   80.41
  -1  -8   1  681.02   66.33
   1   8  -1  757.01   73.69
  -1  -8   0   46.20   17.57
   1   8   0   31.41   19.95
  -1  -8   0   36.76   20.18
  -1  -8  -1  266.94   41.84
   1   8   1  313.67   50.83
  -1  -8  -1  302.84   51.80
  -1  -8  -2 1499.91  127.26
   1   8   2 1577.97  128.74
  -1  -8  -2 1732.39  113.80
  -1  -8  -3 1600.93  110.49
  -1  -8  -3 1636.93  138.46
   1   8   3 1371.15  126.22
  -1  -8  -4  721.68   93.87
  -1  -8  -5  625.55   91.70
  -1  -8  -6   24.30   22.76
   1   9 -12  543.62   75.75
   1   9 -12  530.42   82.49
   1   9 -11   68.23   25.20
   1   9 -11   48.93   26.88
   1   9 -10  228.74   50.14
   1   9 -10  188.62   40.74
  -1  -9   9 1427.77  102.09
   1   9  -9 1294.29  104.72
   1   9  -9 1389.67  116.86
  -1  -9   8 1180.02   92.11
   1   9  -8 1176.55   94.74
   1   9  -8 1231.60  104.95
   1   9  -7 1790.26  114.60
  -1  -9   7 1778.24  117.04
   1   9  -7 1734.22  123.73
   1   9  -6 1735.64  121.19
   1   9  -6 1882.06  112.50
  -1  -9   6 1785.41  117.38
   1   9  -5 1409.57   91.25
   1   9  -5 1353.90  103.11
  -1  -9   5 1288.74   98.66
   1   9  -4 1221.04   80.01
   1   9  -4 1105.12   92.26
  -1  -9   4 1006.81   86.66
   1   9  -3   17.30   11.81
  -1  -9   3   -1.74   10.70
   1   9  -2  243.28   42.15
  -1  -9   2  226.18   40.55
  -1  -9   1  964.39   86.50
   1   9  -1 1174.74   99.05
  -1  -9   0 1581.05  124.17
  -1  -9   0 1661.16  116.84
   1   9   0 1380.66  115.63
   1   9   1 1309.77  115.90
  -1  -9  -1 1451.59  108.90
  -1  -9  -1 1263.64  115.89
  -1  -9  -2  821.62   80.99
  -1  -9  -2  876.14   99.32
   1   9   2  714.55   88.50
  -1  -9  -3  432.89   72.84
   1   9   3  279.66   57.08
   1   9   4  228.65   55.92
  -1  -9  -4  296.52   61.30
   1  10 -11  659.59   81.84
   1  10 -11  711.08   91.57
   1  10 -10 1086.37  103.19
   1  10 -10 1351.54  123.57
  -1 -10  10 1365.40  105.86
  -1 -10   9 1542.53  113.85
   1  10  -9 1417.45  122.81
   1  10  -9 1541.61  117.59
   1  10  -8  977.82   88.40
  -1 -10   8 1104.68   94.36
   1  10  -8 1129.85  104.24
  -1 -10   7  394.06   55.63
   1  10  -7  630.47   65.67
   1  10  -7  469.53   64.32
   1  10  -6   10.93   10.32
   1  10  -6   39.13   21.13
  -1 -10   6   11.65   11.21
   1  10  -5  106.69   24.94
   1  10  -5  107.10   29.00
  -1 -10   5   83.41   27.73
   1  10  -4  373.79   55.21
  -1 -10   4  452.51   59.92
  -1 -10   3 1379.86  109.38
   1  10  -3 1211.47  103.38
   1  10  -2 1506.15  118.65
  -1 -10   2 1538.49  117.80
   1  10  -1 2075.82  145.32
  -1 -10   1 1990.30  138.07
   1  10   0  905.05   96.21
  -1 -10   0 1062.98   97.79
  -1 -10  -1  147.21   36.62
  -1 -10  -1  114.49   38.32
   1  10   1  142.71   39.87
  -1 -10  -2    6.68   12.66
  -1 -10  -2    3.47   16.19
   1  10   2    4.39   21.43
   1  10   3   73.32   33.55
  -1 -10  -3   70.07   33.06
   1  11 -10  291.64   60.19
  -1 -11  10  302.03   52.59
   1  11 -10  260.32   49.90
   1  11  -9  112.86   32.62
   1  11  -9  125.80   39.01
  -1 -11   9  109.64   31.39
  -1 -11   8   29.39   20.13
   1  11  -8    7.45   13.74
   1  11  -8   20.74   18.43
   1  11  -7  260.20   50.95
   1  11  -7  294.48   46.91
  -1 -11   7  257.06   48.21
  -1 -11   6 1394.83  115.35
   1  11  -6 1361.65  117.25
   1  11  -5 1713.65  132.09
  -1 -11   5 1831.92  134.18
  -1 -11   4 1765.95  132.29
   1  11  -4 1593.93  127.04
   1  11  -3  862.79   92.29
  -1 -11   3  959.77   95.19
  -1 -11   2  379.43   60.21
   1  11  -2  415.81   63.60
  -1 -11   1   44.88   18.80
   1  11  -1   52.39   24.62
   1  11   0   25.58   23.07
  -1 -11   0    0.41   15.79
   1  11   1  230.43   51.57
  -1 -11  -1  214.89   47.02
   1  12  -7 1157.26  114.66
  -1 -12   7 1357.38  119.01
   1  12  -6  962.35  100.91
  -1 -12   6  916.11   98.43
  -1 -12   5  553.99   75.80
   1  12  -5  487.00   70.59
   1  12  -4  414.99   66.47
  -1 -12   4  393.00   65.09
   1  12  -3  -23.11   24.53
  -1 -12   3   16.95   16.38
   1  12  -2  320.11   60.30
  -1 -12   2  377.95   64.00
   2 -12   1   41.77   26.44
  -2  12  -1   -9.25   12.18
  -2  12  -2   86.97   27.84
   2 -12   2  142.50   39.98
   2 -12   3  928.34  101.49
  -2  12  -3  951.13   92.29
   2 -12   4 1223.91  116.64
  -2  12  -4 1160.64  103.09
   2 -12   5 1027.28  106.98
  -2  12  -5 1200.19  104.55
   2 -12   6  706.18   86.94
  -2  12  -6  783.45   84.66
   2 -12   7  580.27   78.11
  -2  12  -7  600.03   75.89
  -2  11   2   18.42   17.38
   2 -11  -2   69.08   28.13
  -2  11   1  298.26   52.09
   2 -11  -1  266.01   53.24
  -2  11   0  840.83   86.07
   2 -11   0  920.58   98.65
  -2  11  -1  886.32   86.32
   2 -11   1  976.23  100.32
   2 -11   2 1514.30  125.17
  -2  11  -2 1435.52  110.56
  -2  11  -3 1423.11  109.14
   2 -11   3 1503.83  123.60
   2 -11   4 1296.71  112.22
  -2  11  -4 1150.50   97.12
  -2  11  -5  641.20   70.62
   2 -11   5  682.97   80.11
   2 -11   6   16.75   12.89
  -2  11  -6   10.89   11.35
  -2  11  -7  216.18   42.91
   2 -11   7  249.63   48.62
   2 -11   8  754.13   84.97
  -2  11  -8  905.91   91.93
  -2  11  -9  822.13   91.06
   2 -11   9  764.45   85.08
  -2  11  -9  670.60   79.68
   2 -10  -4   -2.95   14.05
  -2  10   4   -6.37   20.27
  -2  10   3  402.40   63.08
   2 -10  -3  375.05   64.85
   2 -10  -2  997.24   99.25
   2 -10  -2  942.93  101.52
  -2  10   2 1120.06  101.05
  -2  10   1 1971.04  134.44
   2 -10  -1 1932.30  141.80
  -2  10   0 1918.50  127.15
   2 -10   0 1811.30  134.93
  -2  10  -1 1329.82  101.59
   2 -10   1 1478.00  117.48
  -2  10  -2  789.29   74.66
   2 -10   2  778.35   82.72
   2 -10   3   11.49   19.18
  -2  10  -3   20.24   12.52
  -2  10  -4  102.48   26.05
   2 -10   4   56.12   24.51
   2 -10   5  365.57   54.70
  -2  10  -5  356.92   49.58
   2 -10   6  717.51   77.26
  -2  10  -6  721.81   73.58
  -2  10  -7 1493.88  111.68
   2 -10   7 1281.06  105.79
  -2  10  -7 1234.46   97.59
  -2  10  -8 1496.18  118.47
   2 -10   8 1572.33  118.33
  -2  10  -8 1553.48  115.80
   2 -10   9  532.28   66.51
  -2  10  -9  713.60   82.70
  -2  10  -9  654.41   75.47
  -2  10 -10   94.41   31.73
  -2  10 -10    9.46   14.04
  -2   9   5  659.62   83.54
   2  -9  -5  704.90   93.43
   2  -9  -4 1674.86  141.42
  -2   9   4 1597.09  129.29
   2  -9  -3 1894.42  135.92
   2  -9  -3 1773.09  139.96
  -2   9   3 1732.53  130.66
  -2   9   2 1269.48  104.31
   2  -9  -2 1432.88  118.34
   2  -9  -2 1379.64  111.15
   2  -9  -1  409.91   58.59
  -2   9   1  427.49   55.29
   2  -9  -1  475.79   62.94
  -2   9   0  259.28   41.46
   2  -9   0  189.58   37.43
   2  -9   1   83.75   27.22
  -2   9  -1   69.56   20.44
  -2   9  -2  214.09   35.31
   2  -9   2  230.12   41.31
  -2   9  -3 1786.78  109.38
   2  -9   3 1722.74  118.81
   2  -9   4 2755.19  158.61
  -2   9  -4 3018.33  151.83
  -2   9  -5 1402.43   92.08
   2  -9   5 1491.31  108.70
  -2   9  -5 1555.56  103.17
  -2   9  -6  872.70   73.68
  -2   9  -6  859.54   76.86
   2  -9   6  906.21   81.87
   2  -9   7  567.16   64.23
  -2   9  -7  628.49   67.81
  -2   9  -7  546.77   60.90
  -2   9  -8  113.96   31.20
   2  -9   8  108.48   29.53
  -2   9  -8   97.74   28.67
   2  -9   9   15.38   14.25
  -2   9  -9   -2.79   13.08
  -2   9  -9    2.94   16.71
  -2   9 -10  595.39   75.77
  -2   9 -10  554.41   75.01
  -2   9 -11  724.21   87.87
  -2   8   6  880.81   89.59
   2  -8  -6 1132.50  118.01
   2  -8  -5  898.44  100.70
  -2   8   5 1006.10   88.79
   2  -8  -4 1191.43  111.43
  -2   8   4 1212.53   92.14
  -2   8   4 1155.86  104.08
   2  -8  -3  727.20   74.21
  -2   8   3  688.58   75.47
   2  -8  -3  744.24   82.82
   2  -8  -2    3.44   12.57
  -2   8   2    4.52   11.57
   2  -8  -2   -4.15   14.59
  -2   8   1  793.21   71.32
   2  -8  -1  701.33   72.26
   2  -8  -1  665.23   69.58
   2  -8   0 1393.64  101.71
  -2   8   0 1459.46   95.38
   2  -8   1 1713.19  111.57
  -2   8  -1 1564.80   97.85
   2  -8   2 2814.61  150.63
  -2   8  -2 2711.70  135.83
  -2   8  -3 2759.03  120.07
  -2   8  -3 2540.48  130.11
   2  -8   3 2462.16  141.08
  -2   8  -4 1307.62   87.06
   2  -8   4 1322.62   94.96
  -2   8  -4 1370.92   82.38
   2  -8   5  377.07   48.55
  -2   8  -5  393.81   43.94
  -2   8  -5  395.76   46.95
  -2   8  -6   14.38   14.79
  -2   8  -6   11.41   11.68
   2  -8   6   11.30   14.16
  -2   8  -7  750.89   71.76
   2  -8   7  641.15   64.15
  -2   8  -7  675.37   66.62
  -2   8  -8 1106.43   93.16
   2  -8   8 1200.53   90.07
  -2   8  -8 1197.50   98.20
  -2   8  -9  797.93   83.72
  -2   8  -9  742.35   79.66
  -2   8 -10  667.41   80.00
  -2   8 -10  627.22   78.78
  -2   8 -11  284.21   54.89
  -2   7   7  941.65   93.07
   2  -7  -7  848.84  102.89
   2  -7  -6  265.11   55.28
  -2   7   6  204.86   40.14
   2  -7  -5   -4.39   13.91
  -2   7   5   -7.35   14.73
   2  -7  -4  142.82   31.17
   2  -7  -4  110.08   31.80
  -2   7   4  227.01   36.31
   2  -7  -3  546.27   59.20
   2  -7  -3  530.54   65.23
  -2   7   3  641.29   56.32
   2  -7  -2 2294.58  139.93
  -2   7   2 2526.10  118.47
   2  -7  -2 2393.75  134.75
  -2   7   2 2270.03  132.16
  -2   7   1 3383.60  137.90
  -2   7   1 3169.53  155.56
   2  -7  -1 3246.91  164.93
   2  -7  -1 3235.78  161.91
   2  -7   0 3166.27  157.75
   2  -7   0 3208.29  158.60
  -2   7   0 2955.61  145.21
  -2   7   0 3421.16  129.02
  -2   7  -1 2888.92  132.71
   2  -7   1 2685.02  141.41
  -2   7  -2  385.16   40.30
  -2   7  -2  414.33   34.19
   2  -7   2  410.41   46.81
   2  -7   3   15.59   13.41
  -2   7  -3   -4.10    9.28
  -2   7  -3   18.04    9.15
  -2   7  -4  216.63   30.93
   2  -7   4  220.63   34.05
  -2   7  -4  135.73   22.91
  -2   7  -5  463.96   47.86
   2  -7   5  381.21   45.39
  -2   7  -5  434.27   44.83
  -2   7  -6 1256.65   89.01
  -2   7  -6 1311.00   88.78
   2  -7   6 1313.04   88.86
  -2   7  -7 1762.98  113.04
   2  -7   7 1879.38  109.37
  -2   7  -7 1728.77  113.62
  -2   7  -8 1041.43   88.02
   2  -7   8  995.76   76.52
  -2   7  -8 1008.78   88.10
  -2   7  -9  415.18   60.33
  -2   7  -9  581.91   68.40
  -2   7 -10   11.69   18.29
  -2   7 -11  337.04   67.11
  -2   7 -11  235.15   49.51
  -2   7 -12  409.26   77.73
  -2   7 -12  333.46   62.15
   2  -6  -8   47.44   24.26
  -2   6   8  130.78   35.58
  -2   6   7   15.77   15.15
   2  -6  -7   -4.60   15.81
  -2   6   6  548.27   61.53
   2  -6  -6  331.76   58.92
  -2   6   5 1679.51  107.67
   2  -6  -5 1628.69  127.11
   2  -6  -4 2960.10  172.67
  -2   6   4 3118.33  150.10
   2  -6  -4 3242.86  158.16
   2  -6  -3 2932.41  162.75
   2  -6  -3 3001.47  150.40
  -2   6   3 3169.79  141.59
  -2   6   2 1768.99  104.83
   2  -6  -2 1653.70  100.73
  -2   6   2 1672.83   88.22
   2  -6  -2 1638.07  106.97
  -2   6   1 1173.38   63.37
  -2   6   1  945.30   69.32
   2  -6  -1 1047.25   77.77
   2  -6  -1  986.77   73.51
  -2   6   0  874.79   61.20
  -2   6   0  912.88   40.90
   2  -6   0  826.07   64.72
  -2   6   0  887.36   50.34
   2  -6   0  911.84   68.22
  -2   6  -1   59.08   14.46
  -2   6  -1   56.06   10.44
   2  -6   1   34.92   12.50
   2  -6   2  670.29   56.70
  -2   6  -2  703.38   50.48
  -2   6  -2  672.00   43.51
  -2   6  -3 2023.17   94.92
  -2   6  -3 2030.42   98.61
   2  -6   3 1960.42  106.90
  -2   6  -4 3402.06  146.79
   2  -6   4 3319.36  152.45
  -2   6  -4 3500.99  146.05
   2  -6   5 2351.27  117.41
  -2   6  -5 2147.56  113.38
  -2   6  -5 2206.88  114.84
   2  -6   6  470.17   46.41
   2  -6   6  328.59   37.67
  -2   6  -6  391.60   45.20
  -2   6  -6  450.82   48.75
   2  -6   7   61.96   17.00
  -2   6  -7   53.50   18.31
  -2   6  -7   32.78   14.77
   2  -6   7   51.62   16.75
   2  -6   8    9.13    6.74
  -2   6  -8    6.45   12.89
  -2   6  -8   -1.83   16.29
  -2   6  -9  170.98   37.77
  -2   6 -10  935.58   93.53
  -2   6 -10  932.55  108.25
  -2   6 -11 1479.47  127.49
  -2   6 -11 1456.45  145.39
  -2   6 -12  915.69  116.45
  -2   6 -12  852.50  100.51
   2  -5  -9  152.26   47.56
  -2   5   9  219.82   46.30
   2  -5  -8  522.06   79.97
  -2   5   8  768.97   81.45
   2  -5  -7 1288.55  121.91
   2  -5  -7 1648.22  133.03
  -2   5   7 1531.85  110.45
   2  -5  -6 1340.01  117.84
   2  -5  -6 1686.15  134.20
  -2   5   6 1655.78  108.19
  -2   5   5 2695.38  141.26
   2  -5  -5 3073.18  145.09
   2  -5  -5 2803.88  166.85
   2  -5  -5 2872.27  182.99
  -2   5   4 2259.19  116.02
   2  -5  -4 2089.47  133.01
   2  -5  -4 2287.70  119.05
   2  -5  -4 2271.62  157.29
  -2   5   3 1236.71   73.62
   2  -5  -3 1104.50   85.33
   2  -5  -3 1152.74   77.61
   2  -5  -2   20.12   10.40
  -2   5   2   30.56   10.34
   2  -5  -2   23.18   11.95
   2  -5  -1  804.14   59.37
   2  -5  -1  649.94   54.64
  -2   5   1  767.09   47.10
  -2   5   1  745.23   54.25
   2  -5   0 2100.24  106.18
  -2   5   0 2138.34   97.68
  -2   5   0 2129.57   75.58
   2  -5   0 2104.26  103.89
   2  -5   1 3438.33  152.85
  -2   5  -1 3798.80  129.75
  -2   5  -1 3765.04  142.37
  -2   5  -2 2102.93   95.36
   2  -5   2 2401.08  110.99
   2  -5   2 2094.86  101.24
  -2   5  -2 2241.11   93.07
  -2   5  -3 2600.35  112.71
   2  -5   3 2623.57  113.57
   2  -5   3 2586.32  120.93
  -2   5  -3 2751.64  114.49
   2  -5   4 1532.33   83.79
  -2   5  -4 1471.32   79.94
  -2   5  -4 1399.05   79.46
   2  -5   4 1432.29   73.07
   2  -5   4 1352.68   71.47
   2  -5   5   51.28   14.45
   2  -5   5   49.90   14.94
   2  -5   5   42.36   10.79
  -2   5  -5   35.82   13.36
  -2   5  -5   36.74   13.23
   2  -5   6  365.02   37.79
  -2   5  -6  343.36   42.74
  -2   5  -6  362.11   43.13
   2  -5   6  333.74   42.61
   2  -5   7 1122.06   88.91
  -2   5  -7 1213.85   90.34
   2  -5   7 1286.23   76.77
  -2   5  -7 1086.46   84.96
  -2   5  -8 1168.00   93.37
   2  -5   8 1276.75  100.57
  -2   5  -9  876.76  100.50
   2  -5   9  986.51   93.85
  -2   5  -9 1148.12   97.56
  -2   5 -10  529.93   69.84
   2  -5  10  745.06   84.71
  -2   5 -10  633.83   88.96
  -2   5 -11  393.32   75.07
   2  -5  11  466.68   71.02
  -2   5 -11  490.78   72.30
  -2   5 -12  185.46   46.81
  -2   5 -12  141.86   46.25
   2  -4 -10  776.03  104.56
  -2   4  10  851.63   93.91
  -2   4   9 1730.70  128.97
   2  -4  -9 1657.32  149.77
   2  -4  -8 2232.73  160.03
   2  -4  -8 2382.71  174.14
  -2   4   8 2402.66  146.96
   2  -4  -7 1704.45  135.59
  -2   4   7 1622.91  110.72
   2  -4  -7 1699.78  135.84
   2  -4  -6  387.96   58.02
  -2   4   6  516.35   53.96
   2  -4  -6  420.13   64.71
  -2   4   5    9.32    7.75
   2  -4  -5   12.16    9.55
   2  -4  -5   -3.03   13.95
   2  -4  -5    7.39   16.86
  -2   4   5   -0.69   10.86
   2  -4  -4  189.85   41.55
   2  -4  -4  138.16   29.12
   2  -4  -4  209.15   29.58
  -2   4   4  213.43   28.89
   2  -4  -3  787.15   81.67
   2  -4  -3  837.94   59.14
  -2   4   3  798.16   54.24
   2  -4  -3  727.25   63.10
   2  -4  -2 3011.11  163.93
  -2   4   2 2728.22  113.24
   2  -4  -2 2596.86  127.09
   2  -4  -2 2845.16  125.08
   2  -4  -1 5085.62  195.38
   2  -4  -1 5130.90  195.61
  -2   4   1 5734.89  193.24
   2  -4  -1 5155.25  193.17
   2  -4   0 5505.28  205.80
   2  -4   0 5337.67  200.69
  -2   4   0 5793.70  193.71
  -2   4   0 5790.83  175.92
   2  -4   0 5586.48  201.13
   2  -4   1 2959.13  119.58
  -2   4  -1 2822.65  109.17
  -2   4  -1 2958.44  105.98
   2  -4   1 2878.79  123.95
   2  -4   2  209.08   23.29
   2  -4   2  181.87   24.49
  -2   4  -2  179.68   20.01
  -2   4  -2  219.50   21.81
  -2   4  -3  305.21   30.29
  -2   4  -3  336.89   30.30
   2  -4   3  371.85   30.23
   2  -4   3  339.59   32.68
   2  -4   3  304.15   28.53
   2  -4   4  289.99   32.94
   2  -4   4  263.60   29.66
   2  -4   4  288.23   25.65
  -2   4  -4  235.46   29.42
  -2   4  -4  266.22   30.37
  -2   4  -5  694.16   56.17
   2  -4   5  619.98   57.62
   2  -4   5  709.90   41.50
   2  -4   5  729.88   51.16
  -2   4  -5  756.37   59.03
  -2   4  -6 1304.76   90.49
   2  -4   6 1502.18   79.18
  -2   4  -6 1479.86   93.03
   2  -4   6 1449.09   62.61
   2  -4   6 1264.64   93.42
  -2   4  -7 2243.00  133.22
   2  -4   7 2819.99  118.08
   2  -4   7 2169.92  137.67
  -2   4  -8 1884.85  141.34
   2  -4   8 1742.42  125.27
  -2   4  -8 1899.98  123.54
  -2   4  -9  172.79   43.23
   2  -4   9  256.05   47.34
  -2   4  -9  279.54   47.51
  -2   4 -10   51.04   23.69
  -2   4 -10   14.31   20.77
   2  -4  10   44.41   24.35
  -2   4 -11  475.92   79.37
  -2   4 -11  563.86   77.39
   2  -4  11  556.20   80.08
   2  -4  12  664.66   92.22
  -2   4 -12  521.74   87.99
  -2   4 -12  499.41   76.94
  -2   3  11 1225.58  117.01
   2  -3 -11 1236.13  136.82
   2  -3 -10  665.84   95.44
  -2   3  10  647.04   78.45
   2  -3  -9  347.48   64.73
   2  -3  -9  364.80   60.90
  -2   3   9  353.37   54.98
   2  -3  -8  170.56   43.82
  -2   3   8  160.69   34.28
   2  -3  -8  166.76   42.20
   2  -3  -7   -2.93   13.52
   2  -3  -7   28.16   19.25
  -2   3   7   40.73   16.85
   2  -3  -6  519.70   72.07
  -2   3   6  509.56   51.59
   2  -3  -6  441.53   60.13
   2  -3  -6  538.30   52.05
   2  -3  -5 2929.21  129.16
   2  -3  -5 2912.02  130.50
  -2   3   5 2544.19  127.75
   2  -3  -5 2442.94  146.56
  -2   3   5 2664.86  128.70
   2  -3  -5 2999.56  181.35
   2  -3  -4 5118.39  224.66
   2  -3  -4 5777.92  201.97
   2  -3  -4 5295.35  260.68
   2  -3  -4 5524.45  205.45
  -2   3   4 5466.41  219.72
  -2   3   4 5444.76  204.97
   2  -3  -3 5967.89  191.09
   2  -3  -3 6235.30  217.02
  -2   3   3 5923.90  210.50
   2  -3  -3 5721.56  227.70
   2  -3  -3 5983.01  266.56
   2  -3  -2 2957.05  120.66
   2  -3  -2 2810.30  122.77
   2  -3  -2 2760.80  115.80
   2  -3  -2 2805.72  153.96
   2  -3  -1 1008.99   79.16
   2  -3  -1  979.22   58.35
   2  -3  -1 1041.48   56.95
   2  -3  -1 1051.09   57.38
   2  -3   0 1862.54   87.82
   2  -3   0 1913.80   80.75
  -2   3   0 1952.71   71.22
  -2   3   0 1977.96   75.20
   2  -3   0 1829.33   83.15
  -2   3  -1   22.23    5.56
  -2   3  -1   34.30    8.20
   2  -3   1   33.68   10.84
   2  -3   1   19.62    7.63
   2  -3   2 2323.48  101.57
  -2   3  -2 2450.61   92.82
   2  -3   2 2439.39   96.93
   2  -3   2 2289.77   96.21
  -2   3  -2 2414.60   98.99
   2  -3   3 3457.69  136.03
  -2   3  -3 3351.42  138.54
   2  -3   3 3550.38  128.82
   2  -3   3 3638.59  147.03
  -2   3  -3 3617.31  135.72
   2  -3   4 3429.58  133.24
   2  -3   4 3357.14  122.56
   2  -3   4 3299.23  151.91
  -2   3  -4 3286.46  139.85
  -2   3  -4 3341.80  143.12
   2  -3   5 2144.47   85.72
   2  -3   5 2298.98   99.20
   2  -3   5 1816.58  114.06
  -2   3  -5 2214.83  113.37
   2  -3   6  542.10   41.72
  -2   3  -6  492.73   60.27
   2  -3   6  573.19   33.61
   2  -3   6  510.62   57.06
  -2   3  -6  502.04   53.13
   2  -3   7   25.36   16.99
  -2   3  -7   14.84   17.45
  -2   3  -7   62.37   20.32
  -2   3  -8  110.10   35.17
  -2   3  -8   78.05   23.97
   2  -3   8  106.90   30.62
  -2   3  -9  954.09   90.79
   2  -3   9  974.53   95.92
  -2   3  -9 1014.14  107.51
  -2   3 -10 1397.27  135.22
  -2   3 -10 1527.34  124.00
   2  -3  10 1372.75  123.43
   2  -3  11 1617.24  142.58
  -2   3 -11 1893.60  162.90
  -2   3 -11 1549.23  134.80
   2  -3  12 1208.34  126.53
  -2   3 -12 1086.07  127.14
  -2   3 -12  909.60  107.31
   2  -2 -11  248.13   59.67
  -2   2  11  254.17   50.09
   2  -2 -10   -2.49   21.20
  -2   2  10   38.47   21.15
  -2   2   9  593.13   67.60
   2  -2  -9  620.12   85.35
   2  -2  -9  568.16   76.73
   2  -2  -8 1668.23  138.36
   2  -2  -8 1746.31  136.92
  -2   2   8 1631.04  110.92
   2  -2  -8 1853.92  113.50
   2  -2  -7 2165.00  150.45
   2  -2  -7 2093.31  151.27
  -2   2   7 2046.35  119.33
   2  -2  -7 2378.84  121.38
   2  -2  -6 2607.94  157.23
  -2   2   6 2505.07  127.00
   2  -2  -6 2850.45  176.24
   2  -2  -6 2654.88  123.28
   2  -2  -5 5503.04  255.94
   2  -2  -5 5177.26  228.70
  -2   2   5 5175.22  198.38
  -2   2   5 4689.57  186.50
   2  -2  -5 5505.17  191.00
   2  -2  -4 5152.32  224.34
   2  -2  -4 5674.59  257.60
   2  -2  -4 6045.50  211.96
  -2   2   4 5615.44  205.09
  -2   2   4 5241.10  213.63
   2  -2  -4 6052.05  194.27
  -2   2   3  131.36   23.86
   2  -2  -3  139.62   22.97
   2  -2  -3  150.85   18.79
   2  -2  -3  164.61   33.64
   2  -2  -3  171.91   14.72
   2  -2  -3  145.63   21.21
   2  -2  -2  713.48   46.04
   2  -2  -2  740.55   66.12
   2  -2  -2  764.04   48.32
   2  -2  -2  694.37   42.18
   2  -2  -2  704.60   26.93
   2  -2  -1 1848.40   74.32
   2  -2  -1 1863.49   83.69
   2  -2  -1 1799.74  101.19
   2  -2  -1 1759.11   76.62
   2  -2   0 3904.10  155.99
   2  -2   0 3564.08  131.64
   2  -2   0 3703.33  138.60
  -2   2   0 3443.19  129.12
  -2   2   0 3860.50  116.93
  -2   2  -1 3325.41  110.34
  -2   2  -1 3409.90  125.72
   2  -2   1 3295.73  127.91
   2  -2   1 3454.73  122.58
   2  -2   2 2891.98  117.51
   2  -2   2 3076.44  113.43
  -2   2  -2 3054.16  112.44
  -2   2  -2 3063.47  122.35
   2  -2   2 3095.27  127.01
   2  -2   3 1075.42   58.98
  -2   2  -3 1215.02   65.25
  -2   2  -3 1048.52   64.76
   2  -2   3 1039.92   70.71
   2  -2   3 1070.84   54.60
   2  -2   4 1507.63   74.63
   2  -2   4 1586.90   70.74
   2  -2   4 1290.61   87.64
  -2   2  -4 1421.28   84.06
  -2   2  -5   45.66   17.76
  -2   2  -5   14.97    7.97
   2  -2   5    2.18   10.10
  -2   2  -6 1437.06  109.74
   2  -2   6 1357.17   98.36
  -2   2  -6 1422.68   95.46
  -2   2  -7 2301.25  153.72
  -2   2  -7 2364.61  137.45
   2  -2   7 2192.53  137.54
   2  -2   8 2888.47  170.98
  -2   2  -8 3093.79  191.97
  -2   2  -8 2947.34  167.96
  -2   2  -9 1040.01   97.70
  -2   2  -9  881.96  102.34
   2  -2   9 1005.88   98.03
  -2   2 -10  717.62   95.36
  -2   2 -10  815.43   90.64
   2  -2  10  758.83   91.37
  -2   2 -11  479.74   74.36
   2  -2  11  504.83   78.90
  -2   2 -11  607.20   90.13
  -2   2 -12   95.46   39.78
  -2   2 -12  126.21   41.52
   2  -2  12   87.35   36.80
   2  -1 -12  177.06   51.73
  -2   1  12  140.21   39.19
   2  -1 -11  313.93   66.33
  -2   1  11  376.55   59.02
   2  -1 -10 1276.54  130.60
  -2   1  10 1232.07  102.74
   2  -1 -10 1121.56  110.40
   2  -1  -9 3334.25  201.72
   2  -1  -9 3576.91  175.06
  -2   1   9 3289.91  174.22
   2  -1  -9 3221.08  211.73
  -2   1   8 3542.46  174.41
   2  -1  -8 3642.80  216.95
   2  -1  -8 3807.67  173.35
   2  -1  -8 3940.25  216.25
  -2   1   7 1881.82  107.06
   2  -1  -7 1985.81  140.89
   2  -1  -7 1754.51  133.68
   2  -1  -7 1953.35  103.81
   2  -1  -6  729.34   75.97
   2  -1  -6  722.00   78.84
  -2   1   6  677.15   38.74
   2  -1  -6  651.82   49.83
  -2   1   6  795.34   59.45
  -2   1   5    6.60    5.84
   2  -1  -5    8.69   13.79
  -2   1   5   18.57    6.29
   2  -1  -5   13.17    9.83
   2  -1  -5   -0.08    3.96
   2  -1  -4 1174.39   80.55
   2  -1  -4  986.54   85.07
   2  -1  -4 1246.00   58.41
  -2   1   4 1263.01   68.21
  -2   1   4 1257.35   66.39
   2  -1  -4 1211.80   56.59
   2  -1  -3 2576.82  114.83
  -2   1   3 2310.82  111.80
   2  -1  -3 2463.84   87.62
   2  -1  -3 2300.20  128.99
   2  -1  -3 2642.59   96.01
   2  -1  -2 1098.94   55.34
   2  -1  -2 1019.06   71.90
  -2   1   2 1058.30   69.49
   2  -1  -2 1110.01   51.53
  -2   1   1 4648.38  180.81
  -2   1   1 4595.48  141.75
   2  -1  -1 4330.40  176.49
   2  -1  -1 4736.04  144.30
   2  -1  -1 4371.98  153.36
   2  -1   0 4656.29  160.78
  -2   1   0 5085.96  181.63
   2  -1   0 4967.00  173.57
  -2   1   0 4533.79  164.04
  -2   1  -1 1564.55   76.59
   2  -1   1 1481.23   73.01
  -2   1  -1 1451.71   75.75
   2  -1   2   28.21   12.24
  -2   1  -2   54.77   14.40
  -2   1  -2   42.60   11.31
  -2   1  -3 1259.17   81.60
   2  -1   3 1042.37   75.05
  -2   1  -3 1389.76   68.56
  -2   1  -3 1384.97   79.88
  -2   1  -4 1432.88   89.46
  -2   1  -4 1552.24  101.54
   2  -1   4 1259.10   87.19
  -2   1  -4 1619.72   75.28
  -2   1  -5 2695.23  105.58
  -2   1  -5 2490.64  147.70
  -2   1  -5 2224.24  127.31
   2  -1   5 2459.42  134.17
   2  -1   6 2602.54  145.93
  -2   1  -6 2930.26  167.92
  -2   1  -6 2624.21  144.68
  -2   1  -6 2611.28  100.28
  -2   1  -6 2538.21  119.20
  -2   1  -7 3032.78  134.22
  -2   1  -7 3003.69  163.35
  -2   1  -7 2601.58  173.18
   2  -1   7 2572.29  155.19
  -2   1  -8 1250.86  120.47
   2  -1   8 1703.55  123.54
  -2   1  -8 1458.47  115.14
  -2   1  -9    9.90   16.49
  -2   1  -9   13.79   16.15
   2  -1   9   23.33   16.10
  -2   1 -10  125.56   41.31
  -2   1 -10  102.54   36.43
   2  -1  10  100.94   35.53
  -2   1 -11  518.33   77.36
  -2   1 -11  556.32   87.88
   2  -1  11  568.54   84.20
   2  -1  12  337.87   70.07
  -2   1 -12  520.64   86.14
  -2   1 -12  427.92   72.91
   2   0 -12 1422.75  146.36
  -2   0  12 1494.24  125.83
   2   0 -11 1263.10  133.36
  -2   0  11 1052.84   99.62
   2   0 -11 1339.67  107.90
   2   0 -10 1501.96  141.43
   2   0 -10 1286.98  120.48
  -2   0  10 1402.51  107.38
   2   0 -10 1475.42  106.83
  -2   0   9  536.78   58.80
   2   0  -9  555.82   81.19
   2   0  -9  554.13   75.55
   2   0  -9  589.40   60.04
   2   0  -8  214.81   45.65
   2   0  -8  171.06   41.56
   2   0  -8  202.07   31.08
  -2   0   8  184.84   31.85
   2   0  -7   19.56   17.14
  -2   0   7    2.05    7.80
   2   0  -7   23.75   19.17
   2   0  -7   13.59    7.35
   2   0  -6 1440.25  110.33
   2   0  -6 1426.22  111.54
   2   0  -6 1606.38   82.88
  -2   0   6 1758.99   69.97
  -2   0   6 1516.72   85.62
   2   0  -5 3389.43  113.55
   2   0  -5 3154.67  164.11
  -2   0   5 3215.26  118.22
   2   0  -5 3039.91  123.27
   2   0  -5 3042.58  161.28
  -2   0   5 3031.86  129.28
   2   0  -4 6067.89  244.25
  -2   0   4 6242.09  212.13
   2   0  -4 6234.19  250.64
   2   0  -4 6378.34  207.62
   2   0  -4 6467.37  201.66
   2   0  -3 1638.10   94.59
  -2   0   3 1619.56   77.41
   2   0  -3 1700.88   87.62
   2   0  -3 1771.61   68.12
   2   0  -2 1265.81   73.79
   2   0  -2 1309.03   61.42
   2   0  -2 1404.60   58.79
  -2   0   2 1317.77   68.51
   2   0  -2 1372.56   58.26
   2   0  -1 1400.32   70.30
   2   0  -1 1423.11   48.77
  -2   0   1 1354.28   72.26
  -2   0   1 1584.75   58.68
  -2   0   0   52.43   11.15
   2   0   0   77.50   11.85
  -2   0   0   64.99   14.55
   2   0   0   69.38   11.93
   2   0   1   42.23   12.09
  -2   0  -1   48.76   11.85
  -2   0  -1   29.92   12.04
  -2   0  -1   20.31    8.92
  -2   0  -2 6785.25  248.72
   2   0   2 5893.52  238.38
  -2   0  -2 6816.02  225.56
  -2   0  -2 6695.54  248.40
  -2   0  -3 6053.22  187.83
  -2   0  -3 6256.47  248.78
  -2   0  -3 6396.60  239.22
   2   0   3 5359.55  227.12
  -2   0  -3 5985.92  203.49
  -2   0  -4 3603.46  131.38
  -2   0  -4 3517.42  182.62
   2   0   4 3572.62  165.87
  -2   0  -4 3677.36  171.87
  -2   0  -4 3768.64  128.70
  -2   0  -5  803.78   82.25
  -2   0  -5  904.76   54.81
   2   0   5 1036.40   78.78
  -2   0  -5 1018.42   81.14
  -2   0  -5  960.68   40.45
  -2   0  -6    4.50    9.46
  -2   0  -6   31.21   18.13
   2   0   6   24.49   12.74
  -2   0  -6   33.89   10.95
  -2   0  -7   25.18   17.93
  -2   0  -7    8.20   12.18
   2   0   7   10.54   16.08
  -2   0  -8  335.85   55.21
  -2   0  -8  308.96   58.57
   2   0   8  295.98   50.07
  -2   0  -9  838.27   92.42
  -2   0  -9 1013.15  111.10
   2   0   9  838.84   94.29
  -2   0 -10 1559.17  145.03
  -2   0 -10 1440.92  128.35
   2   0  10 1326.07  127.00
  -2   0 -11 1313.94  139.09
   2   0  11 1589.96  147.04
  -2   0 -11 1561.47  139.27
   2   1 -12  979.39  119.88
   2   1 -12 1008.35   98.48
  -2  -1  12 1011.58  100.12
   2   1 -11  229.93   55.54
  -2  -1  11  367.85   55.34
   2   1 -11  293.08   48.40
   2   1 -11  363.07   63.04
  -2  -1  10   22.92   16.19
   2   1 -10   14.25   11.12
   2   1 -10   16.51   15.60
   2   1 -10   -0.41   14.40
   2   1  -9  994.41  107.54
   2   1  -9 1207.84  109.43
   2   1  -9  923.02   76.17
  -2  -1   9 1024.62   80.56
   2   1  -8 1731.27  130.11
   2   1  -8 1872.96  141.94
  -2  -1   8 1753.55  102.99
   2   1  -8 1633.52   98.57
   2   1  -7 2797.69  160.97
   2   1  -7 2609.16  162.22
  -2  -1   7 2647.18   98.59
  -2  -1   7 2431.20  120.20
   2   1  -7 2328.77  117.74
   2   1  -6 2443.67  109.71
  -2  -1   6 2506.29   96.63
   2   1  -6 2239.92  141.68
  -2  -1   6 2500.06   87.72
  -2  -1   6 2178.72  107.17
   2   1  -6 2444.33  143.27
  -2  -1   5 2527.23  100.38
  -2  -1   5 2558.90  107.70
   2   1  -5 2590.17  140.16
   2   1  -5 2468.91  105.61
   2   1  -5 2631.57   88.65
   2   1  -5 2470.58  137.12
   2   1  -4 3462.81  161.08
   2   1  -4 3656.17  161.21
   2   1  -4 3626.25  146.81
   2   1  -4 3713.51  133.06
   2   1  -4 3731.69  121.36
  -2  -1   4 3518.57  132.38
   2   1  -3  147.46   17.70
  -2  -1   3  156.45   18.38
  -2  -1   2  762.54   45.12
   2   1  -2  818.48   39.06
   2   1  -1 3641.04  118.53
  -2  -1   1 3477.09  130.18
  -2  -1   1 3484.69  123.15
   2   1   0 3763.20  138.65
  -2  -1   0 3655.39  121.49
  -2  -1   0 3461.72  132.71
  -2  -1   0 3324.44  128.37
  -2  -1  -1 1165.19   63.45
   2   1   1 1037.67   67.51
  -2  -1  -1 1051.99   68.48
  -2  -1  -1 1124.95   54.76
   2   1   2 1565.65   94.37
  -2  -1  -2 1915.75  103.35
  -2  -1  -2 1877.61   75.48
  -2  -1  -2 2003.75  109.80
  -2  -1  -3  895.10   74.46
  -2  -1  -3  886.23   42.71
  -2  -1  -3  844.27   74.48
   2   1   3  973.04   69.95
  -2  -1  -4  166.96   13.57
  -2  -1  -4  178.32   17.64
  -2  -1  -4  162.88   35.01
  -2  -1  -4  106.65   15.27
  -2  -1  -4  222.55   37.63
   2   1   4  130.17   26.01
  -2  -1  -5  274.65   44.23
  -2  -1  -5  332.05   53.63
   2   1   5  261.37   40.15
  -2  -1  -5  319.78   28.55
  -2  -1  -5  331.16   23.25
  -2  -1  -6 1584.72  128.65
   2   1   6 1489.34  107.20
  -2  -1  -6 1528.92  114.37
  -2  -1  -7 2044.63  155.47
  -2  -1  -7 2079.81  141.83
   2   1   7 1975.84  133.76
  -2  -1  -8 2624.01  184.53
  -2  -1  -8 2704.71  171.22
   2   1   8 2365.24  160.02
   2   1   9 1054.44  107.22
  -2  -1  -9 1010.87  113.47
  -2  -1  -9  994.90  102.67
  -2  -1 -10  537.79   76.90
   2   1  10  560.12   82.37
  -2  -1 -10  488.27   80.10
  -2  -1 -11  395.24   74.75
  -2  -1 -11  445.17   72.36
   2   1  11  395.00   73.34
   2   2 -13  -32.75   27.79
   2   2 -13  -12.14   16.00
  -2  -2  13   27.85   22.45
   2   2 -12  285.62   65.27
   2   2 -12  291.34   60.18
  -2  -2  12  367.87   57.32
   2   2 -12  290.84   50.70
  -2  -2  11  439.45   59.47
   2   2 -11  469.45   72.53
   2   2 -11  518.58   63.63
   2   2 -11  397.88   74.88
   2   2 -10 1877.00  156.45
  -2  -2  10 1733.43  114.24
   2   2 -10 1710.48  114.09
   2   2 -10 1594.71  134.83
   2   2  -9 3016.17  186.28
   2   2  -9 2742.89  190.47
   2   2  -9 3168.33  155.05
  -2  -2   9 3051.13  151.66
   2   2  -8 2432.01  169.64
  -2  -2   8 2910.77  135.70
   2   2  -8 2680.06  133.89
   2   2  -8 2769.55  169.31
   2   2  -7 1637.25  124.86
   2   2  -7 1619.82   92.13
  -2  -2   7 1785.70   70.13
  -2  -2   7 1654.45   90.25
  -2  -2   7 1783.07   79.34
   2   2  -7 1845.95  127.13
   2   2  -6   37.25   17.11
  -2  -2   6   31.46    7.59
   2   2  -6   26.74   12.77
  -2  -2   6   16.08    7.85
   2   2  -6   32.79    4.71
   2   2  -6   21.42    9.56
  -2  -2   6   14.99    6.45
   2   2  -5   74.39   17.08
  -2  -2   5   51.45   11.59
  -2  -2   5   69.67   13.17
   2   2  -5   65.29    8.33
  -2  -2   5   61.33   10.87
   2   2  -5   70.82   14.11
   2   2  -4  398.18   35.20
  -2  -2   4  407.85   30.22
  -2  -2   4  407.52   32.30
   2   2  -3  912.15   50.76
  -2  -2   3 1031.02   54.85
  -2  -2   3  912.74   50.65
   2   2  -2 1096.69   52.50
  -2  -2   2 1000.04   50.42
  -2  -2   2 1115.13   57.45
  -2  -2   1 7931.24  237.18
  -2  -2   1 7065.24  243.31
   2   2  -1 7753.77  239.90
   2   2  -1 7209.82  240.20
  -2  -2   1 7234.75  240.01
   2   2   0 1677.88   80.83
  -2  -2   0 1327.46   64.94
  -2  -2   0 1414.22   65.56
  -2  -2   0 1188.97   66.27
  -2  -2  -1  582.96   45.48
  -2  -2  -1  529.98   34.91
   2   2   1  528.58   46.98
  -2  -2  -1  550.61   46.06
  -2  -2  -1  478.81   35.34
  -2  -2  -2  187.05   29.68
   2   2   2  178.55   28.32
  -2  -2  -2  166.46   17.46
  -2  -2  -2  124.41   17.34
  -2  -2  -2  150.29   27.94
  -2  -2  -3 1638.18   67.90
  -2  -2  -3 1663.91  109.52
   2   2   3 1679.09   99.02
  -2  -2  -3 1497.42  105.09
  -2  -2  -3 1630.71   74.06
  -2  -2  -4 2000.91  133.27
   2   2   4 1900.77  114.82
  -2  -2  -4 2276.74  136.18
  -2  -2  -4 1972.72   83.98
   2   2   5 2647.54  145.13
  -2  -2  -5 2564.20  165.57
  -2  -2  -5 2585.09  100.01
  -2  -2  -5 2643.62  156.86
  -2  -2  -6 2305.03  164.10
   2   2   6 2309.71  140.92
  -2  -2  -6 2131.68  144.58
  -2  -2  -7 3256.73  189.29
  -2  -2  -7 3583.86  217.40
   2   2   7 2870.88  175.94
  -2  -2  -8  911.65  106.05
  -2  -2  -8  729.82   85.64
   2   2   8  845.41   91.48
  -2  -2  -9   47.82   24.06
   2   2   9   24.92   17.76
  -2  -2  -9   18.30   16.16
   2   2  10   21.42   25.62
  -2  -2 -10   53.65   25.20
  -2  -2 -10   19.40   23.81
   2   3 -13 1068.65  133.17
  -2  -3  13 1617.73  130.51
   2   3 -13 1387.43  121.21
   2   3 -12 1555.89  143.80
   2   3 -12 1800.16  132.76
   2   3 -12 1988.17  175.07
  -2  -3  12 1911.10  134.97
   2   3 -11 1058.62  121.39
  -2  -3  11 1251.59   98.51
   2   3 -11 1177.49  117.72
   2   3 -11 1135.80   96.65
   2   3 -10 1131.50  112.31
   2   3 -10 1168.23  122.72
  -2  -3  10 1363.58   95.44
   2   3 -10 1251.34   95.44
   2   3  -9  538.51   56.23
   2   3  -9  475.69   72.53
  -2  -3   9  596.09   56.08
   2   3  -9  495.08   70.45
   2   3  -8  216.49   45.05
   2   3  -8  182.14   30.45
  -2  -3   8  211.10   30.20
  -2  -3   7   29.52    7.43
   2   3  -7   27.66   15.45
  -2  -3   7   11.97    7.86
   2   3  -7   23.88   11.64
   2   3  -6  823.05   38.23
  -2  -3   6 1241.52   58.87
  -2  -3   6 1208.99   61.76
  -2  -3   6 1373.42   67.20
   2   3  -6 1148.41   68.21
   2   3  -6 1124.73   76.19
   2   3  -5 3457.98  151.68
  -2  -3   5 3713.71  133.37
  -2  -3   5 3728.16  138.10
   2   3  -5 3619.98  144.41
  -2  -3   5 3756.68  144.11
  -2  -3   4 4235.81  159.15
   2   3  -4 4146.91  161.31
  -2  -3   4 4244.35  155.29
  -2  -3   3 1388.17   71.66
  -2  -3   3 1390.34   70.15
   2   3  -3 1422.78   71.02
  -2  -3   2  898.80   55.00
  -2  -3   2 1065.48   54.38
  -2  -3   2 1014.16   58.45
   2   3  -2 1088.63   58.26
  -2  -3   1  306.65   29.30
  -2  -3   1  375.55   31.06
   2   3  -1  390.79   30.94
   2   3  -1  325.50   31.20
  -2  -3   1  317.75   30.11
  -2  -3   1  293.53   27.26
  -2  -3   0  265.81   26.51
  -2  -3   0  275.60   27.74
  -2  -3   0  305.30   29.70
  -2  -3   0  318.49   31.57
   2   3   0  297.78   33.52
  -2  -3  -1 1227.22   62.32
   2   3   1 1078.33   74.51
  -2  -3  -1 1211.54   75.37
  -2  -3  -1 1235.73   73.21
  -2  -3  -1 1102.45   63.25
  -2  -3  -2 4860.28  169.52
  -2  -3  -2 4614.66  203.57
  -2  -3  -2 5048.02  203.13
   2   3   2 4484.17  195.07
  -2  -3  -2 4769.17  174.50
  -2  -3  -3 6038.58  247.25
  -2  -3  -3 5602.00  236.46
   2   3   3 5196.76  221.13
  -2  -3  -3 5152.34  190.44
  -2  -3  -4 2209.09   97.97
   2   3   4 2240.33  129.55
  -2  -3  -4 2100.00  142.34
  -2  -3  -4 2648.44  150.79
  -2  -3  -5 1144.73  100.42
   2   3   5  997.22   86.05
  -2  -3  -5  974.75   97.96
  -2  -3  -6  125.86   34.15
  -2  -3  -6   74.41   31.48
   2   3   6  144.60   34.22
  -2  -3  -7   65.98   25.65
  -2  -3  -7   14.52   16.11
   2   3   7   11.42   12.70
  -2  -3  -8  167.09   47.74
  -2  -3  -8  112.13   35.37
   2   3   8  130.85   36.40
  -2  -3  -9  466.65   80.07
   2   3   9  358.38   65.89
  -2  -3 -10 1282.96  138.26
   2   3  10 1277.57  134.08
  -2  -4  13 1490.69  123.11
   2   4 -13 1214.62  141.72
   2   4 -13 1466.29  124.23
   2   4 -13 1328.17  134.00
   2   4 -12 1102.38  117.65
   2   4 -12  809.67  110.63
  -2  -4  12  940.53   89.49
   2   4 -12  763.11   83.45
   2   4 -11  365.81   72.58
   2   4 -11  347.74   64.30
   2   4 -11  325.40   49.53
  -2  -4  11  367.54   50.88
   2   4 -10   12.49   19.87
   2   4 -10   62.38   28.49
  -2  -4  10   40.06   15.10
   2   4 -10   65.31   25.43
  -2  -4   9 1445.59   89.54
   2   4  -9 1446.57   97.73
   2   4  -9 1397.02  126.89
   2   4  -9 1255.04  107.09
  -2  -4   8  926.94   54.96
  -2  -4   8  917.70   63.47
   2   4  -8  915.27   81.18
   2   4  -8 1009.17   74.05
   2   4  -7 1882.44  115.05
  -2  -4   7 1950.16   92.76
  -2  -4   7 1949.86   90.31
   2   4  -7 2088.21  108.06
   2   4  -6 2357.85  124.86
  -2  -4   6 2588.74  109.45
   2   4  -6 2416.52  116.85
  -2  -4   6 2572.63  103.01
  -2  -4   5 1907.27   94.95
  -2  -4   5 1852.14   75.77
   2   4  -5 1893.92   99.46
  -2  -4   5 1912.21   90.50
   2   4  -4  774.52   53.38
  -2  -4   4  583.81   47.33
  -2  -4   4  616.78   46.05
  -2  -4   3  158.80   24.00
  -2  -4   3  130.98   20.59
   2   4  -3  118.67   20.39
  -2  -4   2  623.39   47.99
   2   4  -2  687.07   49.80
  -2  -4   2  674.30   48.94
  -2  -4   1 4100.02  163.89
  -2  -4   1 4382.69  168.42
   2   4  -1 4198.39  170.23
   2   4  -1 4358.00  161.72
  -2  -4   1 4265.08  165.43
  -2  -4   1 4263.51  158.56
  -2  -4   0 3579.88  145.27
  -2  -4   0 3661.29  148.27
  -2  -4   0 3715.99  156.44
   2   4   0 3383.47  154.07
  -2  -4   0 3672.34  145.60
   2   4   0 3837.88  162.42
   2   4   1 2582.78  129.09
  -2  -4  -1 2659.13  116.53
  -2  -4  -1 2379.06  127.78
  -2  -4  -1 2613.56  120.58
  -2  -4  -2 1655.62   96.08
   2   4   2 1385.11   93.11
  -2  -4  -2 1504.82  102.67
  -2  -4  -2 1577.87   82.87
  -2  -4  -3  427.31   39.53
   2   4   3  579.73   58.19
  -2  -4  -3  480.27   60.10
  -2  -4  -3  505.58   54.98
  -2  -4  -4  216.81   27.63
   2   4   4  195.28   35.53
  -2  -4  -4  222.78   44.12
  -2  -4  -4  254.92   42.35
  -2  -4  -5  330.15   52.85
  -2  -4  -5  233.36   47.87
   2   4   5  127.88   32.07
  -2  -4  -6 1419.21  131.39
  -2  -4  -6 1719.29  129.56
   2   4   6 1354.82  113.74
  -2  -4  -7 2045.91  166.38
  -2  -4  -7 1858.41  141.47
   2   4   7 1746.00  139.34
   2   4   8 1182.04  119.34
  -2  -4  -8 1493.60  145.94
   2   4   9  911.01  109.25
  -2  -4  -9 1067.06  126.20
   2   5 -13   14.93   22.69
   2   5 -13   25.68   24.66
   2   5 -13   25.78   21.34
   2   5 -12  200.19   54.72
   2   5 -12   36.19   24.77
   2   5 -12  147.67   35.87
   2   5 -11  577.19   89.91
   2   5 -11  733.14   76.88
   2   5 -11  566.53   84.76
  -2  -5  10 1825.20  110.43
   2   5 -10 1903.41  158.43
   2   5 -10 1901.84  123.96
   2   5 -10 1936.55  141.84
  -2  -5   9 2179.98  112.34
   2   5  -9 2074.35  139.69
   2   5  -9 2062.16  125.02
  -2  -5   8 1453.55   80.13
   2   5  -8 1538.20   97.39
  -2  -5   8 1595.83   83.95
   2   5  -8 1381.38  103.81
  -2  -5   7  994.07   58.44
  -2  -5   7 1088.92   66.74
   2   5  -7 1074.35   75.29
   2   5  -7 1073.24   82.65
  -2  -5   6   21.55   10.91
   2   5  -6   30.27   15.66
  -2  -5   6   23.56    7.17
   2   5  -6   43.56   14.91
  -2  -5   5  382.51   38.07
  -2  -5   5  401.27   24.64
   2   5  -5  446.19   44.97
   2   5  -4  875.48   63.08
  -2  -5   4  845.71   34.24
  -2  -5   4  907.11   61.00
   2   5  -3 1613.28   91.00
  -2  -5   3 1712.19   90.81
   2   5  -2 3105.37  137.97
  -2  -5   2 2845.42  131.05
  -2  -5   1 4419.01  177.29
   2   5  -1 4598.65  173.09
  -2  -5   1 4215.36  179.94
  -2  -5   1 4198.45  165.18
   2   5  -1 4542.87  186.71
   2   5   0 1472.28   89.31
  -2  -5   0 1503.64   93.45
   2   5   0 1223.86   88.26
  -2  -5   0 1447.24   78.45
  -2  -5   0 1481.18   84.59
   2   5   1    6.01    9.56
  -2  -5  -1   19.57    9.62
  -2  -5  -1   20.90   10.15
  -2  -5  -1   28.66   14.36
   2   5   2  395.86   48.83
  -2  -5  -2  456.46   56.97
  -2  -5  -2  434.95   42.82
  -2  -5  -2  568.22   52.02
   2   5   3 1121.93   90.49
  -2  -5  -3 1361.23  109.01
  -2  -5  -3 1212.93   77.34
  -2  -5  -3 1262.52   89.34
  -2  -5  -4 1489.51   86.68
   2   5   4 1269.53  102.33
  -2  -5  -4 1323.82  117.27
  -2  -5  -4 1564.71  107.19
  -2  -5  -5 2206.02  161.60
   2   5   5 1718.03  130.60
  -2  -5  -5 2040.59  133.88
  -2  -5  -6 2389.45  179.49
   2   5   6 2325.50  160.79
  -2  -5  -7 1555.71  148.73
   2   5   7 1598.01  137.14
  -2  -5  -8  585.13   91.55
   2   5   8  574.38   85.10
   2   6 -13 1088.81  134.83
   2   6 -13 1032.84  104.55
   2   6 -13  927.49  116.86
   2   6 -12 1428.82  152.76
   2   6 -12 1498.66  151.84
   2   6 -12 1831.86  133.56
   2   6 -11  970.56  117.90
   2   6 -11 1062.72  108.43
   2   6 -11 1126.22   98.29
   2   6 -10  527.09   62.43
   2   6 -10  627.38   77.50
  -2  -6   9  157.00   25.59
   2   6  -9  132.80   34.67
   2   6  -9  125.48   28.44
  -2  -6   8  103.40   21.78
   2   6  -8   86.65   23.35
   2   6  -8   76.68   23.05
   2   6  -7  105.26   26.33
  -2  -6   7  125.32   23.60
   2   6  -7  154.93   28.89
  -2  -6   6 1967.40  105.17
   2   6  -6 1893.11  114.05
   2   6  -6 2084.67  109.55
   2   6  -5 3588.27  165.40
  -2  -6   5 3649.90  159.23
  -2  -6   4 2749.28  130.43
   2   6  -4 2625.05  132.83
  -2  -6   3  566.11   50.82
   2   6  -3  490.48   49.94
  -2  -6   2   90.20   20.95
   2   6  -2  136.23   26.56
   2   6  -1  129.57   27.75
  -2  -6   1  130.03   20.81
   2   6  -1  131.26   22.66
  -2  -6   1  116.80   23.80
  -2  -6   1  145.96   27.83
  -2  -6   0  636.07   57.39
  -2  -6   0  699.30   52.72
   2   6   0  701.87   67.80
  -2  -6   0  833.71   71.72
   2   6   0  658.80   59.65
   2   6   1 1404.61   98.15
  -2  -6  -1 1428.38  105.81
  -2  -6  -1 1593.23   95.01
   2   6   1 1372.78  105.54
  -2  -6  -1 1553.99   87.62
  -2  -6  -2 3047.31  147.41
  -2  -6  -2 3043.51  175.02
   2   6   2 2747.11  156.76
  -2  -6  -2 3345.77  148.90
  -2  -6  -3 3124.43  154.23
   2   6   3 3484.54  182.48
  -2  -6  -3 3531.22  199.43
  -2  -6  -3 3411.77  162.35
  -2  -6  -4 1245.65  120.29
   2   6   4 1623.96  120.65
  -2  -6  -5  613.95   84.61
   2   6   5  597.76   75.62
  -2  -6  -6  124.11   41.26
   2   6   6  184.47   44.52
  -2  -6  -7   24.42   25.47
   2   6   7   18.39   20.11
   2   7 -13  700.13  110.14
   2   7 -13  730.51   88.10
   2   7 -13  620.41   97.43
   2   7 -12  550.33   72.50
   2   7 -12  474.23   86.11
   2   7 -11    8.75   13.80
   2   7 -11   78.25   28.10
   2   7 -10  234.88   47.66
   2   7 -10  155.75   35.94
  -2  -7   9  966.57   72.22
   2   7  -9  864.60   88.38
   2   7  -9  901.43   81.14
  -2  -7   8 1034.30   75.40
   2   7  -8 1053.20   91.02
   2   7  -8  970.96   80.68
  -2  -7   7 1153.81   79.90
   2   7  -7  946.67   82.80
   2   7  -7 1136.80   82.71
  -2  -7   6 1380.19   90.16
   2   7  -6 1533.46  102.06
   2   7  -6 1300.90   87.82
  -2  -7   5  427.57   48.27
   2   7  -5  517.47   55.45
  -2  -7   4   57.43   17.46
   2   7  -4   53.08   18.54
  -2  -7   3  487.38   51.82
   2   7  -3  475.15   53.10
  -2  -7   2 1970.06  114.96
   2   7  -2 2030.89  120.84
  -2  -7   1 1722.09  107.71
  -2  -7   1 1854.30  117.57
   2   7  -1 1898.11  119.67
  -2  -7   0 2193.82  122.17
  -2  -7   0 1971.48  128.34
   2   7   0 2045.13  131.62
  -2  -7   0 1918.97  101.49
  -2  -7  -1 1659.13  105.73
  -2  -7  -1 1814.68  126.32
   2   7   1 1495.38  117.56
  -2  -7  -1 1666.07   93.26
   2   7   1 1525.98  107.88
  -2  -7  -2 1498.66  100.25
   2   7   2 1362.28  106.41
  -2  -7  -2 1450.86  120.54
  -2  -7  -2 1476.01   90.00
   2   7   2 1415.87  120.44
  -2  -7  -3  412.04   49.72
  -2  -7  -3  412.72   65.44
   2   7   3  322.24   52.10
  -2  -7  -4   16.37   16.25
   2   7   4   27.11   21.93
  -2  -7  -5   93.54   34.41
   2   7   5  115.46   34.44
  -2  -7  -6 1235.54  133.77
   2   7   6 1176.96  119.62
   2   8 -12  120.53   40.51
   2   8 -12  112.43   35.46
   2   8 -11  287.22   56.73
   2   8 -11  314.70   53.26
   2   8 -10 1080.77  104.90
   2   8 -10 1010.68   92.94
  -2  -8   9 1308.49   93.55
   2   8  -9 1467.35  108.65
   2   8  -9 1521.00  120.01
   2   8  -8  784.38   73.74
  -2  -8   8  845.30   71.84
   2   8  -8  717.45   77.34
   2   8  -7  126.16   32.14
   2   8  -7  138.22   29.30
  -2  -8   7  143.17   29.28
   2   8  -6  164.47   30.79
  -2  -8   6  127.79   28.14
   2   8  -6  132.71   31.60
  -2  -8   5  640.87   63.45
   2   8  -5  642.46   66.77
  -2  -8   4  896.30   76.12
   2   8  -4  862.18   77.89
  -2  -8   3 1731.94  109.90
   2   8  -3 1475.06  106.73
   2   8  -2 1757.28  118.82
  -2  -8   2 1732.09  113.65
  -2  -8   1 1621.89  109.42
   2   8  -1 1560.65  114.94
  -2  -8   0 1145.00   90.70
  -2  -8   0 1156.39  100.69
   2   8   0 1061.73   97.65
   2   8   1   11.44   14.29
  -2  -8  -1   20.83   13.19
  -2  -8  -1    3.93   11.14
  -2  -8  -2  435.53   55.46
   2   8   2  542.35   75.63
  -2  -8  -2  390.81   63.89
   2   8   3  745.44   93.83
  -2  -8  -3  830.08   99.51
  -2  -8  -3  837.97   78.30
  -2  -8  -4  648.07   91.97
  -2  -8  -5  994.33  119.08
   2   9 -12 1148.56  121.56
   2   9 -12  967.34  101.62
   2   9 -11  565.73   74.11
   2   9 -11  745.82   92.92
   2   9 -10  196.91   45.91
   2   9 -10  209.62   42.29
  -2  -9  10  197.28   37.02
   2   9  -9   86.14   27.73
  -2  -9   9   47.74   21.09
   2   9  -9   86.11   32.05
  -2  -9   8  107.21   28.88
   2   9  -8   54.74   24.12
   2   9  -8  130.42   30.62
  -2  -9   7  523.34   59.97
   2   9  -7  412.79   58.80
   2   9  -7  449.20   54.45
  -2  -9   6 1708.26  115.33
   2   9  -6 1542.61  104.02
   2   9  -6 1666.79  120.46
  -2  -9   5 1714.28  117.74
   2   9  -5 1797.39  124.66
  -2  -9   4 1118.97   92.92
   2   9  -4 1300.08  102.69
  -2  -9   3  560.88   63.41
   2   9  -3  379.05   55.24
   2   9  -2   58.46   24.43
  -2  -9   2   18.91   13.16
  -2  -9   1   13.56   15.47
   2   9  -1    5.10   12.77
  -2  -9   0  487.17   61.13
   2   9   0  466.34   66.17
  -2  -9   0  418.62   63.54
  -2  -9  -1 1324.23  105.25
  -2  -9  -1 1198.73  115.61
   2   9   1 1086.44  109.79
   2   9   2 1370.12  130.66
  -2  -9  -2 1553.95  116.07
  -2  -9  -2 1477.00  135.11
  -2  -9  -3 1506.69  142.45
   2   9   3 1514.62  142.34
   2   9   4  439.42   79.97
  -2  -9  -4  651.60   95.06
   2  10 -11    3.21   19.76
   2  10 -11   37.92   21.49
  -2 -10  10  350.35   53.20
   2  10 -10  532.24   78.27
   2  10 -10  544.68   70.40
   2  10  -9  868.87   95.84
  -2 -10   9  883.41   84.36
   2  10  -9  809.49   84.13
   2  10  -8  898.93   84.64
   2  10  -8  890.67   93.51
  -2 -10   8  724.36   78.01
   2  10  -7  652.35   68.02
  -2 -10   7  673.02   74.23
   2  10  -7  570.90   73.45
  -2 -10   6  709.39   75.76
   2  10  -6  522.97   68.02
   2  10  -6  617.81   63.96
  -2 -10   5  200.47   41.72
   2  10  -5  256.45   48.11
   2  10  -5  286.69   40.86
   2  10  -4   29.39   23.07
  -2 -10   4   28.61   18.96
   2  10  -3  182.66   41.44
  -2 -10   3  210.06   41.81
  -2 -10   2 1139.75  101.76
   2  10  -2 1272.38  111.18
  -2 -10   1 1576.50  121.43
   2  10  -1 1449.39  125.01
  -2 -10   0 1501.42  120.06
   2  10   0 1530.53  131.80
  -2 -10  -1  864.46   89.02
  -2 -10  -1  765.09   96.51
   2  10   1  659.67   88.87
  -2 -10  -2  762.79  100.44
   2  10   2  658.10   91.51
  -2 -10  -2  767.06   84.61
  -2 -11   9  858.63   88.92
   2  11  -9  818.89   87.15
   2  11  -9  940.40  102.94
   2  11  -8  368.97   63.33
  -2 -11   8  347.37   56.80
   2  11  -8  324.63   51.47
  -2 -11   7   33.37   19.52
   2  11  -7   40.66   23.74
   2  11  -7   55.55   23.23
  -2 -11   6  275.49   51.33
   2  11  -6  327.61   57.62
   2  11  -6  306.59   46.66
   2  11  -5  548.60   73.32
  -2 -11   5  696.44   80.84
   2  11  -4  683.17   83.16
  -2 -11   4  713.81   81.66
  -2 -11   3 1559.58  128.29
   2  11  -3 1880.77  141.86
  -2 -11   2 1757.55  135.63
   2  11  -2 1569.10  133.36
   2  11  -1 1100.68  112.70
  -2 -11   1 1100.51  106.78
   2  11   0  370.08   67.04
  -2 -11   0  312.19   56.35
  -2 -12   7  956.58   99.48
   2  12  -7  822.07   97.10
  -2 -12   6 1685.68  136.30
   2  12  -6 1474.10  131.91
   2  12  -5 1322.75  123.81
  -2 -12   5 1402.20  124.18
  -2 -12   4  840.56   96.03
   2  12  -4  757.67   92.74
   2  12  -3  348.89   62.19
  -2 -12   3  274.76   54.11
   3 -12   2   -4.77   14.93
   3 -12   3  154.28   41.31
   3 -12   4  515.69   76.99
   3 -12   5  502.43   74.37
   3 -12   6  798.12   93.63
   3 -11  -1   29.82   20.49
   3 -11   0   -5.50   20.29
   3 -11   1  104.45   33.63
  -3  11  -2  678.97   70.69
   3 -11   2  625.47   80.41
  -3  11  -3 1452.54  106.17
   3 -11   3 1397.52  121.52
   3 -11   4 1486.51  126.85
  -3  11  -4 1775.49  119.01
   3 -11   5 1114.11  106.54
  -3  11  -5 1126.00   94.23
   3 -11   6  346.05   58.67
  -3  11  -6  390.24   55.13
  -3  11  -7   87.25   27.88
   3 -11   7   86.89   30.09
  -3  11  -8   -7.21   13.43
   3 -11   8   22.04   18.66
   3 -10  -3  372.20   62.57
   3 -10  -3  326.01   59.86
   3 -10  -2   83.41   30.96
  -3  10   1 1039.34   89.57
   3 -10  -1 1154.02  107.05
   3 -10   0 1309.80  114.81
  -3  10   0 1226.01   94.73
   3 -10   1  937.75   95.16
  -3  10  -1 1206.90   90.59
   3 -10   2  872.12   88.78
  -3  10  -2  731.38   69.58
   3 -10   3  883.55   89.70
  -3  10  -3  919.34   77.63
  -3  10  -4  430.37   52.50
   3 -10   4  446.38   62.50
  -3  10  -5  -24.27   14.55
   3 -10   5   12.76   13.30
   3 -10   6  299.66   50.11
  -3  10  -6  242.90   41.65
   3 -10   7  975.59   93.65
  -3  10  -7 1029.56   91.42
  -3  10  -8 1238.13  105.44
  -3  10  -8 1233.59  105.01
   3 -10   8 1181.00  104.00
  -3  10  -9 1081.04  103.11
   3 -10   9 1015.31   96.78
  -3  10  -9 1078.36  102.89
  -3  10 -10  774.94   92.11
  -3  10 -10  788.16   91.90
   3  -9  -5   18.35   17.64
  -3   9   4  144.83   36.19
   3  -9  -4  134.15   37.74
   3  -9  -3  295.37   52.45
   3  -9  -3  393.64   59.43
  -3   9   3  404.11   56.30
   3  -9  -2  994.32   94.67
  -3   9   2 1108.94   91.32
   3  -9  -2 1101.86  100.90
   3  -9  -1 1882.43  132.05
  -3   9   1 1705.64  112.48
   3  -9   0 1073.59   95.94
  -3   9   0  980.07   78.42
   3  -9   1  468.06   62.20
  -3   9  -1  558.13   55.37
   3  -9   2   37.23   16.41
  -3   9  -2   13.87    8.76
  -3   9  -3  321.56   41.38
   3  -9   3  216.56   42.14
   3  -9   4  822.18   80.26
  -3   9  -4  785.15   67.48
   3  -9   5 1129.34   97.22
  -3   9  -5 1418.42   95.50
   3  -9   6 1461.25  109.74
  -3   9  -6 1423.26  101.29
  -3   9  -6 1395.70   99.64
   3  -9   7 2293.89  143.01
  -3   9  -7 2280.04  139.78
  -3   9  -7 2212.98  138.54
   3  -9   8 1439.54  109.77
  -3   9  -8 1467.51  113.29
  -3   9  -8 1364.44  110.31
  -3   9  -9  443.12   63.49
  -3   9  -9  340.26   55.55
  -3   9 -10   17.34   19.24
  -3   9 -10   11.51   14.09
   3  -8  -6  226.87   51.45
  -3   8   6  329.83   51.54
  -3   8   5  881.26   89.46
   3  -8  -5  887.43   97.13
  -3   8   5 1027.76   88.34
   3  -8  -4 1268.64  111.31
   3  -8  -4 1287.67  107.20
  -3   8   4 1276.80   94.21
  -3   8   4 1239.17  102.76
   3  -8  -3 1154.49  100.27
   3  -8  -3 1216.27  104.03
  -3   8   3 1197.87   85.58
  -3   8   3 1209.64   95.75
   3  -8  -2  721.18   74.96
   3  -8  -2  691.64   72.13
  -3   8   2  583.76   61.36
   3  -8  -1   66.41   22.32
  -3   8   1   51.66   18.03
   3  -8  -1   56.50   20.12
   3  -8   0   10.46   11.35
  -3   8   0   44.53   16.44
   3  -8   1  282.86   44.03
  -3   8  -1  333.19   38.99
   3  -8   2 1913.77  125.12
  -3   8  -2 2175.25  111.37
   3  -8   3 3348.69  174.84
  -3   8  -3 3529.83  156.52
   3  -8   4 3244.34  168.62
  -3   8  -4 3109.39  149.37
  -3   8  -4 3297.65  149.76
  -3   8  -5 2072.23  118.04
   3  -8   5 2083.73  128.13
  -3   8  -5 2141.41  118.67
   3  -8   6  733.96   70.44
  -3   8  -6  642.96   62.97
  -3   8  -6  583.20   61.07
   3  -8   7   71.46   23.98
  -3   8  -7  110.49   28.32
  -3   8  -7   99.71   27.43
   3  -8   8    1.61    9.65
  -3   8  -8   10.69   11.68
  -3   8  -8   23.85   13.77
  -3   8  -9  132.10   35.45
  -3   8  -9  191.04   42.07
  -3   8 -10  875.23   95.13
  -3   8 -11 1623.66  152.93
  -3   8 -11 1180.50  118.20
   3  -7  -7  835.25   98.34
  -3   7   7  824.49   85.14
  -3   7   6  895.12   83.42
   3  -7  -6  853.02   94.46
   3  -7  -5  762.87   84.96
  -3   7   5  816.63   74.39
   3  -7  -4  719.60   78.13
  -3   7   4  789.41   68.56
   3  -7  -4  832.87   79.20
   3  -7  -3   16.22   13.81
  -3   7   3   23.98   13.23
   3  -7  -3    6.13   10.26
  -3   7   3   24.12   14.56
   3  -7  -2  625.52   65.29
   3  -7  -2  578.68   62.12
  -3   7   2  638.07   52.72
  -3   7   2  549.73   54.94
   3  -7  -1 2473.86  143.17
   3  -7  -1 2691.46  142.48
  -3   7   1 2817.57  121.95
  -3   7   1 2674.79  130.82
   3  -7   0 2844.81  150.99
  -3   7   0 2850.69  131.09
   3  -7   1 2748.61  147.68
  -3   7  -1 2822.13  127.27
  -3   7  -2 2321.96  104.57
   3  -7   2 2152.95  126.68
  -3   7  -2 2377.57  111.40
  -3   7  -3 1027.03   66.92
   3  -7   3  971.15   77.93
  -3   7  -3  896.96   62.37
   3  -7   4 1392.67   95.31
  -3   7  -4 1355.62   84.65
  -3   7  -4 1430.86   84.82
   3  -7   5    0.28    8.39
  -3   7  -5   -1.21    8.24
  -3   7  -5   25.77   12.74
   3  -7   6  772.05   68.35
  -3   7  -6  733.64   68.15
  -3   7  -6  692.16   64.23
  -3   7  -7 1808.56  114.85
   3  -7   7 1504.37  102.56
  -3   7  -7 1630.17  112.64
  -3   7  -8 1894.38  126.44
   3  -7   8 1734.36  111.05
  -3   7  -8 1730.59  123.54
  -3   7  -9  877.40   89.59
  -3   7 -10  894.67  106.01
  -3   7 -10  883.34   94.67
  -3   7 -11  157.58   40.55
  -3   7 -11  239.69   59.68
   3  -6  -8 1093.86  115.60
  -3   6   8  998.93   96.14
   3  -6  -7  496.75   72.35
  -3   6   7  459.44   60.41
   3  -6  -6   10.79   16.37
  -3   6   6   -5.86   16.09
   3  -6  -5  197.69   40.53
  -3   6   5  210.91   35.05
  -3   6   4 1146.11   80.04
   3  -6  -4 1036.28   89.56
   3  -6  -4  999.49   83.39
   3  -6  -3 1319.87   98.13
   3  -6  -3 1692.40  109.35
  -3   6   3 1747.60   95.44
   3  -6  -2 2188.50  125.14
   3  -6  -2 2020.37  118.47
  -3   6   2 2202.28  106.25
  -3   6   2 2264.49  115.03
   3  -6  -1 3079.10  155.75
   3  -6  -1 3335.69  152.66
  -3   6   1 3326.19  141.67
   3  -6   0 2641.99  137.27
  -3   6   0 2718.34  118.36
   3  -6   1 1084.59   78.88
  -3   6  -1 1029.51   61.42
   3  -6   1 1045.90   73.80
  -3   6  -1 1080.94   57.37
   3  -6   2   14.11    9.71
  -3   6  -2    5.94    6.44
   3  -6   2   17.19   10.02
  -3   6  -2   11.78    7.30
   3  -6   3  379.77   44.79
   3  -6   3  490.42   46.35
  -3   6  -3  378.05   36.63
  -3   6  -3  515.56   43.71
   3  -6   4 1188.90   83.57
  -3   6  -4 1288.50   76.43
   3  -6   4 1276.17   77.93
  -3   6  -4 1289.82   81.16
   3  -6   5 2878.29  139.06
   3  -6   5 2603.17  122.73
  -3   6  -5 2685.67  130.97
  -3   6  -5 2608.09  135.17
   3  -6   6 2465.80  112.71
   3  -6   6 2356.43  126.12
  -3   6  -6 2358.67  128.69
   3  -6   6 2292.14  122.22
  -3   6  -6 2455.06  134.58
   3  -6   7 2548.19  132.74
  -3   6  -7 2297.52  137.66
   3  -6   7 2725.71  143.07
  -3   6  -7 2437.17  143.32
  -3   6  -8 1159.72   99.12
   3  -6   8 1284.79   88.29
  -3   6  -9   79.85   31.25
  -3   6 -10   74.80   27.51
  -3   6 -10   99.36   36.53
  -3   6 -11  479.17   73.13
  -3   6 -11  439.22   77.52
  -3   6 -12  179.83   53.08
  -3   6 -12  317.81   63.14
   3  -5  -9  102.45   36.90
  -3   5   9   14.63   13.84
   3  -5  -8   31.88   21.76
  -3   5   8   19.92   19.33
   3  -5  -8   41.50   26.05
   3  -5  -7  124.54   41.00
   3  -5  -7  137.62   36.76
  -3   5   7  168.69   36.31
   3  -5  -6 1132.86  118.21
   3  -5  -6 1081.04   99.39
  -3   5   6 1237.34   90.79
   3  -5  -5 2176.20  169.17
   3  -5  -5 2170.46  138.10
   3  -5  -5 2310.71  130.46
  -3   5   5 2176.26  121.66
   3  -5  -4 4136.12  233.74
  -3   5   4 4159.81  195.64
   3  -5  -4 3545.01  179.78
   3  -5  -4 3736.27  176.02
  -3   5   4 3592.96  163.28
   3  -5  -3 1436.03  124.34
   3  -5  -3 1149.03   83.82
   3  -5  -3 1260.45   86.67
  -3   5   3 1237.99   75.63
   3  -5  -2  761.98   60.42
   3  -5  -2  695.50   61.13
  -3   5   1   68.06   13.95
   3  -5  -1   61.94   17.60
   3  -5  -1   33.34   11.32
   3  -5  -1   57.38   15.96
   3  -5   0  109.76   21.20
   3  -5   0  114.29   23.46
  -3   5   0  121.11   14.71
  -3   5   0   98.95   15.60
   3  -5   1  436.55   45.08
  -3   5  -1  408.99   32.53
   3  -5   1  434.05   41.89
  -3   5  -1  538.05   36.96
   3  -5   2 5098.77  204.81
  -3   5  -2 5168.33  180.63
   3  -5   2 4986.40  195.95
  -3   5  -2 5083.68  187.32
   3  -5   3 5584.10  216.50
  -3   5  -3 5725.15  198.46
  -3   5  -3 5378.09  206.08
   3  -5   3 5192.12  203.50
   3  -5   4 5069.62  192.47
   3  -5   4 4918.83  199.23
   3  -5   4 4901.61  187.59
  -3   5  -4 4851.14  198.45
  -3   5  -4 4918.34  189.76
   3  -5   5 1535.55   89.50
   3  -5   5 1436.30   89.22
  -3   5  -5 1449.69   87.19
   3  -5   5 1428.13   77.07
  -3   5  -5 1234.99   87.45
   3  -5   6   77.79   21.53
  -3   5  -6  114.57   25.45
   3  -5   6  141.58   25.62
   3  -5   6  164.14   22.27
  -3   5  -6   81.47   23.32
   3  -5   7   17.29   14.84
   3  -5   7   30.30   13.94
  -3   5  -7   40.36   18.38
   3  -5   8  120.75   31.56
  -3   5  -8   49.53   19.86
  -3   5  -9  238.98   51.97
   3  -5   9  242.79   46.42
  -3   5  -9  208.01   43.94
  -3   5 -10 1028.18  115.05
   3  -5  10 1108.46  108.39
  -3   5 -10 1074.27  105.72
  -3   5 -11 1103.69  123.22
  -3   5 -11  841.26  100.04
   3  -5  11 1077.83  111.05
  -3   5 -12  507.73   80.25
  -3   5 -12  406.64   77.66
   3  -4 -10   28.09   25.14
  -3   4  10   40.63   19.42
   3  -4  -9  571.60   82.15
  -3   4   9  618.12   73.40
   3  -4  -9  709.56   92.29
   3  -4  -8 1082.81  109.85
  -3   4   8 1278.16  101.05
   3  -4  -8 1452.17  133.97
   3  -4  -7 1482.41  121.79
  -3   4   7 1681.88  110.63
   3  -4  -7 1734.52  148.19
   3  -4  -6  726.93   76.79
  -3   4   6  798.29   68.39
   3  -4  -6  935.56  105.16
  -3   4   5  836.13   65.64
   3  -4  -5  797.25   68.81
  -3   4   5  862.56   77.82
   3  -4  -5  704.26   70.22
   3  -4  -5  878.14  100.46
  -3   4   4  889.77   77.67
   3  -4  -4  758.26   66.69
   3  -4  -4  975.06  101.35
   3  -4  -4  771.34   64.84
  -3   4   4  746.72   58.03
   3  -4  -3   13.25   16.77
   3  -4  -3   13.95    8.14
   3  -4  -3    7.51    6.88
   3  -4  -3   32.00   13.32
   3  -4  -2 1444.45  115.60
   3  -4  -2 1792.40   97.75
   3  -4  -2 1564.04   85.93
   3  -4  -2 1628.22   88.05
   3  -4  -1 4355.03  180.18
   3  -4  -1 4368.53  212.90
   3  -4  -1 4108.15  170.65
  -3   4   1 4541.34  157.58
   3  -4  -1 4460.42  166.98
   3  -4   0 3287.79  148.32
  -3   4   0 3434.89  127.64
  -3   4   0 3504.37  123.21
   3  -4   0 3524.35  143.43
  -3   4  -1 4768.61  160.87
  -3   4  -1 4989.80  175.18
   3  -4   1 4768.70  181.27
   3  -4   1 4521.74  186.87
   3  -4   2 3864.54  159.19
   3  -4   2 3726.77  149.83
  -3   4  -2 3899.32  151.29
  -3   4  -2 3633.17  135.24
   3  -4   3 1244.39   76.33
  -3   4  -3 1307.37   68.04
   3  -4   3 1339.91   72.53
   3  -4   3 1243.72   73.46
  -3   4  -3 1243.40   75.59
   3  -4   4  730.72   56.20
   3  -4   4  629.26   46.60
  -3   4  -4  633.62   49.88
   3  -4   4  674.27   56.91
  -3   4  -4  725.79   58.72
  -3   4  -5   41.28   14.36
   3  -4   5   48.06   17.83
   3  -4   5   23.59    8.60
   3  -4   5   37.07   12.73
  -3   4  -5   60.39   18.87
   3  -4   6  672.25   55.52
   3  -4   6  664.49   45.69
   3  -4   6  611.92   65.91
  -3   4  -6  613.75   62.05
  -3   4  -7 1320.10  109.45
   3  -4   7 1348.09   83.19
   3  -4   7 1351.93  106.56
  -3   4  -7 1206.78   96.90
  -3   4  -8 1569.45  128.90
   3  -4   8 1325.22  113.69
  -3   4  -8 1566.13  116.45
   3  -4   9  978.59   98.26
  -3   4  -9  860.20   90.22
  -3   4  -9  738.44   91.66
  -3   4 -10  435.39   73.30
   3  -4  10  402.01   66.47
  -3   4 -10  316.28   57.13
  -3   4 -11  110.24   36.97
  -3   4 -11  115.42   39.54
   3  -4  11  108.49   38.45
  -3   4 -12  -25.13   22.09
   3  -4  12   33.11   27.99
  -3   4 -12   14.23   19.12
   3  -3 -11  138.01   46.25
  -3   3  11  274.15   53.05
   3  -3 -10  799.78  101.65
  -3   3  10  937.62   92.96
   3  -3 -10  664.43   90.14
   3  -3  -9 1133.50  116.12
  -3   3   9 1261.62  102.74
   3  -3  -9 1241.78  124.25
   3  -3  -8 1243.55  115.75
  -3   3   8 1362.95  101.59
   3  -3  -8 1563.21  138.61
   3  -3  -7  271.61   56.36
   3  -3  -7  229.29   43.78
  -3   3   7  188.57   33.03
   3  -3  -6  353.36   62.57
   3  -3  -6  298.53   45.94
  -3   3   6  270.78   37.48
   3  -3  -5   58.13   12.78
   3  -3  -5   21.54   16.74
  -3   3   5   44.56   17.55
   3  -3  -5   24.46   13.64
  -3   3   5   43.68   15.76
   3  -3  -4 1443.21   90.62
   3  -3  -4 1505.10   92.40
   3  -3  -4 1352.01   77.70
   3  -3  -4 1389.08  119.17
   3  -3  -4 1552.09   64.87
  -3   3   4 1398.29  100.69
   3  -3  -3 3290.78  143.53
  -3   3   3 3739.96  173.55
   3  -3  -3 3339.38  138.65
   3  -3  -3 3261.56  150.73
   3  -3  -3 3542.33  193.03
   3  -3  -2 5106.28  182.22
   3  -3  -2 4582.17  192.04
  -3   3   2 4952.57  208.75
   3  -3  -2 5072.56  185.12
   3  -3  -2 5179.29  233.74
  -3   3   1 6624.87  199.85
   3  -3  -1 6308.78  268.12
   3  -3  -1 6602.60  243.33
   3  -3  -1 6881.91  222.65
  -3   3   1 6879.57  212.39
   3  -3  -1 6592.95  231.87
   3  -3   0 4061.92  163.97
  -3   3   0 4101.40  130.53
   3  -3   0 4063.85  154.62
  -3   3   0 3855.45  148.63
   3  -3   1 2598.32  118.68
  -3   3  -1 2525.68  112.36
  -3   3  -1 2551.35   91.01
   3  -3   1 2624.05  111.21
   3  -3   2  406.92   39.18
   3  -3   2  370.53   34.19
  -3   3  -2  388.36   28.78
  -3   3  -2  443.44   40.04
   3  -3   2  357.69   34.89
   3  -3   3  622.00   50.48
   3  -3   3  679.59   55.16
  -3   3  -3  690.39   55.07
  -3   3  -3  611.68   44.87
   3  -3   3  758.24   49.52
   3  -3   4 1134.31   70.71
  -3   3  -4 1127.38   77.47
   3  -3   4 1015.19   78.49
   3  -3   4 1092.29   64.01
   3  -3   5 1567.66   81.13
   3  -3   5 1608.41   88.31
   3  -3   5 1423.64  102.10
  -3   3  -5 1511.21   98.85
  -3   3  -6 1710.85  119.89
   3  -3   6 1544.56  112.97
   3  -3   6 1727.60   85.28
  -3   3  -6 1502.38  106.15
   3  -3   7 2256.63  151.56
  -3   3  -7 2640.92  166.27
  -3   3  -7 2802.56  126.12
  -3   3  -7 2429.06  148.39
  -3   3  -8  845.30   93.97
  -3   3  -8  908.78   89.11
   3  -3   8  742.70   84.74
  -3   3  -9    6.77   13.47
  -3   3  -9    7.06   16.79
   3  -3   9    3.91   18.20
  -3   3 -10  317.65   58.92
  -3   3 -10  355.11   66.74
   3  -3  10  301.00   58.58
  -3   3 -11  438.92   77.73
   3  -3  11  399.80   71.24
  -3   3 -11  509.40   78.67
  -3   3 -12  486.14   79.38
   3  -3  12  519.18   85.66
  -3   3 -12  671.50   98.06
   3  -2 -11  377.65   72.26
  -3   2  11  498.34   69.00
   3  -2 -10  255.66   56.51
  -3   2  10  371.36   56.63
   3  -2 -10  278.28   58.55
   3  -2  -9   72.78   30.59
   3  -2  -9  119.71   37.79
  -3   2   9   43.16   19.10
  -3   2   8   11.38   11.57
   3  -2  -8   38.10   21.49
   3  -2  -8   -6.92   16.89
   3  -2  -7  535.59   66.60
  -3   2   7  522.43   53.48
   3  -2  -7  544.14   47.85
   3  -2  -7  573.71   79.44
  -3   2   6 1450.49   89.39
   3  -2  -6 1477.04  106.57
   3  -2  -6 1471.86  126.16
   3  -2  -6 1613.52   80.10
  -3   2   6 1403.14   83.24
   3  -2  -5 4246.11  196.46
   3  -2  -5 4762.35  172.14
  -3   2   5 4670.56  181.27
   3  -2  -5 4848.99  241.66
   3  -2  -5 4661.37  160.95
  -3   2   5 3825.58  181.28
   3  -2  -4 7781.19  280.42
   3  -2  -4 7670.16  260.91
  -3   2   4 6970.29  287.01
   3  -2  -4 7987.92  242.44
   3  -2  -4 7306.24  321.17
   3  -2  -3 3752.56  146.18
   3  -2  -3 3623.42  187.74
  -3   2   3 3819.15  176.99
   3  -2  -3 3567.92  117.01
   3  -2  -3 3663.98  140.53
   3  -2  -2  857.29   47.79
   3  -2  -2  930.06   65.69
   3  -2  -2  897.85   53.40
   3  -2  -2  908.39   76.97
  -3   2   2  916.27   73.77
   3  -2  -1  187.77   16.49
  -3   2   1  137.69   26.10
   3  -2  -1  135.13   26.62
  -3   2   1  183.05   12.53
  -3   2   1  178.83   15.37
   3  -2  -1  194.54   27.96
   3  -2  -1  221.27   24.44
  -3   2   0  142.03   25.18
  -3   2   0  152.79   20.92
  -3   2   0  146.94    9.43
   3  -2   0  126.17   22.93
   3  -2   0  153.29   24.24
   3  -2   0  139.91   19.51
  -3   2  -1  917.77   42.38
   3  -2   1  889.19   61.72
  -3   2  -1  991.20   64.88
  -3   2  -1  933.31   64.79
   3  -2   1  978.17   57.54
   3  -2   2 3692.30  153.38
  -3   2  -2 3811.91  159.39
   3  -2   2 3696.14  154.53
   3  -2   2 3473.60  143.39
   3  -2   3 5455.41  222.94
   3  -2   3 5288.79  199.62
  -3   2  -3 5545.45  207.75
  -3   2  -3 5461.02  218.44
  -3   2  -4 3457.48  165.26
  -3   2  -4 3457.92  148.15
   3  -2   4 3446.02  169.41
  -3   2  -4 3453.86  163.92
  -3   2  -5 1150.23   71.85
  -3   2  -5 1067.33   88.07
  -3   2  -5 1167.64   87.47
   3  -2   5 1072.31   88.94
  -3   2  -6  118.11   21.11
  -3   2  -6   82.90   26.65
  -3   2  -6   74.82   23.69
   3  -2   6   83.23   27.32
  -3   2  -7   21.79   18.40
  -3   2  -7    4.44   13.10
   3  -2   7   36.61   19.48
  -3   2  -8  157.43   39.05
  -3   2  -8  176.53   42.00
   3  -2   8   82.56   29.14
   3  -2   9  564.74   78.70
  -3   2  -9  643.13   86.33
  -3   2  -9  671.07   82.58
  -3   2 -10 1087.54  118.26
  -3   2 -10 1074.13  110.66
   3  -2  10  967.37  108.94
  -3   2 -11 1218.97  129.73
   3  -2  11 1119.69  124.07
  -3   2 -11  922.42  107.60
   3  -1 -12  274.68   62.68
  -3   1  12  106.90   35.81
   3  -1 -11   45.21   23.70
   3  -1 -11   41.56   25.71
  -3   1  11    9.29   14.28
   3  -1 -10  240.50   55.61
   3  -1 -10  238.26   54.78
  -3   1  10  296.88   48.18
   3  -1  -9 1537.75  135.00
  -3   1   9 1737.61  114.67
   3  -1  -9 1725.52  107.00
   3  -1  -9 1616.05  141.03
   3  -1  -8 2002.65  148.11
   3  -1  -8 2500.92  172.27
  -3   1   8 2122.76  122.97
   3  -1  -8 2164.08  114.54
   3  -1  -7 2470.21  158.61
   3  -1  -7 2573.02  174.54
   3  -1  -7 2898.48  126.05
  -3   1   7 2657.20  133.91
  -3   1   6 2065.30  107.69
   3  -1  -6 1949.90  127.50
   3  -1  -6 2042.60  146.35
   3  -1  -6 2247.79   98.63
  -3   1   6 2157.72  101.06
   3  -1  -6 2151.26   94.01
   3  -1  -5 2751.30  145.12
   3  -1  -5 2923.99  172.61
  -3   1   5 2936.58  133.62
   3  -1  -5 3174.23  120.30
   3  -1  -5 3021.43  115.67
   3  -1  -4  768.24   58.31
   3  -1  -4  866.04   43.26
   3  -1  -4  787.53   76.35
   3  -1  -4  908.89   50.63
  -3   1   4  763.95   61.51
   3  -1  -3  165.86   21.21
   3  -1  -3  167.22   32.14
  -3   1   3  136.95   26.68
   3  -1  -3  145.68   18.82
   3  -1  -2 2172.84   81.94
  -3   1   2 2190.35  121.34
   3  -1  -2 2001.52  115.83
   3  -1  -2 2192.65   93.18
  -3   1   2 2133.41   77.78
   3  -1  -1 7176.37  208.12
   3  -1  -1 6480.18  255.29
   3  -1  -1 6971.42  236.95
  -3   1   1 6762.48  269.57
  -3   1   1 6896.74  224.40
   3  -1   0 3550.31  144.05
  -3   1   0 3749.56  163.57
  -3   1   0 3284.71  137.95
   3  -1   0 3462.35  138.05
   3  -1   1 3442.77  143.82
  -3   1  -1 3807.44  159.14
  -3   1  -1 3330.46  150.30
   3  -1   1 3278.09  130.72
  -3   1  -2 3845.68  155.63
  -3   1  -2 3640.67  168.59
  -3   1  -2 4020.82  165.89
   3  -1   2 3658.25  165.80
  -3   1  -3 3108.09  145.79
  -3   1  -3 2990.47  134.25
  -3   1  -3 2974.23  148.72
   3  -1   3 2823.80  148.22
   3  -1   4  656.97   66.33
  -3   1  -4  754.88   68.16
  -3   1  -4  666.39   51.32
  -3   1  -4  653.46   63.82
  -3   1  -5  179.38   34.27
  -3   1  -5  210.13   38.28
  -3   1  -5  207.35   26.15
   3  -1   5  176.15   35.35
  -3   1  -6 1342.10  110.03
   3  -1   6 1233.44  104.26
  -3   1  -6 1386.62  105.83
  -3   1  -6 1357.63   69.74
  -3   1  -7 1806.07  136.53
  -3   1  -7 1844.95  131.02
   3  -1   7 1654.68  127.77
   3  -1   8 1080.12  108.77
  -3   1  -8 1469.65  127.01
  -3   1  -8 1515.46  122.13
  -3   1  -9  719.37   93.36
  -3   1  -9  849.60   94.08
   3  -1   9  599.54   82.49
  -3   1 -10  152.72   39.90
  -3   1 -10  247.74   55.78
   3  -1  10  222.00   53.46
  -3   1 -11   43.12   25.90
  -3   1 -11   38.76   22.31
   3  -1  11  -17.41   22.24
   3   0 -12  270.94   61.74
  -3   0  12  277.85   52.12
   3   0 -11  520.64   84.46
   3   0 -11  659.14   90.15
  -3   0  11  553.76   68.63
   3   0 -10 1462.29  137.65
   3   0 -10 1437.00  133.17
  -3   0  10 1486.34  109.23
   3   0 -10 1459.01  103.22
   3   0  -9 2396.36  172.58
   3   0  -9 2337.10  171.71
  -3   0   9 2338.95  135.01
   3   0  -9 2417.83  129.52
   3   0  -8 1993.39  147.56
   3   0  -8 2037.05  154.03
  -3   0   8 2027.40  116.41
   3   0  -8 2104.17  110.18
  -3   0   7  599.16   41.86
   3   0  -7  605.79   71.16
  -3   0   7  481.97   48.22
   3   0  -7  556.09   46.92
   3   0  -7  522.78   69.88
   3   0  -6  141.35   31.77
   3   0  -6  168.32   18.87
  -3   0   6  170.97   25.84
   3   0  -6  182.74   23.18
   3   0  -6  124.22   31.19
  -3   0   6  164.86   22.18
   3   0  -5 1297.56   64.30
   3   0  -5 1210.60   86.61
   3   0  -5 1231.78   98.14
   3   0  -5 1235.87   60.38
  -3   0   5 1333.02   73.54
   3   0  -4 1633.13  107.04
   3   0  -4 1547.64   90.10
   3   0  -4 1803.97   75.66
  -3   0   4 1565.59   87.16
   3   0  -3 4506.45  192.90
   3   0  -3 4111.63  162.22
   3   0  -3 4832.40  161.03
  -3   0   3 4373.43  178.79
   3   0  -2 5624.96  182.91
   3   0  -2 5857.91  222.14
   3   0  -2 5557.29  183.97
  -3   0   2 5585.62  220.38
   3   0  -2 6074.70  203.83
  -3   0   2 6269.71  190.39
   3   0  -1 9048.51  266.16
  -3   0   1 8835.42  317.62
   3   0  -1 8559.54  302.64
  -3   0   1 9371.65  289.15
  -3   0   0 5841.67  181.87
   3   0   0 6048.97  201.05
  -3   0   0 5306.22  207.63
  -3   0   0 5791.48  223.89
   3   0   0 5828.41  207.20
  -3   0  -1  759.49   51.18
  -3   0  -1  709.78   56.39
   3   0   1  711.26   55.85
   3   0   1  669.88   36.25
  -3   0  -1  640.41   56.89
  -3   0  -2    7.19    8.77
   3   0   2   13.03   10.21
  -3   0  -2   49.94   15.04
  -3   0  -2   28.09   11.49
  -3   0  -3 1437.44   99.32
  -3   0  -3 1552.09  100.79
   3   0   3 1362.06   95.80
  -3   0  -3 1356.75   76.46
  -3   0  -4 2100.24  129.09
  -3   0  -4 1846.03   87.74
   3   0   4 1797.57  118.18
  -3   0  -4 1846.81  121.03
  -3   0  -5 1916.43  132.78
  -3   0  -5 1957.68   83.40
   3   0   5 1749.08  122.31
  -3   0  -5 1856.07  125.61
  -3   0  -6 1411.61  116.58
  -3   0  -6 1337.64  108.92
   3   0   6 1308.19  107.65
   3   0   7  942.12   95.24
  -3   0  -7 1141.36  103.39
  -3   0  -7 1178.22  110.73
  -3   0  -8  419.53   65.38
  -3   0  -8  545.15   77.56
   3   0   8  442.67   66.85
  -3   0  -9  200.88   46.05
  -3   0  -9  199.56   49.06
   3   0   9  200.59   48.10
  -3   0 -10  667.69   93.46
  -3   0 -10  657.74   88.42
   3   0  10  619.31   91.02
  -3   0 -11  593.34   90.48
  -3   0 -11  690.39   93.78
   3   0  11  673.42   97.30
   3   1 -12 1278.05  137.23
   3   1 -12 1198.89  126.95
  -3  -1  12 1273.58  110.69
   3   1 -12 1251.42  107.02
   3   1 -11  905.37  110.87
  -3  -1  11  720.86   77.43
   3   1 -11  723.37   73.80
   3   1 -11  653.06   90.47
   3   1 -10  253.95   54.13
   3   1 -10  325.64   63.21
  -3  -1  10  284.70   44.28
   3   1 -10  321.30   45.27
  -3  -1   9   -2.99   13.64
   3   1  -9    1.14   14.55
   3   1  -9   58.54   24.66
   3   1  -9   57.46   18.75
   3   1  -8  167.54   38.52
   3   1  -8   87.24   28.72
  -3  -1   8  120.31   24.99
   3   1  -8  105.65   22.62
  -3  -1   7 1605.33   77.97
   3   1  -7 1481.93  118.17
   3   1  -7 1453.52  115.16
   3   1  -7 1470.40   64.06
   3   1  -7 1569.21   85.81
  -3  -1   7 1610.62   69.60
  -3  -1   7 1403.47   85.31
  -3  -1   6 4128.72  157.21
   3   1  -6 4347.96  209.53
  -3  -1   6 3933.87  160.12
   3   1  -6 3931.06  196.02
   3   1  -6 4092.79  139.73
   3   1  -6 3906.90  156.09
   3   1  -5 6626.47  215.93
   3   1  -5 6637.28  263.68
  -3  -1   5 6950.31  235.61
   3   1  -5 6303.74  271.99
   3   1  -5 6503.15  247.65
   3   1  -4 5568.93  238.84
   3   1  -4 6054.68  228.03
   3   1  -4 6136.17  215.69
  -3  -1   4 5775.65  216.40
   3   1  -4 6321.46  204.17
   3   1  -3 2844.86  109.16
   3   1  -3 2866.44  135.35
  -3  -1   3 2823.57  123.89
   3   1  -2  921.22   43.91
  -3  -1   2  859.69   58.49
   3   1  -2  887.64   60.17
  -3  -1   2  984.30   50.38
  -3  -1   1   87.92   15.31
   3   1  -1  125.15   18.85
   3   1  -1  156.58   15.56
  -3  -1   1  103.24   18.41
  -3  -1   0  582.77   45.60
   3   1   0  600.44   47.84
  -3  -1   0  577.24   34.15
  -3  -1   0  549.09   45.29
   3   1   0  606.68   36.59
   3   1   1 1279.15   84.86
   3   1   1 1436.68   52.85
  -3  -1  -1 1310.70   73.22
  -3  -1  -1 1214.49   83.34
  -3  -1  -1 1301.58   72.89
  -3  -1  -2 3294.95  149.21
  -3  -1  -2 3123.49  157.92
  -3  -1  -2 3084.87  124.92
   3   1   2 2558.13  143.78
  -3  -1  -3 5654.28  234.76
  -3  -1  -3 5095.18  230.70
   3   1   3 4547.02  217.20
  -3  -1  -3 5048.32  180.16
  -3  -1  -4 1979.70  132.20
   3   1   4 1805.72  119.71
  -3  -1  -4 1788.38  124.61
  -3  -1  -4 1780.96   78.73
  -3  -1  -5  151.58   36.23
  -3  -1  -5  171.06   38.79
   3   1   5  120.01   30.78
  -3  -1  -6   12.53   13.97
  -3  -1  -6    5.44   14.51
   3   1   6   -7.36   19.77
  -3  -1  -7   89.56   29.60
  -3  -1  -7  104.58   31.85
   3   1   7   53.76   20.13
  -3  -1  -8  634.51   85.51
   3   1   8  668.29   85.61
  -3  -1  -8  666.38   83.85
  -3  -1  -9 1008.85  112.99
   3   1   9 1204.40  122.18
  -3  -1  -9 1092.32  111.08
   3   1  10 1114.61  125.14
  -3  -1 -10 1144.08  123.69
  -3  -1 -10 1083.98  114.54
   3   2 -13  566.19   93.38
  -3  -2  13  639.64   80.34
   3   2 -13  634.11   78.62
  -3  -2  12  133.81   34.93
   3   2 -12  194.70   52.39
   3   2 -12  154.05   44.80
   3   2 -12  213.18   41.64
   3   2 -11   72.86   23.27
   3   2 -11  111.77   37.35
  -3  -2  11   48.25   18.09
   3   2 -11   -1.96   21.82
   3   2 -10  846.41   99.03
   3   2 -10  635.46   88.05
  -3  -2  10  776.27   71.99
   3   2 -10  817.38   73.23
   3   2  -9 3051.91  191.92
   3   2  -9 2471.34  177.61
  -3  -2   9 2906.07  145.71
   3   2  -9 2928.54  146.01
   3   2  -8 3033.48  185.19
  -3  -2   8 3297.43  129.96
  -3  -2   8 2990.34  142.33
   3   2  -8 2970.79  143.23
   3   2  -8 2933.20  185.47
   3   2  -7 1997.03  138.18
  -3  -2   7 2318.24  104.17
  -3  -2   7 2036.11  106.14
   3   2  -7 2310.94   82.27
   3   2  -7 2025.13  107.31
  -3  -2   7 2431.50   96.65
   3   2  -7 2348.17  150.70
   3   2  -6 3380.88  138.47
  -3  -2   6 3345.39  129.57
  -3  -2   6 3229.73  136.59
   3   2  -6 3389.42  172.62
   3   2  -6 3244.40  153.95
   3   2  -6 3459.87  117.97
   3   2  -6 3020.21  171.94
  -3  -2   6 3156.44  134.25
  -3  -2   5 1779.05   89.72
   3   2  -5 1913.18   96.89
   3   2  -5 1755.67   77.33
  -3  -2   4  684.12   51.28
   3   2  -4  871.21   53.04
  -3  -2   3  287.54   31.21
   3   2  -3  289.83   26.35
   3   2  -2 1728.42   76.88
  -3  -2   2 1877.44   82.44
  -3  -2   2 1698.88   87.55
  -3  -2   1 3574.19  126.36
   3   2  -1 3355.68  132.62
   3   2  -1 4069.94  144.26
  -3  -2   1 3663.75  140.83
  -3  -2   1 3219.51  140.70
  -3  -2   0 3168.44  138.36
  -3  -2   0 3162.47  124.84
   3   2   0 3548.33  147.00
  -3  -2   0 3050.62  130.47
  -3  -2  -1 1334.70   77.09
   3   2   1 1324.82   87.89
  -3  -2  -1 1231.22   68.53
  -3  -2  -1 1275.62   84.19
  -3  -2  -2 2175.07   97.05
  -3  -2  -2 2457.81  125.61
   3   2   2 1864.11  119.10
  -3  -2  -2 2306.95  131.80
  -3  -2  -3  484.44   36.20
   3   2   3  389.35   51.36
  -3  -2  -3  586.70   63.11
  -3  -2  -3  571.38   64.01
  -3  -2  -3  446.81   38.54
  -3  -2  -4    8.01   14.21
  -3  -2  -4    2.47    5.39
  -3  -2  -4   -0.33   14.58
  -3  -2  -4   11.06    5.18
   3   2   4   -3.76   15.10
  -3  -2  -5  496.42   69.28
  -3  -2  -5  487.05   64.73
   3   2   5  459.77   60.53
  -3  -2  -5  530.53   39.78
  -3  -2  -6 2433.18  167.70
  -3  -2  -6 2207.22  151.66
   3   2   6 2021.13  145.23
   3   2   7 2274.03  160.71
  -3  -2  -7 2343.42  170.56
  -3  -2  -7 2082.57  152.05
  -3  -2  -8 1313.73  126.62
   3   2   8  974.12  108.07
  -3  -2  -8 1155.61  111.78
  -3  -2  -9  191.61   45.56
  -3  -2  -9  333.95   65.29
   3   2   9  222.19   55.56
  -3  -2 -10  165.41   45.23
  -3  -2 -10  143.57   45.62
   3   2  10  148.29   48.15
   3   3 -13  258.64   63.91
  -3  -3  13  395.10   61.18
   3   3 -13  187.98   49.95
   3   3 -13  348.81   58.09
   3   3 -12  426.56   78.21
   3   3 -12  446.31   76.26
   3   3 -12  545.62   67.64
  -3  -3  12  490.13   63.90
   3   3 -11 1007.15  112.13
   3   3 -11  839.45  106.15
  -3  -3  11  949.29   82.97
   3   3 -11  807.34   78.80
   3   3 -10 2417.73  176.53
   3   3 -10 2073.74  168.35
  -3  -3  10 2438.51  134.90
   3   3 -10 2505.89  140.39
   3   3  -9 2791.84  183.68
  -3  -3   9 2570.42  131.39
   3   3  -9 2520.65  135.81
   3   3  -9 2465.28  174.73
  -3  -3   8 1299.40   66.95
   3   3  -8 1334.95  115.91
  -3  -3   8 1308.10   75.95
   3   3  -8 1396.61  118.89
  -3  -3   8 1378.64   81.91
   3   3  -8 1352.94  102.10
   3   3  -8 1085.74   78.96
  -3  -3   7  444.36   40.80
  -3  -3   7  482.40   41.67
   3   3  -7  443.99   51.02
   3   3  -7  466.83   44.68
  -3  -3   7  402.72   34.95
  -3  -3   6   24.09    8.58
  -3  -3   6   29.61   10.32
   3   3  -6   25.49   12.67
  -3  -3   6   42.23   12.67
  -3  -3   5 1323.84   76.02
   3   3  -5 1349.41   79.02
  -3  -3   5 1249.72   70.98
  -3  -3   4 1977.99  100.13
   3   3  -4 2113.72   98.71
  -3  -3   4 2112.80   98.86
  -3  -3   3 2493.82  113.34
   3   3  -3 2180.02  101.97
  -3  -3   3 2541.66  111.87
  -3  -3   2 2984.65  132.32
   3   3  -2 3159.87  127.68
  -3  -3   2 3168.89  134.03
  -3  -3   2 3164.89  127.38
  -3  -3   1 3832.73  157.97
  -3  -3   1 3848.22  149.63
   3   3  -1 4092.15  159.83
   3   3  -1 4125.13  159.78
  -3  -3   1 3960.18  159.95
  -3  -3   1 4208.04  159.23
  -3  -3   0 2058.34   99.57
  -3  -3   0 2052.81  100.73
   3   3   0 2433.72  118.47
  -3  -3   0 1994.96  100.61
  -3  -3   0 2135.95  106.70
  -3  -3  -1   56.07   17.51
  -3  -3  -1   70.18   17.26
  -3  -3  -1   61.24   17.34
   3   3   1   70.32   20.77
  -3  -3  -1   72.49   15.50
  -3  -3  -2  835.65   54.08
  -3  -3  -2  854.39   73.17
   3   3   2  885.42   77.01
  -3  -3  -2  959.04   78.36
  -3  -3  -2  861.56   58.71
  -3  -3  -3 1526.28   76.74
  -3  -3  -3 1711.23  116.62
   3   3   3 1378.31  105.32
  -3  -3  -3 1661.18  116.09
  -3  -3  -3 1628.72   85.27
  -3  -3  -4 1280.20  107.44
   3   3   4 1084.89   94.61
  -3  -3  -4 1246.68  104.39
  -3  -3  -4 1059.35   65.91
  -3  -3  -5 1354.14  120.42
   3   3   5 1244.63  107.95
  -3  -3  -5 1417.34  117.37
  -3  -3  -6 1212.19  119.84
   3   3   6 1070.20  105.23
  -3  -3  -6 1255.65  112.70
  -3  -3  -7  403.80   69.94
  -3  -3  -7  391.11   62.94
   3   3   7  336.83   60.92
  -3  -3  -8    9.78   19.79
  -3  -3  -8   -6.92   23.61
   3   3   8   -3.19   23.39
  -3  -3  -9  102.92   35.58
  -3  -3  -9  129.53   44.72
   3   3   9  132.40   43.61
   3   4 -13  923.35  115.13
   3   4 -13  968.76  125.38
   3   4 -13 1109.21  104.14
   3   4 -12 1813.76  165.75
  -3  -4  12 1677.45  119.69
   3   4 -12 1681.00  153.53
   3   4 -12 1397.85  115.25
   3   4 -11  916.17  111.89
  -3  -4  11 1026.08   83.63
   3   4 -11  790.34   79.27
   3   4 -11  866.08  106.26
  -3  -4  10  361.76   45.13
   3   4 -10  491.31   76.55
   3   4 -10  371.43   65.40
   3   4 -10  405.06   52.08
   3   4  -9    5.66   11.87
   3   4  -9   -7.05   15.19
  -3  -4   9   -3.22    8.80
   3   4  -9   12.86   15.84
  -3  -4   8  300.98   33.75
   3   4  -8  211.43   33.20
   3   4  -8  233.00   39.58
  -3  -4   8  186.42   28.10
  -3  -4   8  257.51   29.13
  -3  -4   7  563.29   50.22
  -3  -4   7  660.42   46.90
   3   4  -7  579.87   59.48
   3   4  -7  523.66   50.22
  -3  -4   7  697.61   50.09
  -3  -4   6 4145.55  149.85
  -3  -4   6 4026.41  168.23
   3   4  -6 3646.52  171.99
  -3  -4   6 4143.99  163.24
  -3  -4   5 4852.83  190.31
   3   4  -5 4610.18  189.59
  -3  -4   5 4762.93  184.96
  -3  -4   4 3678.15  150.66
  -3  -4   4 3408.02  151.47
   3   4  -4 3564.42  149.82
  -3  -4   3  997.85   67.41
   3   4  -3 1099.21   67.57
  -3  -4   3  963.05   65.33
  -3  -4   2  118.69   20.33
  -3  -4   2  143.67   23.30
   3   4  -2  136.21   23.06
  -3  -4   2  125.15   21.85
  -3  -4   1  292.45   33.94
  -3  -4   1  225.77   29.36
   3   4  -1  281.31   32.74
  -3  -4   1  295.79   34.28
  -3  -4   1  303.61   32.74
   3   4  -1  276.13   34.95
  -3  -4   0  282.40   32.78
   3   4   0  291.14   38.78
  -3  -4   0  373.60   40.60
   3   4   0  320.71   40.17
  -3  -4   0  325.59   37.34
  -3  -4   0  293.74   34.94
   3   4   1 1566.51  100.78
  -3  -4  -1 1456.55   80.25
  -3  -4  -1 1296.10   89.86
  -3  -4  -1 1182.54   84.00
  -3  -4  -1 1302.95   79.69
  -3  -4  -2 2734.21  151.53
  -3  -4  -2 2787.64  122.72
  -3  -4  -2 2828.79  148.22
   3   4   2 2655.25  150.97
  -3  -4  -2 2651.29  126.50
  -3  -4  -3 1821.07  127.36
   3   4   3 1771.03  123.57
  -3  -4  -3 1961.30  125.80
  -3  -4  -3 1783.05   97.04
  -3  -4  -4  587.52   74.14
   3   4   4  426.53   60.30
  -3  -4  -4  567.36   68.47
  -3  -4  -4  516.64   46.22
  -3  -4  -5   36.33   22.14
  -3  -4  -5   32.77   19.03
   3   4   5   30.59   17.64
  -3  -4  -6  104.39   30.60
  -3  -4  -6  106.11   38.24
   3   4   6   50.22   28.32
  -3  -4  -7  208.99   45.60
  -3  -4  -7  105.13   39.49
   3   4   7   97.85   34.30
  -3  -4  -8  549.67   85.59
   3   4   8  388.72   71.73
  -3  -4  -9  983.75  118.39
   3   4   9  685.57  100.59
   3   5 -13  449.35   84.66
   3   5 -13  357.81   72.32
   3   5 -13  381.95   60.95
   3   5 -12  244.97   61.10
   3   5 -12  227.86   58.06
   3   5 -12  171.28   39.33
   3   5 -11   30.81   25.57
   3   5 -11   22.99   18.22
   3   5 -11   73.02   27.09
   3   5 -10  998.25  114.04
   3   5 -10 1101.67   90.70
   3   5 -10 1265.84  111.41
  -3  -5   9 2703.72  127.55
   3   5  -9 2434.17  156.40
   3   5  -9 2689.92  145.09
   3   5  -8 1869.31  111.61
  -3  -5   8 2013.23   97.16
   3   5  -8 1868.20  123.69
  -3  -5   8 1975.70  101.20
  -3  -5   7 1661.14   97.30
  -3  -5   7 1648.09   78.71
   3   5  -7 1539.84  103.90
   3   5  -7 1515.01   94.13
  -3  -5   7 1560.70   88.89
  -3  -5   6 1938.50  109.82
  -3  -5   6 2173.32   88.66
   3   5  -6 1985.57  114.72
  -3  -5   6 2187.30  109.26
  -3  -5   5 1828.46   97.72
  -3  -5   5 1666.87   98.24
   3   5  -5 1697.26   99.10
  -3  -5   4  512.12   47.89
  -3  -5   4  576.50   51.63
   3   5  -4  422.58   44.88
  -3  -5   3  143.72   24.67
   3   5  -3   79.72   19.79
  -3  -5   3   88.73   20.41
  -3  -5   2 1185.75   78.12
   3   5  -2 1140.57   78.30
  -3  -5   2 1211.67   72.41
  -3  -5   2 1207.74   78.36
  -3  -5   1 2662.91  130.78
  -3  -5   1 2586.71  127.90
  -3  -5   1 2568.60  129.86
   3   5  -1 2822.07  139.51
   3   5  -1 2854.16  128.07
  -3  -5   1 2560.24  123.19
  -3  -5   0 1864.87  100.51
  -3  -5   0 1597.92  102.53
   3   5   0 1853.53  108.64
   3   5   0 1756.10  111.69
  -3  -5   0 1753.60  100.31
  -3  -5   0 1696.32   97.82
  -3  -5  -1  919.91   78.99
   3   5   1  974.98   81.47
  -3  -5  -1  849.88   69.00
  -3  -5  -1  974.39   70.69
  -3  -5  -2  495.94   60.53
   3   5   2  353.22   50.80
  -3  -5  -2  486.32   54.39
  -3  -5  -2  475.23   47.72
  -3  -5  -3   49.26   19.60
  -3  -5  -3   44.05   14.14
  -3  -5  -3   39.19   23.92
   3   5   3   33.74   17.49
  -3  -5  -4  223.81   42.24
  -3  -5  -4  160.39   41.58
  -3  -5  -4  111.28   23.05
   3   5   4   80.21   28.40
  -3  -5  -5  653.31   85.64
   3   5   5  454.09   68.47
  -3  -5  -5  535.02   70.00
  -3  -5  -6 1509.00  140.05
  -3  -5  -6 1542.38  126.54
   3   5   6 1123.02  116.22
  -3  -5  -7 1986.25  168.85
   3   5   7 1488.91  141.02
  -3  -5  -8  941.65  117.52
   3   5   8  757.57  103.34
   3   6 -13  287.99   53.85
   3   6 -13  311.36   71.44
   3   6 -13  243.14   61.23
   3   6 -12  642.44  100.27
   3   6 -12  732.80  105.25
   3   6 -12  705.35   80.37
   3   6 -11 1306.31  136.25
   3   6 -11 1281.33  105.54
   3   6 -11 1329.99  122.93
   3   6 -10 2269.54  156.02
   3   6 -10 2189.22  137.59
  -3  -6   9 2511.02  122.77
   3   6  -9 2358.75  137.13
   3   6  -9 2163.83  146.28
  -3  -6   8 1017.45   72.08
   3   6  -8 1068.47   90.02
   3   6  -8  928.38   76.87
  -3  -6   7  412.49   44.88
   3   6  -7  436.53   52.92
   3   6  -7  487.64   51.07
  -3  -6   6   51.13   17.33
   3   6  -6   31.25   15.77
   3   6  -5  508.51   54.03
  -3  -6   5  582.35   53.71
   3   6  -4 1092.59   80.60
  -3  -6   4 1178.25   80.47
   3   6  -3 2868.80  142.37
  -3  -6   3 2620.02  135.48
   3   6  -2 2214.74  126.87
  -3  -6   2 2481.97  117.25
  -3  -6   2 2260.39  124.14
  -3  -6   1 1348.66   92.04
   3   6  -1 1121.23   88.28
   3   6  -1 1188.61   78.12
  -3  -6   1 1358.15   82.32
  -3  -6   1 1356.78   89.15
  -3  -6   0  109.85   22.67
   3   6   0  169.07   30.59
  -3  -6   0  123.18   26.32
   3   6   0  129.52   31.71
  -3  -6   0  115.38   28.82
  -3  -6  -1   14.73   11.82
  -3  -6  -1   15.70    9.87
  -3  -6  -1   39.09   18.02
   3   6   1    5.93   11.10
   3   6   1   62.97   22.81
  -3  -6  -2 1092.73   80.02
  -3  -6  -2 1089.79   98.59
   3   6   2  894.29   87.28
  -3  -6  -2 1028.81   82.07
  -3  -6  -3 1435.38   94.07
  -3  -6  -3 1461.55  123.37
   3   6   3 1158.58  106.02
  -3  -6  -3 1359.56  101.87
   3   6   4  608.42   78.24
  -3  -6  -4  888.24   98.96
  -3  -6  -4  711.20   75.36
  -3  -6  -5 1094.38  116.43
   3   6   5  798.03   95.97
  -3  -6  -6 1093.89  122.59
   3   6   6  955.78  109.37
  -3  -6  -7  468.83   83.50
   3   6   7  417.43   75.39
   3   7 -12 1135.06  134.66
   3   7 -12 1273.75  127.56
   3   7 -12 1308.38  113.71
   3   7 -11  648.93   74.79
   3   7 -11  595.98   82.10
   3   7 -10  215.66   46.78
   3   7 -10  220.44   41.40
   3   7  -9    5.61   13.43
  -3  -7   9    0.66   13.48
   3   7  -9   17.28   14.82
   3   7  -8   84.38   27.94
  -3  -7   8   35.83   14.25
   3   7  -8   57.81   21.60
  -3  -7   7 1061.38   79.63
   3   7  -7  958.80   85.29
   3   7  -7 1117.37   83.29
  -3  -7   6 2391.24  130.21
   3   7  -6 2308.26  136.91
  -3  -7   5 2818.42  142.48
   3   7  -5 2420.68  141.03
  -3  -7   4 1715.47  108.91
   3   7  -4 1946.56  118.25
  -3  -7   3  253.92   38.07
   3   7  -3  218.75   37.79
  -3  -7   2   41.18   17.02
   3   7  -2   24.42   14.86
  -3  -7   1  163.14   34.12
  -3  -7   1  200.98   30.79
  -3  -7   1  188.56   33.67
   3   7  -1  253.37   42.32
  -3  -7   0  211.68   32.25
  -3  -7   0  184.36   33.92
   3   7   0  147.25   35.50
  -3  -7   0  200.29   39.99
  -3  -7  -1 1126.10   90.18
   3   7   1 1221.38  109.14
  -3  -7  -1 1532.06  117.83
   3   7   1 1364.65  104.00
  -3  -7  -1 1502.28   95.51
  -3  -7  -2 2018.95  124.57
  -3  -7  -2 2133.36  151.23
   3   7   2 1933.77  149.09
  -3  -7  -2 2170.86  125.42
   3   7   2 2040.66  140.29
  -3  -7  -3 1307.07   95.06
  -3  -7  -3 1175.92  116.02
   3   7   3 1137.50  106.94
  -3  -7  -4  477.95   76.25
   3   7   4  363.58   62.12
  -3  -7  -5   31.64   23.93
   3   7   5   37.45   21.42
   3   7   6   -4.79   16.21
  -3  -7  -6   27.33   30.48
   3   8 -12   46.37   30.50
   3   8 -12   52.19   25.56
   3   8 -11   83.57   29.38
   3   8 -11   60.96   23.23
   3   8 -10  724.44   86.77
   3   8 -10  751.72   78.89
  -3  -8   9 1498.16  103.38
   3   8  -9 1581.80  124.92
   3   8  -9 1486.06  110.85
  -3  -8   8 1631.53  107.47
   3   8  -8 1425.86  115.34
   3   8  -8 1574.42  109.98
  -3  -8   7 1303.66   95.01
   3   8  -7 1248.08   93.61
   3   8  -7 1206.81  101.12
   3   8  -6  807.10   78.49
  -3  -8   6  801.45   73.80
  -3  -8   5  440.85   54.02
   3   8  -5  428.05   55.91
  -3  -8   4    6.21   10.68
   3   8  -4   15.70   11.73
  -3  -8   3  588.78   63.39
   3   8  -3  551.50   64.69
  -3  -8   2 1213.40   93.42
   3   8  -2 1034.01   91.99
  -3  -8   1 1355.79  101.76
   3   8  -1 1318.07  109.38
  -3  -8   0 1061.11   89.15
  -3  -8   0  932.78   92.83
   3   8   0  952.92   95.77
  -3  -8   0 1022.16   76.43
  -3  -8  -1  738.09   66.18
  -3  -8  -1  749.93   86.70
   3   8   1  720.34   86.29
  -3  -8  -1  666.52   70.70
   3   8   2   84.40   32.09
  -3  -8  -2  149.29   33.56
  -3  -8  -2  105.69   34.10
  -3  -8  -3   -0.30   16.30
   3   8   3  -51.24   28.49
  -3  -8  -4  278.15   60.37
   3   8   4  224.18   56.53
  -3  -8  -5 1028.16  123.12
   3   9 -11 1007.36   99.48
   3   9 -11  938.04  106.43
  -3  -9  10 1688.36  117.43
   3   9 -10 1608.22  137.23
   3   9 -10 1954.81  136.43
  -3  -9   9 1281.36   98.71
   3   9  -9 1079.23  106.40
   3   9  -9 1070.82   96.48
  -3  -9   8  542.30   63.27
   3   9  -8  683.76   71.97
   3   9  -8  623.08   75.76
  -3  -9   7   -3.03   15.70
   3   9  -7   -7.43   16.41
   3   9  -7   -8.65   13.81
  -3  -9   6  212.72   39.12
   3   9  -6  266.51   47.21
  -3  -9   5  699.60   73.88
   3   9  -5  783.36   80.97
  -3  -9   4  867.70   83.35
   3   9  -4  876.64   86.67
  -3  -9   3  651.93   71.58
   3   9  -3  696.34   76.79
  -3  -9   2 1065.66   93.72
   3   9  -2 1103.36  100.65
  -3  -9   1  420.41   58.78
   3   9  -1  351.70   58.01
  -3  -9   0   19.85   19.51
  -3  -9   0    4.08   12.94
   3   9   0   -0.93   15.83
  -3  -9  -1  249.39   45.08
  -3  -9  -1  314.14   58.79
   3   9   1  278.63   56.31
  -3  -9  -2  837.73   84.33
  -3  -9  -2  799.61  100.06
   3   9   2  788.39  101.34
  -3  -9  -3  861.76  108.03
   3   9   3  944.05  113.89
  -3 -10  10   55.39   23.08
   3  10 -10   48.13   26.61
   3  10 -10    7.98   15.15
  -3 -10   9   52.47   23.07
   3  10  -9   28.52   19.49
   3  10  -9   29.68   20.88
   3  10  -8   37.67   18.60
   3  10  -8   70.11   26.36
  -3 -10   8   78.23   26.64
   3  10  -7  670.26   72.42
  -3 -10   7  808.12   83.35
   3  10  -7  818.35   90.05
  -3 -10   6 1203.57  104.14
   3  10  -6 1241.21  110.55
   3  10  -5  788.53   85.87
  -3 -10   5  607.64   73.27
  -3 -10   4  271.38   48.66
   3  10  -4  319.96   54.98
   3  10  -3   10.27   14.17
  -3 -10   3   26.01   16.55
  -3 -10   2   48.29   23.14
   3  10  -2    7.49   14.39
  -3 -10   1  209.11   43.79
   3  10  -1  298.51   55.79
   3  10   0  480.26   74.20
  -3 -10   0  394.96   60.19
  -3 -10  -1 1199.11  109.28
  -3 -10  -1 1131.97  120.47
   3  10   1 1170.30  124.03
  -3 -10  -2  970.13  114.94
   3  10   2 1147.43  125.81
  -3 -11   9  442.82   64.02
   3  11  -9  545.78   79.38
   3  11  -9  309.88   54.08
  -3 -11   8  797.29   86.13
   3  11  -8  787.21   94.79
   3  11  -8  664.38   76.66
  -3 -11   7  543.40   72.13
   3  11  -7  508.95   74.04
   3  11  -7  507.01   64.12
   3  11  -6  324.32   57.63
  -3 -11   6  198.97   45.59
   3  11  -6  200.07   38.89
  -3 -11   5   68.31   27.94
   3  11  -5  108.33   35.74
  -3 -11   4   80.37   31.08
   3  11  -4   34.78   20.46
  -3 -11   3  555.73   74.69
   3  11  -3  416.12   68.60
  -3 -11   2  981.51  102.77
   3  11  -2 1141.23  116.15
  -3 -11   1  973.51  101.19
   3  11  -1  846.85  101.79
  -3 -11   0  816.86   92.83
   3  11   0  577.37   87.36
   3  12  -5  504.58   77.11
  -3 -12   5  488.66   72.94
   4 -11  -1 1333.53  127.55
   4 -11   0  711.05   89.50
   4 -11   1  182.63   45.40
   4 -11   2    6.34   14.03
   4 -11   3  198.43   46.92
   4 -11   4  616.26   80.12
   4 -11   5  873.61   96.77
   4 -11   6  795.43   91.13
   4 -11   7  850.95   94.51
   4 -10  -3  801.71   95.45
   4 -10  -2  679.03   86.05
   4 -10  -1   25.28   21.94
   4 -10   0   79.17   31.66
   4 -10   1  234.02   47.43
   4 -10   2  893.98   93.24
   4 -10   3 1191.45  108.54
   4 -10   4 1330.18  114.14
   4 -10   5  149.71   39.22
   4 -10   6   41.82   19.72
   4 -10   7  149.94   38.33
   4 -10   8  312.99   54.48
  -4  10  -9  484.98   70.38
   4  -9  -5  584.93   78.81
   4  -9  -4  243.32   49.44
   4  -9  -3   40.70   20.14
   4  -9  -3  109.49   33.52
   4  -9  -2  272.30   50.76
   4  -9  -1 1124.74  103.81
   4  -9   0  904.06   91.48
   4  -9   1  924.80   91.15
   4  -9   2  530.54   67.53
  -4   9  -2  551.06   52.58
  -4   9  -3  183.67   29.62
   4  -9   3  146.84   35.85
  -4   9  -4    7.59    7.27
   4  -9   4    6.30   13.18
   4  -9   5  167.46   37.25
  -4   9  -5  151.96   30.03
   4  -9   6  932.97   90.49
  -4   9  -6 1175.55   89.75
  -4   9  -6 1139.48   93.19
   4  -9   7 1904.17  133.07
  -4   9  -7 1953.40  127.53
  -4   9  -7 1943.37  132.75
   4  -9   8 1251.94  106.37
  -4   9  -8 1287.24  105.80
  -4   9  -8 1332.63  112.75
  -4   9  -9  797.22   87.04
  -4   9  -9  851.23   93.32
  -4   9 -10  540.66   77.16
  -4   8   6   48.08   21.93
   4  -8  -6   10.00   17.06
   4  -8  -5   12.75   13.72
  -4   8   5   32.88   17.12
   4  -8  -4  223.60   44.46
   4  -8  -4  345.81   55.72
  -4   8   4  291.43   42.50
   4  -8  -3  507.70   66.90
   4  -8  -3  693.52   73.31
  -4   8   3  581.94   57.79
   4  -8  -2 1352.92  109.91
   4  -8  -2 1284.05   99.37
   4  -8  -1 1359.81  107.76
  -4   8   1 1191.68   80.39
  -4   8   0  983.31   67.79
   4  -8   0  796.09   81.45
   4  -8   1  144.07   33.07
  -4   8  -1  185.78   27.90
   4  -8   2  651.83   69.61
  -4   8  -2  622.97   52.10
   4  -8   3  882.21   82.33
  -4   8  -3  947.55   67.15
  -4   8  -4 1092.34   75.85
   4  -8   4 1062.62   91.33
   4  -8   5 1425.69  106.88
  -4   8  -5 1469.24  100.91
  -4   8  -5 1378.83   91.88
   4  -8   6 1779.07  121.73
  -4   8  -6 1821.89  113.30
  -4   8  -6 1776.30  119.38
   4  -8   7 1105.90   93.62
  -4   8  -7 1158.09   92.59
  -4   8  -7 1246.69  101.93
  -4   8  -8  316.82   52.92
   4  -8   8  339.17   51.07
  -4   8  -8  339.92   50.69
  -4   8  -9   34.37   22.71
  -4   8 -10  487.06   73.24
   4  -7  -7  109.50   33.99
  -4   7   7   71.97   25.34
  -4   7   6  477.93   60.07
   4  -7  -6  547.11   71.67
   4  -7  -5 1397.77  112.93
  -4   7   5 1515.50  105.11
   4  -7  -4 2008.68  131.82
   4  -7  -4 1955.29  135.03
  -4   7   4 2137.86  120.99
  -4   7   4 1717.88  137.80
  -4   7   4 2001.01  121.04
   4  -7  -3 1046.91   93.43
   4  -7  -3 1075.72   87.20
  -4   7   3  892.14   70.71
  -4   7   3  985.97   75.66
   4  -7  -2  117.35   26.53
  -4   7   2  101.97   21.66
   4  -7  -2   86.13   26.75
  -4   7   2   91.32   20.51
   4  -7  -1    9.60   11.63
  -4   7   1   17.73   10.43
  -4   7   0  258.82   30.07
   4  -7   0  266.23   42.73
  -4   7  -1 1116.74   66.70
   4  -7   1 1190.07   87.52
   4  -7   1 1036.32   86.13
   4  -7   2 1913.70  121.60
  -4   7  -2 2004.74   97.05
   4  -7   2 1885.67  114.99
   4  -7   3 2419.12  130.92
   4  -7   3 2326.01  136.26
  -4   7  -3 2315.47  111.10
  -4   7  -3 2354.50  121.04
   4  -7   4 1639.20  109.50
   4  -7   4 1505.11   99.73
  -4   7  -4 1633.90   91.79
  -4   7  -4 1598.45  100.02
   4  -7   5  721.00   69.45
   4  -7   5  675.85   60.93
  -4   7  -5  670.48   58.55
  -4   7  -5  550.43   59.31
   4  -7   6   -1.50   14.56
  -4   7  -6    0.94    9.70
  -4   7  -6    5.35    9.91
  -4   7  -7  106.80   29.73
   4  -7   7  128.35   28.76
  -4   7  -7  164.09   33.48
  -4   7  -8  306.34   51.71
   4  -7   8  404.52   53.31
  -4   7  -9 1014.69  101.94
  -4   7 -10 1294.36  132.53
  -4   7 -10 1469.85  130.00
  -4   7 -11 1515.27  147.88
  -4   7 -11 1295.87  129.28
   4  -6  -8  988.88  117.64
   4  -6  -8  938.31  102.34
  -4   6   8  991.41   94.75
   4  -6  -7 1199.69  131.81
   4  -6  -7 1149.48  108.57
  -4   6   7 1182.90   98.81
   4  -6  -6  745.45  104.36
   4  -6  -6  811.90   85.15
  -4   6   6  918.89   80.43
   4  -6  -5  974.35   87.00
   4  -6  -5  863.28  111.75
   4  -6  -5 1056.63   93.27
  -4   6   5  910.46   76.30
  -4   6   4  289.30   50.62
   4  -6  -4  224.03   38.65
   4  -6  -4  252.72   44.40
  -4   6   4  235.77   35.03
   4  -6  -3    8.04    8.25
   4  -6  -3   27.28   16.14
  -4   6   3   38.69   14.19
  -4   6   3   57.55   16.68
   4  -6  -2 1011.79   85.57
   4  -6  -2 1052.67   76.52
  -4   6   2 1138.56   69.99
   4  -6  -1 2449.52  138.91
  -4   6   1 2472.12  109.31
   4  -6  -1 2454.48  131.36
   4  -6   0 1769.36  112.83
  -4   6   0 1809.34   84.08
   4  -6   0 1727.21  104.83
  -4   6  -1 1254.43   65.30
   4  -6   1 1199.68   88.09
   4  -6   1 1124.88   81.54
  -4   6  -1 1199.48   70.63
   4  -6   2  844.50   72.34
   4  -6   2  844.15   68.61
  -4   6  -2  904.80   54.65
  -4   6  -2  870.88   63.33
  -4   6  -3  571.38   45.05
   4  -6   3  545.80   53.72
  -4   6  -3  655.02   56.43
   4  -6   3  686.57   63.61
  -4   6  -4   41.07   15.59
   4  -6   4   30.90   14.76
  -4   6  -4   10.11    8.89
   4  -6   4   -0.42   12.94
   4  -6   5  640.98   63.15
   4  -6   5  573.37   53.14
  -4   6  -5  577.59   53.38
  -4   6  -5  614.13   62.23
   4  -6   6 2723.86  143.87
  -4   6  -6 2429.52  135.00
   4  -6   6 2434.14  133.83
  -4   6  -6 2567.61  148.12
   4  -6   6 2560.29  126.01
   4  -6   7 3315.52  164.46
   4  -6   7 3105.52  164.43
  -4   6  -7 2852.57  169.76
   4  -6   8 2002.47  132.37
  -4   6  -8 1830.46  134.82
  -4   6  -9 1230.64  120.39
  -4   6  -9 1213.56  112.68
  -4   6 -10  339.11   65.92
  -4   6 -10  321.99   60.36
  -4   6 -11   98.20   38.03
  -4   6 -11  110.34   38.73
   4  -5  -9 1534.17  150.49
   4  -5  -9 1280.82  124.21
  -4   5   9 1406.11  116.94
   4  -5  -8 1472.90  148.77
   4  -5  -8 1475.11  126.52
  -4   5   8 1535.37  116.01
   4  -5  -7  511.17   67.58
  -4   5   7  412.14   55.80
   4  -5  -7  461.61   78.99
  -4   5   6   11.27   13.25
   4  -5  -6   36.55   25.75
   4  -5  -6   19.12   15.18
   4  -5  -5  514.99   59.17
   4  -5  -5  562.69   63.83
  -4   5   5  450.00   61.98
  -4   5   5  515.44   53.86
   4  -5  -5  591.43   88.34
   4  -5  -4  648.28   87.15
   4  -5  -4  631.27   60.18
   4  -5  -4  576.68   63.65
  -4   5   4  632.16   55.58
  -4   5   4  475.08   63.51
   4  -5  -3 2045.67  153.52
   4  -5  -3 1930.07  108.10
   4  -5  -3 2006.81  122.22
  -4   5   3 1959.37  131.89
   4  -5  -3 1813.91  107.91
   4  -5  -2 2142.58  116.06
   4  -5  -2 1981.45  147.90
   4  -5  -2 2057.21  123.46
   4  -5  -2 2201.76  110.37
  -4   5   2 2238.34   99.48
   4  -5  -1 1807.80  112.54
   4  -5  -1 1835.23   95.06
  -4   5   1 2127.45   87.32
   4  -5  -1 1865.27  105.66
  -4   5   0  857.39   50.90
   4  -5   0  843.14   70.67
  -4   5   0  911.15   47.89
   4  -5   0  821.08   63.89
  -4   5  -1   21.96   10.12
   4  -5   1    9.07    8.35
   4  -5   1    1.77    7.39
  -4   5  -1   17.01    6.40
   4  -5   2  645.10   59.62
  -4   5  -2  699.45   43.92
   4  -5   2  594.58   53.38
  -4   5  -2  670.89   55.37
   4  -5   3 3018.27  151.01
  -4   5  -3 3154.90  129.77
   4  -5   3 3154.91  144.55
  -4   5  -3 3287.94  151.46
   4  -5   4 3093.70  151.87
  -4   5  -4 3182.56  136.86
  -4   5  -4 3032.44  152.28
   4  -5   4 2947.71  140.17
   4  -5   5 3095.90  156.84
  -4   5  -5 3350.33  153.42
   4  -5   5 3417.63  149.19
   4  -5   5 3079.75  156.33
  -4   5  -5 3356.33  167.71
   4  -5   6 2499.83  133.43
   4  -5   6 2471.76  118.74
   4  -5   6 2189.40  134.41
  -4   5  -6 2440.41  144.26
   4  -5   7 1495.61   99.11
   4  -5   7 1471.73  110.74
  -4   5  -7 1432.86  112.12
  -4   5  -8  588.41   77.09
   4  -5   8  636.41   74.09
  -4   5  -8  624.43   75.13
  -4   5  -9   36.69   24.35
   4  -5   9   12.10   16.47
  -4   5  -9    3.33   15.15
  -4   5 -10  393.92   67.53
  -4   5 -10  388.04   70.88
   4  -5  10  512.00   74.11
  -4   5 -11  465.34   76.28
  -4   5 -11  500.72   84.10
   4  -5  11  575.04   81.76
   4  -4 -10  379.04   67.45
  -4   4  10  307.50   54.39
   4  -4 -10  338.49   68.08
   4  -4  -9  164.73   43.28
  -4   4   9  180.77   38.31
   4  -4  -9  237.37   55.60
   4  -4  -8   -1.81   12.58
   4  -4  -8   19.95   20.47
  -4   4   8   -7.00   15.43
   4  -4  -7  837.38   84.72
  -4   4   7  847.43   75.60
   4  -4  -7  868.98  109.62
   4  -4  -6 1678.96  116.31
  -4   4   6 1779.85  108.66
   4  -4  -6 1737.85  154.83
   4  -4  -5 1660.51  146.65
   4  -4  -5 1754.16  109.69
  -4   4   5 1739.36  123.86
  -4   4   5 1760.96  102.52
   4  -4  -4 2181.30  114.45
   4  -4  -4 1992.70  123.76
  -4   4   4 2220.34  142.96
   4  -4  -4 1874.84  106.45
   4  -4  -4 2012.18  154.24
   4  -4  -3  785.32   58.72
   4  -4  -3  810.11   71.53
  -4   4   3  947.14   85.10
   4  -4  -3  795.80   61.87
   4  -4  -3  772.04   87.07
  -4   4   2   75.66   23.64
  -4   4   2   50.26   10.82
   4  -4  -2   56.69   13.80
   4  -4  -2   47.31   17.79
   4  -4  -2   53.74   22.98
   4  -4  -2   59.29   16.24
   4  -4  -1  395.07   45.94
   4  -4  -1  391.95   33.11
  -4   4   1  364.35   25.64
   4  -4  -1  329.82   50.64
   4  -4  -1  328.44   37.38
  -4   4   1  372.00   20.85
   4  -4   0  865.13   68.33
  -4   4   0  717.94   50.17
  -4   4   0  813.05   39.13
   4  -4   0  819.82   59.83
   4  -4   1 2548.26  134.38
  -4   4  -1 2822.89  101.02
  -4   4  -1 2827.84  130.42
   4  -4   1 2721.68  128.02
  -4   4  -2 5653.10  186.52
   4  -4   2 5338.54  219.56
   4  -4   2 5304.41  209.55
  -4   4  -2 5122.67  213.14
   4  -4   3 5523.04  223.76
  -4   4  -3 5603.46  199.01
   4  -4   3 5408.05  212.24
  -4   4  -3 5390.67  223.95
   4  -4   4 2672.99  139.23
   4  -4   4 2942.56  141.91
   4  -4   4 2781.61  130.45
  -4   4  -4 2671.53  144.08
  -4   4  -5  253.20   40.49
   4  -4   5  248.48   36.61
   4  -4   5  285.74   34.38
   4  -4   5  264.48   41.18
  -4   4  -6   -0.71   12.69
   4  -4   6   20.66   10.36
   4  -4   6   -2.62   12.26
  -4   4  -7   33.26   20.79
  -4   4  -7  102.69   23.63
  -4   4  -7   76.82   26.41
   4  -4   7   64.88   23.34
  -4   4  -8  343.33   57.20
  -4   4  -8  468.41   68.76
   4  -4   8  387.12   60.79
  -4   4  -9 1167.57  116.80
   4  -4   9 1161.72  112.10
  -4   4  -9 1193.74  114.34
  -4   4 -10 1812.80  152.53
   4  -4  10 1604.93  139.66
  -4   4 -10 1313.37  126.98
  -4   4 -11 1049.05  121.06
  -4   4 -11  952.63  111.44
   4  -4  11 1350.96  130.96
   4  -3 -11   -9.92   15.55
  -4   3  11   12.28   13.02
   4  -3 -10  228.61   55.79
   4  -3 -10  203.83   50.73
  -4   3  10  232.49   46.16
   4  -3  -9 1173.94  113.29
   4  -3  -9 1329.94  136.85
  -4   3   9 1196.84   99.59
   4  -3  -8 1766.16  133.69
  -4   3   8 1770.30  118.80
   4  -3  -8 2016.50  169.58
   4  -3  -7  876.35   83.50
   4  -3  -7  842.53  105.17
  -4   3   7  888.19   74.51
   4  -3  -6  330.02   45.82
  -4   3   6  340.76   41.62
  -4   3   6  203.82   34.38
   4  -3  -6  264.85   57.99
   4  -3  -5  216.21   47.36
   4  -3  -5  298.63   35.08
   4  -3  -5  276.54   38.05
  -4   3   5  309.24   46.09
   4  -3  -4  339.75   57.44
   4  -3  -4  273.39   33.92
   4  -3  -4  304.45   34.94
  -4   3   4  353.58   50.58
   4  -3  -4  324.50   20.51
   4  -3  -3  732.91   50.98
   4  -3  -3  698.78   29.33
   4  -3  -3  762.27   55.93
  -4   3   3  745.37   75.38
   4  -3  -3  681.97   78.66
  -4   3   2 2824.64  156.64
   4  -3  -2 2837.41  111.69
   4  -3  -2 2777.96  142.63
   4  -3  -2 2702.78  123.77
   4  -3  -2 2456.03  154.99
   4  -3  -1 4937.72  223.37
   4  -3  -1 4951.76  207.75
  -4   3   1 4863.93  152.39
  -4   3   1 5071.86  220.91
   4  -3  -1 4858.38  189.68
  -4   3   1 4960.62  164.87
  -4   3   0 5538.68  167.18
  -4   3   0 5178.93  200.77
   4  -3   0 5451.16  230.18
   4  -3   0 5393.57  221.85
  -4   3   0 5553.46  231.59
   4  -3   0 5483.68  207.44
   4  -3   1 1860.23  108.23
  -4   3  -1 2105.05   76.27
  -4   3  -1 1873.05  112.08
   4  -3   1 1825.42   98.25
  -4   3  -1 1985.81  107.02
   4  -3   2 1361.10   86.89
  -4   3  -2 1213.00   84.32
  -4   3  -2 1323.18   88.21
   4  -3   2 1285.41   78.55
  -4   3  -3  335.03   43.06
   4  -3   3  294.51   39.23
   4  -3   3  315.73   36.86
   4  -3   3  306.16   39.56
  -4   3  -3  452.26   47.91
  -4   3  -4   25.31   12.45
   4  -3   4   38.63   14.97
  -4   3  -4    5.91   10.98
   4  -3   4   21.05   10.36
  -4   3  -5 1529.33  106.84
  -4   3  -5 1455.90   94.53
   4  -3   5 1560.40   91.43
  -4   3  -5 1408.70  105.00
   4  -3   5 1533.47  110.39
  -4   3  -6 2705.09  162.15
   4  -3   6 2887.81  167.59
  -4   3  -6 2651.34  138.39
  -4   3  -6 2543.80  157.64
   4  -3   6 3021.12  137.92
  -4   3  -7 2611.37  168.65
   4  -3   7 2961.73  176.38
  -4   3  -7 2574.16  164.06
   4  -3   8 1824.08  142.39
  -4   3  -8 1803.10  138.48
  -4   3  -8 2002.45  148.89
  -4   3  -9  751.53   92.49
  -4   3  -9  618.19   82.34
   4  -3   9  696.47   87.90
  -4   3 -10  256.79   56.56
  -4   3 -10  190.52   48.74
   4  -3  10  267.60   57.24
  -4   3 -11  -10.60   19.35
  -4   3 -11  -12.86   18.53
   4  -3  11   73.17   33.96
   4  -2 -11  450.06   75.20
   4  -2 -11  517.25   83.43
  -4   2  11  390.31   61.32
   4  -2 -10  911.76  104.16
  -4   2  10 1058.45   95.14
   4  -2 -10  859.86  109.17
   4  -2  -9 1469.13  125.46
  -4   2   9 1465.11  107.54
   4  -2  -9 1311.41  134.76
   4  -2  -8  871.82   86.88
  -4   2   8  678.08   66.96
   4  -2  -8  702.57   96.61
  -4   2   7   24.22   15.22
   4  -2  -7   12.70   11.53
   4  -2  -7   -7.15   14.67
   4  -2  -6  211.66   35.78
   4  -2  -6  203.38   46.65
  -4   2   6  287.24   37.01
   4  -2  -6  231.52   29.84
   4  -2  -6  301.01   28.49
  -4   2   6  275.45   38.03
   4  -2  -5  920.61   70.07
   4  -2  -5  934.50   96.79
   4  -2  -5 1014.17   63.44
  -4   2   5  905.43   76.66
   4  -2  -5  964.27   50.28
   4  -2  -4 1927.13   95.49
   4  -2  -4 1749.17  130.85
   4  -2  -4 1680.92   89.56
  -4   2   4 1974.37  122.98
   4  -2  -4 1878.91   72.60
   4  -2  -3 2841.43  113.61
   4  -2  -3 2599.75  158.30
   4  -2  -3 2846.71  122.62
  -4   2   3 2669.73  154.54
   4  -2  -2 4289.07  141.56
  -4   2   2 4079.28  199.42
   4  -2  -2 3914.17  196.21
   4  -2  -2 4035.70  161.59
  -4   2   2 4041.09  136.61
   4  -2  -1 3392.17  144.22
   4  -2  -1 3487.23  169.56
  -4   2   1 3478.60  130.40
  -4   2   1 3781.89  181.55
  -4   2   0  441.72   51.70
   4  -2   0  422.63   40.04
  -4   2   0  367.71   38.33
   4  -2   0  395.80   44.11
  -4   2  -1  482.55   48.72
   4  -2   1  434.96   42.11
  -4   2  -1  411.07   49.02
   4  -2   2 2452.06  118.72
  -4   2  -2 2689.33  135.43
   4  -2   2 2072.87  116.80
  -4   2  -2 2283.97  128.50
  -4   2  -3 2841.92  136.38
  -4   2  -3 2814.19  150.32
  -4   2  -3 2952.84  145.86
   4  -2   3 2793.93  147.14
  -4   2  -4 3499.20  172.05
   4  -2   4 3712.28  185.09
  -4   2  -4 3308.40  175.86
  -4   2  -4 3845.79  169.95
  -4   2  -5 2719.23  154.03
  -4   2  -5 2732.08  134.74
  -4   2  -5 2381.73  148.68
   4  -2   5 2834.57  161.83
  -4   2  -6 1850.47  131.20
   4  -2   6 1919.77  137.31
  -4   2  -6 2024.99  107.93
  -4   2  -6 2049.61  137.21
  -4   2  -7 1136.19  104.76
   4  -2   7 1069.12  104.30
  -4   2  -7 1092.31  101.50
  -4   2  -8  210.11   45.39
  -4   2  -8  216.24   48.19
   4  -2   8  234.99   49.98
  -4   2  -9   41.22   26.57
  -4   2  -9    6.46   15.46
   4  -2   9   31.64   26.91
  -4   2 -10  605.42   85.26
  -4   2 -10  535.48   82.06
   4  -2  10  672.09   92.77
  -4   2 -11  628.21   91.74
  -4   2 -11  495.43   80.04
   4  -2  11  633.94   94.13
   4  -1 -12 1091.59  124.64
  -4   1  12 1071.78  106.31
   4  -1 -12 1267.19  134.75
   4  -1 -11  406.56   71.24
   4  -1 -11  354.50   70.49
  -4   1  11  281.07   50.55
   4  -1 -10  170.39   43.71
   4  -1 -10  105.02   40.10
  -4   1  10  104.76   30.10
   4  -1  -9   11.28   16.59
   4  -1  -9   10.93   16.18
  -4   1   9   -5.95   13.69
   4  -1  -8   48.09   27.10
   4  -1  -8   40.85   18.14
  -4   1   8   47.44   17.40
   4  -1  -8   88.96   18.99
   4  -1  -7  602.26   67.64
   4  -1  -7  837.30   94.77
  -4   1   7  758.21   63.42
   4  -1  -7  721.24   51.05
   4  -1  -7  862.31   56.69
  -4   1   7  786.23   59.45
   4  -1  -6 2428.85  138.15
   4  -1  -6 2907.79  180.48
   4  -1  -6 2796.28  117.31
   4  -1  -6 2754.07  113.17
  -4   1   6 2585.53  131.28
   4  -1  -5 3047.54  142.72
   4  -1  -5 2898.88  177.80
   4  -1  -5 3230.23  128.97
   4  -1  -5 3093.41  117.59
  -4   1   5 2912.24  148.27
   4  -1  -4 2479.05  108.59
   4  -1  -4 2197.62  142.24
   4  -1  -4 2285.97  104.29
  -4   1   4 2275.78  130.74
   4  -1  -3  202.54   20.56
   4  -1  -3  263.34   41.28
  -4   1   3  275.57   41.97
   4  -1  -3  271.01   29.12
  -4   1   2   70.89   12.31
   4  -1  -2  105.43    9.84
   4  -1  -2   80.81   21.91
  -4   1   2   80.92   23.70
   4  -1  -2   91.72   17.95
   4  -1  -1  706.34   53.91
   4  -1  -1  825.48   66.07
  -4   1   1  857.87   76.66
  -4   1   1  771.93   49.19
  -4   1   0 2614.15   89.24
   4  -1   0 2137.19  111.82
  -4   1   0 2157.59  113.32
  -4   1   0 2436.54  136.58
   4  -1   1 3244.44  131.22
  -4   1  -1 3522.65  131.65
  -4   1  -1 3355.02  163.51
   4  -1   1 3197.00  148.19
  -4   1  -1 3034.15  154.16
  -4   1  -2 5147.00  197.55
   4  -1   2 4944.19  211.60
  -4   1  -2 4976.41  211.84
  -4   1  -2 4923.48  220.01
  -4   1  -3 4962.49  207.54
  -4   1  -3 4436.15  215.92
   4  -1   3 4823.70  220.66
  -4   1  -3 5240.79  207.44
  -4   1  -4 3415.45  171.19
   4  -1   4 3437.72  180.70
  -4   1  -4 3276.76  177.21
  -4   1  -4 3299.17  151.52
  -4   1  -5  155.46   34.46
  -4   1  -5  185.37   37.86
  -4   1  -5  165.61   25.93
   4  -1   5  136.77   34.07
  -4   1  -6   15.09   17.08
  -4   1  -6   29.85   17.72
   4  -1   6    7.02   14.15
  -4   1  -7   60.49   26.95
  -4   1  -7   49.11   23.48
   4  -1   7   39.62   25.95
  -4   1  -8  367.94   62.59
  -4   1  -8  371.03   63.39
   4  -1   8  433.70   69.28
  -4   1  -9  797.74   97.67
   4  -1   9 1024.22  112.03
  -4   1  -9  926.58  102.84
  -4   1 -10 1161.65  124.36
   4  -1  10 1336.18  135.45
  -4   1 -10 1227.58  124.01
  -4   1 -11  540.72   85.40
  -4   1 -11  722.36   97.85
   4  -1  11  681.21  100.21
   4   0 -12  186.96   52.71
   4   0 -12   83.10   34.60
  -4   0  12  137.42   37.66
   4   0 -11  -22.71   26.25
   4   0 -11   31.15   20.80
  -4   0  11   34.45   20.76
   4   0 -10  574.80   86.59
   4   0 -10  566.15   79.56
  -4   0  10  513.69   61.60
   4   0  -9  995.41  102.13
   4   0  -9 1052.83  115.14
  -4   0   9 1015.58   82.89
   4   0  -9 1062.68   77.13
   4   0  -8 1597.38  124.05
   4   0  -8 1730.09  144.21
  -4   0   8 1506.37   98.17
   4   0  -8 1616.23   91.80
   4   0  -7 1114.89   68.64
   4   0  -7 1045.75   91.21
   4   0  -7 1009.78  104.07
  -4   0   7 1044.15   74.60
   4   0  -7 1164.21   62.43
  -4   0   7 1181.21   74.06
   4   0  -6  609.81   61.38
   4   0  -6  611.31   73.84
   4   0  -6  637.46   45.18
   4   0  -6  596.30   42.51
  -4   0   6  613.04   53.60
   4   0  -5  555.31   40.71
   4   0  -5  442.09   46.16
   4   0  -5  468.48   60.35
  -4   0   5  544.23   51.79
   4   0  -4   67.69   15.63
  -4   0   4   41.95   15.92
   4   0  -4   83.61   16.16
   4   0  -4   71.54   22.83
   4   0  -3 1044.85   51.02
   4   0  -3 1107.35   82.75
   4   0  -3  971.69   53.44
   4   0  -3 1034.81   62.99
  -4   0   3  929.84   74.64
  -4   0   3  976.53   51.88
   4   0  -2 4162.85  186.82
   4   0  -2 4431.33  144.05
  -4   0   2 4486.27  199.48
  -4   0   2 4618.05  161.33
  -4   0   1 7320.52  253.73
   4   0  -1 6928.62  262.07
   4   0  -1 7384.61  221.64
  -4   0   1 7607.45  289.84
  -4   0   0 5235.21  165.44
   4   0   0 4938.17  198.36
  -4   0   0 5490.85  224.37
  -4   0   0 4651.47  199.58
   4   0   0 5168.46  188.89
  -4   0  -1 2846.53  119.69
   4   0   1 2315.44  127.00
  -4   0  -1 2534.36  135.17
   4   0   1 2706.18  103.14
  -4   0  -1 2375.88  134.63
  -4   0  -2 1401.37   89.55
  -4   0  -2 1191.06   93.54
   4   0   2 1184.80   90.56
  -4   0  -2 1348.76   86.46
  -4   0  -3 1135.11   87.21
   4   0   3 1085.52   90.96
  -4   0  -3 1170.48   76.45
  -4   0  -3 1232.61   96.88
  -4   0  -4   99.45   28.97
  -4   0  -4  110.05   27.11
  -4   0  -4  119.25   20.97
   4   0   4  121.33   32.77
  -4   0  -5 1221.80  103.00
  -4   0  -5 1092.35   99.35
  -4   0  -5 1217.07   69.56
   4   0   5 1168.38  103.76
  -4   0  -6 1645.23  126.68
  -4   0  -6 1499.01  122.05
   4   0   6 1440.80  120.89
   4   0   7 1923.27  150.96
  -4   0  -7 2485.71  166.16
  -4   0  -7 2136.26  154.65
  -4   0  -8 1187.96  115.94
   4   0   8 1043.23  111.92
  -4   0  -8 1116.46  110.98
  -4   0  -9  341.28   62.13
  -4   0  -9  301.36   59.83
   4   0   9  243.26   57.73
  -4   0 -10   59.26   32.12
  -4   0 -10   47.48   33.64
   4   0  10   89.95   39.10
   4   1 -12  441.17   79.49
   4   1 -12  335.20   68.73
  -4  -1  12  413.32   61.88
   4   1 -11  440.35   75.80
  -4  -1  11  523.88   64.47
   4   1 -11  482.03   58.40
   4   1 -11  510.75   82.39
   4   1 -10 1447.64  131.50
   4   1 -10 1211.91  127.69
  -4  -1  10 1162.62   93.48
   4   1 -10 1409.71   96.23
   4   1  -9 1453.04  126.91
   4   1  -9 1659.53  144.35
  -4  -1   9 1604.60  104.73
   4   1  -9 1652.97  100.11
  -4  -1   8  606.46   49.97
   4   1  -8  663.79   84.83
   4   1  -8  689.27   78.40
  -4  -1   8  705.68   60.39
   4   1  -8  607.14   53.46
   4   1  -7    7.46   10.51
  -4  -1   7   39.46   12.76
   4   1  -7   33.92   18.86
   4   1  -7   21.37    8.14
  -4  -1   7   17.95   10.28
   4   1  -7   43.24   13.42
   4   1  -6  769.38   80.40
   4   1  -6  679.67   66.11
   4   1  -6  854.77   50.05
   4   1  -6  771.52   53.11
  -4  -1   6  797.70   60.52
   4   1  -5 1979.46  127.33
   4   1  -5 2163.62  113.02
   4   1  -5 2023.78  104.94
   4   1  -5 1820.23   89.50
  -4  -1   5 2014.24  107.46
   4   1  -4 4132.45  191.51
   4   1  -4 3800.10  159.84
   4   1  -4 4219.08  158.36
   4   1  -4 4304.92  162.16
  -4  -1   4 4000.28  175.11
   4   1  -3 3637.76  168.19
  -4  -1   3 3566.42  164.64
   4   1  -3 3909.81  138.36
   4   1  -3 3726.32  135.40
  -4  -1   3 3765.55  142.08
   4   1  -2 5692.91  224.22
   4   1  -2 6061.52  194.12
  -4  -1   2 5806.27  232.79
  -4  -1   2 6011.44  209.77
   4   1  -1 4075.25  160.67
   4   1  -1 4181.38  144.38
  -4  -1   1 3948.19  176.38
  -4  -1   1 4092.71  163.64
   4   1   0  415.96   33.37
  -4  -1   0  407.70   29.20
   4   1   0  384.35   42.19
  -4  -1   0  438.12   45.61
  -4  -1   0  472.39   46.58
  -4  -1  -1   29.56   13.99
   4   1   1   29.76    6.74
  -4  -1  -1   34.51   11.51
  -4  -1  -1   51.56   14.90
   4   1   1   54.36   18.87
  -4  -1  -2 1762.25  102.90
   4   1   2 1878.53  116.90
  -4  -1  -2 1463.14  109.31
  -4  -1  -2 1544.18   89.95
  -4  -1  -3 2387.99  137.68
  -4  -1  -3 2308.94  145.38
  -4  -1  -3 2171.72  107.81
   4   1   3 2148.70  136.48
  -4  -1  -4 2339.53  144.52
   4   1   4 1660.42  128.70
  -4  -1  -4 2155.86  142.91
  -4  -1  -4 2228.94  102.11
  -4  -1  -5 1415.60  115.35
  -4  -1  -5 1553.85  121.07
   4   1   5 1262.94  111.38
  -4  -1  -6 2024.52  144.80
   4   1   6 1612.82  133.40
  -4  -1  -6 1777.00  136.74
  -4  -1  -7 1254.01  116.69
  -4  -1  -7 1158.88  111.54
   4   1   7 1165.34  115.37
  -4  -1  -8   10.05   15.45
  -4  -1  -8   65.46   30.78
   4   1   8    6.91   16.75
  -4  -1  -9  105.12   37.56
  -4  -1  -9  125.06   39.74
   4   1   9  116.14   40.90
  -4  -1 -10  496.42   78.23
  -4  -1 -10  565.54   84.84
   4   1  10  445.80   82.12
   4   2 -13 1425.17  147.85
   4   2 -13 1267.79  140.95
  -4  -2  13 1441.92  121.36
   4   2 -12  470.59   82.11
  -4  -2  12  654.90   75.28
   4   2 -12  571.70   68.20
   4   2 -12  604.07   92.25
  -4  -2  11  335.86   49.59
   4   2 -11  474.04   77.13
   4   2 -11  404.58   52.67
   4   2 -11  348.36   67.12
   4   2 -10   -1.15   14.74
   4   2 -10   51.38   28.72
  -4  -2  10   14.52   12.52
   4   2 -10   13.72    9.86
   4   2  -9  129.28   36.70
   4   2  -9  182.72   46.39
  -4  -2   9  133.65   27.93
   4   2  -9   86.04   22.28
   4   2  -8  683.17   83.36
  -4  -2   8  646.65   52.91
   4   2  -8  607.77   74.50
  -4  -2   8  669.61   57.19
   4   2  -8  650.25   56.28
  -4  -2   7 1947.80  102.46
   4   2  -7 1791.45  124.92
  -4  -2   7 1861.65   93.41
   4   2  -7 1763.33  114.90
   4   2  -7 1988.57   83.15
   4   2  -7 1863.83   99.06
   4   2  -7 1815.43  135.53
   4   2  -6 3175.34  163.01
   4   2  -6 3201.35  149.94
   4   2  -6 3110.53  124.27
  -4  -2   6 3082.21  142.14
   4   2  -6 3021.27  173.48
  -4  -2   5 5870.17  225.61
   4   2  -5 5696.63  217.36
   4   2  -5 5801.53  252.95
   4   2  -4 2412.55  105.88
   4   2  -4 2281.75  129.99
  -4  -2   4 2355.83  119.31
   4   2  -3  343.12   29.70
  -4  -2   3  325.34   32.01
  -4  -2   3  317.94   37.81
  -4  -2   2  144.64   21.71
   4   2  -2  168.83   20.36
  -4  -2   2  154.96   26.26
  -4  -2   1  881.93   62.16
  -4  -2   1  897.56   48.35
   4   2  -1 1087.96   59.91
  -4  -2   1  904.69   66.35
  -4  -2   0  590.93   42.45
   4   2   0  651.15   57.24
  -4  -2   0  518.06   51.49
  -4  -2   0  616.27   52.25
  -4  -2  -1 3875.73  162.30
   4   2   1 3980.97  184.35
  -4  -2  -1 3889.76  182.71
   4   2   1 3779.14  130.84
  -4  -2  -1 3695.29  160.11
  -4  -2  -2 5221.90  217.13
   4   2   2 5272.08  231.84
  -4  -2  -2 4862.04  230.37
  -4  -2  -2 4806.42  192.55
  -4  -2  -3 4085.37  160.19
  -4  -2  -3 3953.23  196.41
   4   2   3 3860.58  200.00
  -4  -2  -3 3749.44  203.09
  -4  -2  -4 1633.35   82.16
  -4  -2  -4 1770.16  127.56
  -4  -2  -4 1687.15  127.85
   4   2   4 1354.58  114.16
  -4  -2  -5  183.05   41.45
  -4  -2  -5  146.35   23.31
  -4  -2  -5  145.33   36.72
   4   2   5  136.07   35.95
  -4  -2  -6   35.31   22.12
  -4  -2  -6    0.92   16.82
   4   2   6    8.88   14.71
  -4  -2  -7  482.68   71.74
  -4  -2  -7  447.46   70.50
   4   2   7  322.62   62.10
  -4  -2  -8  512.01   75.23
  -4  -2  -8  532.34   79.38
   4   2   8  452.28   76.19
  -4  -2  -9  603.76   87.76
   4   2   9  503.95   85.22
  -4  -2  -9  713.22   91.21
   4   3 -13  153.88   49.22
  -4  -3  13  159.21   38.39
   4   3 -13  112.42   41.28
   4   3 -13   42.06   22.27
   4   3 -12   21.65   19.89
   4   3 -12    4.04   18.96
  -4  -3  12    8.08   12.30
   4   3 -12   -0.34   12.99
   4   3 -11   35.26   25.84
   4   3 -11   49.56   34.15
  -4  -3  11   88.83   24.31
   4   3 -11   36.90   17.09
   4   3 -10 1408.89  135.68
   4   3 -10 1132.41  118.81
  -4  -3  10 1545.23  101.34
   4   3 -10 1477.24  102.38
   4   3  -9 2277.06  163.61
  -4  -3   9 2353.35  118.26
  -4  -3   9 2307.98  124.32
   4   3  -9 2393.89  130.04
   4   3  -9 2506.39  178.18
   4   3  -8 1903.20  140.25
  -4  -3   8 2216.99  112.21
  -4  -3   8 1982.60  106.70
   4   3  -8 2056.24  132.00
   4   3  -8 1973.19  111.01
   4   3  -8 1942.59  148.42
  -4  -3   8 2144.26  101.65
   4   3  -7 1323.27  103.59
  -4  -3   7 1203.99   79.35
   4   3  -7 1189.79   88.64
   4   3  -7 1247.27   63.15
   4   3  -7 1143.99   76.35
   4   3  -7 1164.88  105.46
  -4  -3   7 1256.90   74.47
  -4  -3   6  790.67   63.11
   4   3  -6  992.69   71.10
  -4  -3   6  847.33   60.94
  -4  -3   5  575.61   52.31
   4   3  -5  541.50   47.87
   4   3  -4  322.29   33.76
  -4  -3   4  345.14   39.67
  -4  -3   3 2620.83  128.18
   4   3  -3 2478.30  113.00
  -4  -3   3 2696.38  117.91
  -4  -3   2 4686.34  198.58
   4   3  -2 5074.54  188.41
  -4  -3   2 5128.27  193.15
  -4  -3   1 4858.15  196.56
  -4  -3   1 4810.39  177.83
   4   3  -1 4812.97  189.38
  -4  -3   1 4992.59  195.72
   4   3  -1 4711.58  194.23
  -4  -3   0 3609.01  154.46
  -4  -3   0 3459.80  145.97
   4   3   0 3286.23  153.59
   4   3   0 3517.86  163.01
  -4  -3   0 3250.43  158.03
  -4  -3  -1 2631.01  126.19
  -4  -3  -1 2784.72  135.43
   4   3   1 2899.62  152.51
  -4  -3  -1 2489.81  142.01
  -4  -3  -2  935.45   63.27
  -4  -3  -2  821.43   73.19
   4   3   2  884.14   81.50
  -4  -3  -2  868.54   80.63
  -4  -3  -2  776.59   61.89
  -4  -3  -3  303.95   51.05
  -4  -3  -3  218.75   27.68
  -4  -3  -3  180.28   28.51
  -4  -3  -3  153.23   34.07
   4   3   3  175.87   37.84
  -4  -3  -4  183.46   40.66
  -4  -3  -4  162.40   26.32
  -4  -3  -4  192.95   40.57
   4   3   4  152.95   38.30
  -4  -3  -5 1420.49  123.44
   4   3   5 1192.56  113.26
  -4  -3  -5 1404.66  120.92
  -4  -3  -6 1357.82  125.83
   4   3   6 1022.53  110.16
  -4  -3  -6 1681.10  134.11
  -4  -3  -7 1236.53  123.26
  -4  -3  -7 1332.21  121.88
   4   3   7 1172.49  121.85
  -4  -3  -8  437.42   71.82
  -4  -3  -8  445.70   74.23
   4   3   8  274.87   61.30
  -4  -3  -9  112.17   35.45
  -4  -3  -9  105.49   38.29
   4   3   9   52.47   27.98
   4   4 -13  366.98   74.52
   4   4 -13  533.43   70.84
   4   4 -13  471.65   85.01
   4   4 -12  296.26   67.04
   4   4 -12  294.37   64.47
  -4  -4  12  329.60   51.13
   4   4 -12  313.50   51.61
   4   4 -11  922.63  114.06
   4   4 -11 1032.36  118.29
  -4  -4  11 1077.24   86.75
   4   4 -11 1041.48   90.88
   4   4 -10 1517.75  140.63
  -4  -4  10 1791.25  108.40
   4   4 -10 1725.89  114.71
   4   4 -10 1812.69  157.20
   4   4  -9 1295.56  120.09
  -4  -4   9 1257.87   84.28
  -4  -4   9 1297.03   83.76
   4   4  -9 1207.77  103.97
   4   4  -9 1240.56   90.51
   4   4  -9 1202.45  121.61
  -4  -4   8  374.78   42.68
  -4  -4   8  300.51   34.81
   4   4  -8  305.92   45.68
   4   4  -8  284.29   39.40
  -4  -4   8  296.39   34.35
  -4  -4   7  693.83   58.95
   4   4  -7  515.86   56.60
  -4  -4   7  514.45   47.90
  -4  -4   6 1372.47   86.80
   4   4  -6 1134.10   81.20
  -4  -4   6 1218.14   78.57
  -4  -4   5 3364.43  156.69
   4   4  -5 3405.95  152.24
  -4  -4   5 3301.01  151.34
  -4  -4   4 3320.45  155.05
   4   4  -4 3331.01  146.61
  -4  -4   4 3331.21  152.23
  -4  -4   3 2497.51  130.22
   4   4  -3 2865.85  128.68
  -4  -4   3 2632.09  131.62
  -4  -4   3 2761.20  125.12
  -4  -4   2 4113.69  174.71
   4   4  -2 3731.36  165.32
  -4  -4   2 3930.80  165.43
  -4  -4   2 4006.71  174.31
  -4  -4   1 1631.15   96.59
  -4  -4   1 1684.29   91.52
   4   4  -1 1743.71   99.82
   4   4  -1 1636.17   96.53
  -4  -4   1 1586.63   96.99
  -4  -4   1 1578.85   94.68
  -4  -4   0  338.62   40.37
  -4  -4   0  440.21   45.90
   4   4   0  492.77   52.63
   4   4   0  548.89   55.68
  -4  -4   0  438.40   49.12
  -4  -4   0  493.71   49.56
  -4  -4  -1  138.02   29.82
   4   4   1  106.20   28.98
  -4  -4  -1  166.36   28.94
  -4  -4  -1  136.45   28.29
  -4  -4  -1  157.45   26.11
  -4  -4  -2 1106.59   72.46
  -4  -4  -2 1119.28   90.86
   4   4   2 1071.85   92.22
  -4  -4  -2  955.15   86.56
  -4  -4  -2  961.66   72.69
  -4  -4  -3 1725.67   93.71
  -4  -4  -3 1743.96  126.43
   4   4   3 1728.05  128.48
  -4  -4  -3 1821.93  129.66
  -4  -4  -3 1652.13   99.30
  -4  -4  -4 1272.44  115.17
  -4  -4  -4 1399.63  117.71
   4   4   4 1238.41  112.55
  -4  -4  -4 1393.44   86.99
  -4  -4  -5  529.50   73.43
  -4  -4  -5  463.60   71.12
   4   4   5  532.26   75.22
  -4  -4  -6  731.72   93.66
   4   4   6  485.66   76.72
  -4  -4  -6  707.23   87.18
  -4  -4  -7  177.13   45.27
  -4  -4  -7  186.27   49.63
   4   4   7  255.20   57.98
  -4  -4  -8   14.84   14.51
  -4  -4  -8   35.36   22.42
   4   4   8   33.97   25.34
   4   5 -13 1030.21  127.14
   4   5 -13  843.42  116.30
   4   5 -13 1249.41  111.46
   4   5 -12  559.68   91.59
   4   5 -12  651.38   97.54
   4   5 -12  421.24   61.18
   4   5 -11  180.64   52.16
   4   5 -11  261.26   61.08
   4   5 -11  252.15   44.08
   4   5 -10  102.39   37.42
   4   5 -10   39.72   19.56
   4   5 -10   72.81   32.16
   4   5 -10   24.77   14.64
  -4  -5   9  612.61   52.51
  -4  -5   9  491.60   53.21
  -4  -5   9  540.22   49.46
   4   5  -9  564.41   68.29
   4   5  -9  442.31   53.56
  -4  -5   8 1170.14   83.62
  -4  -5   8 1155.40   69.53
   4   5  -8  970.71   87.23
  -4  -5   8 1009.75   73.35
   4   5  -8 1079.73   81.54
  -4  -5   7 2546.50  135.68
  -4  -5   7 2617.75  112.75
   4   5  -7 2591.88  142.94
  -4  -5   7 2547.70  128.97
  -4  -5   6 3169.94  154.03
   4   5  -6 2846.29  149.61
  -4  -5   6 3201.09  149.25
  -4  -5   5 2986.36  151.55
   4   5  -5 3419.80  154.85
  -4  -5   5 3088.98  149.65
  -4  -5   4 1312.23   88.30
   4   5  -4 1239.83   84.03
  -4  -5   4 1257.39   85.90
  -4  -5   3  524.27   53.26
   4   5  -3  547.65   53.15
  -4  -5   3  473.32   50.51
  -4  -5   3  540.74   48.95
  -4  -5   2    4.87    7.07
  -4  -5   2    2.89    8.68
   4   5  -2    2.60    6.92
  -4  -5   2   17.58   12.23
  -4  -5   1  509.06   52.00
  -4  -5   1  600.07   55.02
   4   5  -1  606.01   59.50
   4   5  -1  535.53   51.98
  -4  -5   1  605.17   55.31
  -4  -5   1  534.56   54.34
  -4  -5   0  579.54   55.12
  -4  -5   0  640.89   61.86
   4   5   0  703.42   68.48
   4   5   0  672.84   65.03
  -4  -5   0  624.06   59.73
  -4  -5   0  582.90   57.51
  -4  -5  -1 1916.25  107.98
  -4  -5  -1 1954.49  123.21
   4   5   1 2031.92  128.66
  -4  -5  -1 1703.40  114.88
  -4  -5  -1 1844.24  110.92
  -4  -5  -2 3137.32  175.84
  -4  -5  -2 3029.94  145.04
   4   5   2 3040.77  175.24
  -4  -5  -2 3277.77  174.04
  -4  -5  -2 3042.04  152.53
  -4  -5  -3 1265.70  110.72
   4   5   3 1151.09  106.01
  -4  -5  -3 1334.71  108.40
  -4  -5  -3 1231.36   86.56
  -4  -5  -4  172.55   39.44
  -4  -5  -4  123.01   38.86
   4   5   4  133.40   38.40
  -4  -5  -5   -7.61   10.70
  -4  -5  -5   13.78   21.72
   4   5   5   -3.86   14.67
  -4  -5  -6   46.40   25.86
  -4  -5  -6   37.04   21.58
   4   5   6   59.31   29.80
  -4  -5  -7  222.46   56.11
   4   5   7  207.42   54.25
   4   6 -13   74.88   35.68
   4   6 -13   45.73   29.02
   4   6 -13   52.51   24.94
   4   6 -12    1.29   26.53
   4   6 -12  -60.43   32.79
   4   6 -12    7.58   14.78
   4   6 -11  508.00   84.87
   4   6 -11  511.69   89.40
   4   6 -11  498.52   74.75
   4   6 -11  519.95   65.07
   4   6 -10 1635.70  118.11
   4   6 -10 1950.03  142.76
  -4  -6   9 1800.54  104.90
   4   6  -9 1583.04  122.33
   4   6  -9 1727.11  115.32
   4   6  -8 1953.42  129.74
   4   6  -8 1857.95  116.43
  -4  -6   8 1916.37  111.42
  -4  -6   7  979.42   79.25
   4   6  -7  783.91   74.82
  -4  -6   7  886.21   71.54
  -4  -6   6  593.17   61.65
   4   6  -6  637.82   63.84
  -4  -6   6  662.34   61.27
   4   6  -5  298.16   41.38
  -4  -6   5  275.94   41.25
  -4  -6   5  298.61   41.25
  -4  -6   4   19.87   16.43
   4   6  -4   17.58    9.91
  -4  -6   4   27.78   14.89
  -4  -6   3 1171.96   86.65
   4   6  -3 1092.90   84.13
  -4  -6   3 1184.57   86.89
  -4  -6   2 3983.47  186.49
   4   6  -2 3991.56  190.41
  -4  -6   2 3987.78  177.25
  -4  -6   2 4031.53  186.98
  -4  -6   1 2274.36  128.31
  -4  -6   1 2098.86  127.82
   4   6  -1 2205.07  135.55
   4   6  -1 2490.56  127.04
  -4  -6   1 2320.82  125.89
  -4  -6   1 2304.91  130.99
  -4  -6   0 1221.28   87.84
  -4  -6   0 1145.73   92.92
   4   6   0 1137.85   97.28
   4   6   0 1404.21   97.40
  -4  -6   0 1185.71   87.97
  -4  -6   0 1099.43   86.74
  -4  -6  -1  753.29   78.55
   4   6   1  876.05   82.16
   4   6   1  712.70   80.02
  -4  -6  -1  747.80   71.66
  -4  -6  -1  775.22   70.12
  -4  -6  -2  217.17   40.50
  -4  -6  -2  199.92   35.08
  -4  -6  -2  164.37   38.65
   4   6   2  184.83   41.00
  -4  -6  -3    4.57   10.28
  -4  -6  -3   -2.76    9.22
  -4  -6  -3    6.90   13.51
   4   6   3    5.98   11.73
  -4  -6  -4  180.40   41.48
  -4  -6  -4  102.30   36.16
   4   6   4  146.49   40.48
  -4  -6  -5  670.35   81.83
  -4  -6  -5  625.40   89.76
   4   6   5  594.35   83.99
  -4  -6  -6  951.83  115.04
   4   6   6  776.89  101.14
   4   7 -12  769.22  110.39
   4   7 -12  898.37   93.10
   4   7 -12  699.89   94.45
   4   7 -12  648.56  107.68
   4   7 -11 1023.78  108.40
   4   7 -11  968.63   93.34
   4   7 -10 1294.18  117.68
   4   7 -10 1407.79  109.30
  -4  -7   9  822.96   71.49
   4   7  -9  732.01   82.18
   4   7  -9  883.61   80.60
  -4  -7   8  262.44   39.64
   4   7  -8  185.10   40.34
   4   7  -8  165.04   34.71
  -4  -7   7  287.00   42.48
   4   7  -7  216.83   40.03
   4   7  -6  835.24   79.47
  -4  -7   6 1236.60   89.81
   4   7  -5 1272.70   96.49
  -4  -7   5 1239.59   93.26
   4   7  -4 2280.15  137.08
  -4  -7   4 2376.35  137.35
   4   7  -3 1940.91  125.20
  -4  -7   3 1984.09  123.49
   4   7  -2 1586.86  112.54
  -4  -7   2 1409.96   94.53
  -4  -7   2 1484.02  105.24
  -4  -7   1  760.58   74.62
   4   7  -1  770.45   78.97
  -4  -7   1  688.03   63.94
  -4  -7   1  615.96   65.96
  -4  -7   0   48.44   17.05
  -4  -7   0   24.37   15.26
  -4  -7   0   64.51   23.59
   4   7   0   91.42   29.43
  -4  -7  -1   40.09   19.78
  -4  -7  -1  113.78   28.89
  -4  -7  -1  114.20   28.64
   4   7   1  165.40   41.93
  -4  -7  -2  565.14   77.17
   4   7   2  629.72   83.42
   4   7   2  762.09   82.90
  -4  -7  -2  731.00   71.89
  -4  -7  -2  763.11   75.77
  -4  -7  -3  564.58   63.24
  -4  -7  -3  704.48   88.69
   4   7   3  533.95   74.01
  -4  -7  -3  551.99   67.89
   4   7   4  577.15   80.09
  -4  -7  -4  437.31   74.92
  -4  -7  -5  504.67   83.39
   4   7   5  501.79   77.40
   4   8 -12  387.60   70.50
   4   8 -12  283.12   53.25
   4   8 -11   45.24   25.91
   4   8 -11   83.11   28.70
  -4  -8  10   24.50   16.59
   4   8 -10   66.54   26.43
   4   8 -10   71.36   26.00
  -4  -8   9  235.39   40.82
   4   8  -9  213.58   45.48
   4   8  -9  204.61   40.35
  -4  -8   8  667.86   68.78
   4   8  -8  828.17   85.86
   4   8  -8  832.39   77.87
  -4  -8   7 1638.76  114.79
   4   8  -7 1846.82  129.44
  -4  -8   6 2756.47  154.01
   4   8  -6 2507.73  155.63
  -4  -8   5 2455.03  146.51
   4   8  -5 2535.13  154.02
  -4  -8   4  878.83   80.96
   4   8  -4  786.91   80.39
  -4  -8   3  118.86   29.21
   4   8  -3  106.60   29.44
  -4  -8   2   -6.48   11.90
   4   8  -2    2.59   13.51
  -4  -8   1  117.99   28.00
  -4  -8   1  151.75   34.43
   4   8  -1  164.52   38.38
  -4  -8   0  445.81   59.24
  -4  -8   0  479.80   67.07
   4   8   0  564.51   75.21
  -4  -8   0  547.78   60.80
  -4  -8  -1 1008.14   91.25
  -4  -8  -1  905.13   98.74
   4   8   1 1046.38  109.25
  -4  -8  -1 1098.93   89.75
  -4  -8  -2 1165.16   99.11
  -4  -8  -2 1162.80  117.01
   4   8   2 1323.43  128.37
  -4  -8  -3  506.02   79.21
   4   8   3  398.01   71.18
   4   8   4   35.05   23.36
  -4  -8  -4   42.41   25.87
   4   9 -11  433.60   72.84
   4   9 -11  480.49   67.80
  -4  -9  10 1802.71  122.41
   4   9 -10 1422.83  131.68
   4   9 -10 1621.10  127.24
  -4  -9   9 1788.01  124.26
   4   9  -9 1644.23  136.16
   4   9  -9 1787.79  129.17
  -4  -9   8 1360.91  107.29
   4   9  -8 1263.48  104.44
   4   9  -8 1384.81  119.65
  -4  -9   7 1265.99  103.82
   4   9  -7 1314.49  113.40
  -4  -9   6  320.86   50.06
   4   9  -6  360.15   57.37
  -4  -9   5   31.25   20.05
   4   9  -5  130.17   33.31
  -4  -9   4  111.11   31.14
   4   9  -4  103.72   30.67
  -4  -9   3  681.55   77.06
   4   9  -3  822.20   86.70
  -4  -9   2 1219.41  104.45
   4   9  -2 1131.86  106.89
  -4  -9   1 1185.33  103.73
   4   9  -1 1057.24  106.84
  -4  -9   0  449.90   62.15
  -4  -9   0  348.55   60.69
   4   9   0  431.75   68.55
   4   9   1  136.29   42.74
  -4  -9  -1  208.04   42.68
  -4  -9  -1  204.22   47.48
  -4  -9  -2   13.29   15.89
  -4  -9  -2   -2.19   16.81
   4   9   2  -30.03   22.17
  -4  -9  -3  102.91   38.47
   4   9   3    4.40   16.61
  -4 -10  10 1175.27  103.04
   4  10 -10 1061.54  114.97
   4  10 -10 1098.75  105.95
  -4 -10   9  467.58   64.18
   4  10  -9  477.67   74.32
   4  10  -9  468.25   64.66
  -4 -10   8   90.12   28.16
   4  10  -8   95.15   34.10
   4  10  -8   76.08   27.54
  -4 -10   7   66.59   24.73
   4  10  -7  111.44   33.54
  -4 -10   6  692.20   79.26
   4  10  -6  638.31   80.17
  -4 -10   5  841.96   88.23
   4  10  -5  672.69   82.69
  -4 -10   4  966.15   96.45
   4  10  -4  935.90   99.13
  -4 -10   3  755.53   85.83
   4  10  -3  745.13   88.66
  -4 -10   2  505.23   68.98
   4  10  -2  439.59   70.57
   4  10  -1  239.75   52.00
  -4 -10   1  221.31   45.88
  -4 -10   0   -4.40   15.14
   4  10   0   -4.73   14.23
   4  10   1  173.42   49.10
  -4 -10  -1  234.68   48.87
  -4 -10  -1  183.58   50.34
  -4 -11   8  406.22   64.36
   4  11  -8  465.49   73.89
   4  11  -8  401.63   61.16
  -4 -11   7 1156.91  110.86
   4  11  -7 1389.34  128.12
   4  11  -7 1284.60  108.16
  -4 -11   6 1075.21  105.44
   4  11  -6  971.83  105.38
  -4 -11   5  983.56  102.85
   4  11  -5 1083.73  112.09
  -4 -11   4  254.99   52.73
   4  11  -4  313.92   59.38
  -4 -11   3   54.38   25.93
   4  11  -3  -11.01   20.52
  -4 -11   2   27.68   23.00
   4  11  -2   58.94   29.56
   5 -11   0 1319.94  128.83
   5 -11   1  879.45  102.11
   5 -11   2  540.77   79.03
   5 -11   3  303.29   58.11
   5 -11   4   56.43   23.86
   5 -11   5   44.67   26.37
   5 -11   6  723.25   90.50
   5 -10  -3 1133.60  119.24
   5 -10  -2 1720.47  144.89
   5 -10  -1 1721.29  143.21
   5 -10   0  642.43   84.09
   5 -10   1   82.79   31.90
   5 -10   2  138.21   38.82
   5 -10   3  747.48   87.50
   5 -10   4  688.37   83.52
   5 -10   5  883.08   94.42
   5 -10   6  914.89   96.54
   5 -10   7  425.94   64.85
   5 -10   8    6.32   15.84
   5  -9  -4 1287.44  110.01
  -5   9   3  682.43   91.49
   5  -9  -3  674.15   85.71
   5  -9  -2   76.62   30.33
   5  -9  -1   44.40   23.74
   5  -9   0   83.16   30.59
   5  -9   1  756.00   84.77
   5  -9   2 1647.22  128.84
   5  -9   3 1578.06  124.67
   5  -9   4  826.37   87.63
   5  -9   5  139.96   36.97
   5  -9   6   -7.26   11.77
  -5   9  -7  313.84   52.93
   5  -9   7  334.33   55.27
  -5   9  -8  333.09   57.41
   5  -9   8  274.52   51.38
  -5   9  -9  614.86   84.12
   5  -8  -6  442.03   65.40
  -5   8   6  403.44   57.34
   5  -8  -5  267.61   48.76
  -5   8   5  238.03   42.42
   5  -8  -4  177.33   36.75
   5  -8  -4  132.60   38.49
  -5   8   4  144.75   30.79
  -5   8   3  155.68   42.67
   5  -8  -3  165.15   35.10
   5  -8  -3  205.09   44.88
  -5   8   3  219.10   35.46
   5  -8  -2  853.49   91.28
  -5   8   2  988.74   74.64
   5  -8  -1 1836.32  135.59
   5  -8   0 1831.95  132.96
   5  -8   1 1358.66  110.69
   5  -8   2  406.39   58.67
   5  -8   2  397.79   54.77
   5  -8   3   34.39   17.94
   5  -8   3   88.39   26.23
   5  -8   4   25.55   13.95
   5  -8   4   33.05   21.51
   5  -8   5  470.60   62.78
   5  -8   5  528.01   60.41
  -5   8  -5  502.58   60.28
   5  -8   6 1311.76  108.23
  -5   8  -6 1368.36  108.73
   5  -8   7 1355.95  110.49
  -5   8  -7 1418.43  116.72
   5  -8   8  484.66   64.75
  -5   8  -8  667.11   81.36
  -5   8  -9  298.27   57.82
  -5   8 -10   72.81   33.52
  -5   8 -10   43.14   28.98
   5  -7  -7    1.62   17.31
  -5   7   7   17.36   16.49
   5  -7  -6  215.22   43.30
  -5   7   6  188.89   37.90
   5  -7  -5  915.75   84.20
  -5   7   5  689.41   70.33
   5  -7  -4 1149.58   92.09
   5  -7  -4 1096.31  103.65
  -5   7   4 1029.55  109.40
  -5   7   4 1269.59   90.76
   5  -7  -3 1638.73  124.61
   5  -7  -3 1466.49  101.85
  -5   7   3 1468.80   97.09
  -5   7   3 1767.93  139.60
   5  -7  -2 2545.43  159.59
   5  -7  -1 1671.05  122.62
   5  -7  -1 1765.82  117.37
   5  -7   0  518.73   64.37
   5  -7   0  629.64   65.65
   5  -7   1   51.50   20.71
   5  -7   1   85.41   25.16
   5  -7   2  750.27   76.51
   5  -7   2  784.37   73.16
   5  -7   3  680.92   72.75
   5  -7   3  906.25   78.43
   5  -7   4 1143.54   95.33
   5  -7   4 1136.01   88.36
  -5   7  -4 1134.97   89.38
   5  -7   5  574.78   66.77
  -5   7  -5  714.25   61.03
   5  -7   5  614.11   62.39
  -5   7  -5  601.94   67.04
   5  -7   6  998.93   88.73
  -5   7  -6  993.25   79.64
  -5   7  -6  819.65   83.46
  -5   7  -7  261.49   48.55
   5  -7   7  278.42   46.42
  -5   7  -8   51.20   25.09
  -5   7  -9  138.71   40.18
  -5   7  -9  149.33   42.43
  -5   7 -10 1284.52  131.05
  -5   7 -10 1211.00  124.21
   5  -6  -8   61.15   25.97
   5  -6  -8  165.08   53.35
  -5   6   8  159.79   38.96
   5  -6  -7  909.68   90.17
   5  -6  -7  840.28  116.18
  -5   6   7  712.07   76.50
   5  -6  -6 1951.37  180.65
   5  -6  -6 2064.81  136.36
  -5   6   6 2136.00  132.49
   5  -6  -5 2219.72  188.38
   5  -6  -5 2410.38  140.42
  -5   6   5 2293.50  164.26
  -5   6   5 2421.14  136.40
   5  -6  -4 1621.71  152.02
   5  -6  -4 1802.91  112.31
   5  -6  -4 1957.48  135.85
  -5   6   4 1749.25  108.22
  -5   6   4 1908.07  147.17
   5  -6  -3  811.47   67.25
   5  -6  -3  695.36   76.61
   5  -6  -3  964.64   79.68
  -5   6   3  808.55   90.12
  -5   6   2   51.35   26.16
   5  -6  -2   38.60   14.96
   5  -6  -2    4.27   13.08
   5  -6  -2   58.95   20.88
   5  -6  -1  254.95   42.92
   5  -6  -1  191.48   34.60
   5  -6   0  310.32   46.69
   5  -6   0  332.94   44.48
   5  -6   1  726.87   72.38
   5  -6   1  768.08   68.65
   5  -6   2 1435.73  104.81
  -5   6  -2 1463.29   95.23
  -5   6  -2 1516.26   74.49
   5  -6   2 1470.99   98.69
   5  -6   3 1537.44  110.04
  -5   6  -3 1688.42   86.33
   5  -6   3 1830.31  110.69
  -5   6  -3 1612.15  105.80
   5  -6   4  902.15   81.18
  -5   6  -4  929.44   65.00
   5  -6   4  969.46   78.10
  -5   6  -4  937.50   81.13
  -5   6  -5   27.68   16.37
   5  -6   5   10.25   11.94
  -5   6  -5    7.31    7.41
   5  -6   5   -0.94    7.09
  -5   6  -6  199.89   40.09
   5  -6   6  216.91   39.53
   5  -6   6  229.10   35.81
   5  -6   6  184.23   34.57
   5  -6   7  640.31   68.79
  -5   6  -7  609.97   74.84
  -5   6  -8  848.89   93.95
   5  -6   8  805.23   81.99
  -5   6  -8  660.31   83.06
  -5   6  -9 1466.90  132.92
  -5   6  -9 1213.71  119.49
  -5   6 -10 1259.45  130.04
  -5   6 -10 1682.10  145.08
   5  -5  -9  698.72   86.53
  -5   5   9  822.05   87.08
   5  -5  -9  809.74  113.65
   5  -5  -8 2193.79  191.47
   5  -5  -8 2017.03  143.88
  -5   5   8 1893.99  132.95
   5  -5  -7 1577.73  158.94
   5  -5  -7 1594.81  118.57
  -5   5   7 1576.61  112.58
  -5   5   6  731.92   70.45
   5  -5  -6  852.37  110.26
   5  -5  -6  859.29   78.59
   5  -5  -5  544.11   57.44
   5  -5  -5  486.60   81.33
  -5   5   5  595.88   76.36
  -5   5   5  584.93   58.45
   5  -5  -4   78.88   21.64
  -5   5   4  100.93   31.83
   5  -5  -4   57.70   17.55
   5  -5  -4  106.01   38.27
  -5   5   3  150.96   38.19
   5  -5  -3  103.15   38.03
   5  -5  -3  150.17   25.55
   5  -5  -3  148.26   34.28
   5  -5  -3  103.80   25.18
   5  -5  -2 2190.40  159.15
   5  -5  -2 2431.32  113.18
   5  -5  -2 2329.22  142.22
  -5   5   2 2299.04  152.46
   5  -5  -2 2445.32  129.74
   5  -5  -1 2167.46  120.47
   5  -5  -1 2164.71  133.34
  -5   5   1 2100.90  140.18
   5  -5   0 1513.56  106.49
   5  -5   0 1446.53   95.65
  -5   5   0 1601.97   65.42
  -5   5   0 1544.17   80.62
   5  -5   1  899.68   79.66
  -5   5  -1  970.90   48.92
   5  -5   1  889.73   71.71
  -5   5  -1  946.11   69.82
  -5   5  -2  141.80   27.35
  -5   5  -2  142.66   18.67
   5  -5   2  157.13   32.69
   5  -5   2  126.60   27.57
  -5   5  -3  323.91   45.15
  -5   5  -3  271.76   29.84
   5  -5   3  213.91   37.80
   5  -5   3  326.26   42.02
  -5   5  -4  301.93   45.24
   5  -5   4  321.17   46.60
   5  -5   4  351.76   43.56
   5  -5   5 1749.32  104.46
   5  -5   5 1526.66  106.93
   5  -5   5 1412.26  101.25
  -5   5  -5 1521.61  112.87
  -5   5  -6 2513.60  146.46
   5  -5   6 2629.27  151.45
   5  -5   6 2526.62  134.32
  -5   5  -6 2378.94  154.64
  -5   5  -7 2102.58  132.53
  -5   5  -7 2349.94  153.24
   5  -5   7 1989.68  137.12
  -5   5  -7 2057.69  147.27
  -5   5  -8  699.30   85.95
   5  -5   8  828.33   87.81
  -5   5  -8  717.79   86.35
  -5   5  -9  285.62   56.92
  -5   5  -9  247.00   54.78
   5  -5   9  268.00   53.49
  -5   5 -10    5.93   15.11
  -5   5 -10   15.29   20.49
   5  -5  10   11.15   15.93
  -5   5 -11    9.69   18.44
  -5   5 -11    0.34   17.11
   5  -5  11    5.53   17.85
   5  -4 -10  715.21   90.58
  -5   4  10  957.06   96.74
   5  -4 -10  989.59  125.25
   5  -4  -9 1788.96  138.05
  -5   4   9 1677.09  125.50
   5  -4  -9 1589.65  160.88
   5  -4  -8 1341.03  110.95
  -5   4   8 1373.03  106.04
   5  -4  -8 1289.77  142.83
   5  -4  -7    6.55   10.06
   5  -4  -7    8.35   19.09
  -5   4   7    7.14   13.87
   5  -4  -6  451.29   52.30
  -5   4   6  311.86   50.48
  -5   4   6  416.13   49.46
   5  -4  -6  375.33   71.62
   5  -4  -5 1264.92   84.74
  -5   4   5 1033.20   99.37
   5  -4  -5 1186.23   83.70
   5  -4  -5 1137.21  120.90
   5  -4  -4 1673.11   93.88
  -5   4   4 1720.67  130.94
   5  -4  -4 1603.80   99.23
   5  -4  -4 1443.81  132.74
   5  -4  -3 1758.13   89.08
  -5   4   3 1692.95  129.07
   5  -4  -3 1643.53   99.45
   5  -4  -3 1505.96  128.43
   5  -4  -2 1733.75  136.49
   5  -4  -2 2137.99   96.06
   5  -4  -2 2095.68  131.66
  -5   4   2 2195.90   82.24
   5  -4  -2 2248.74  118.33
  -5   4   2 2147.18  143.92
   5  -4  -1 1272.15  105.91
   5  -4  -1 1472.85  104.38
  -5   4   1 1510.11   56.13
  -5   4   1 1401.24  109.59
   5  -4  -1 1300.54   88.00
  -5   4   1 1587.99   68.04
   5  -4   0  428.71   53.85
  -5   4   0  513.78   25.90
   5  -4   0  457.20   48.23
  -5   4   0  406.60   40.78
  -5   4   0  510.19   61.10
  -5   4  -1  336.12   48.20
  -5   4  -1  349.62   24.40
   5  -4   1  322.36   45.33
   5  -4   1  326.68   40.67
  -5   4  -1  270.82   37.79
   5  -4   2 1404.19   98.49
  -5   4  -2 1472.74  104.62
   5  -4   2 1333.15   89.27
  -5   4  -2 1361.70   94.73
  -5   4  -3 1622.87  110.54
   5  -4   3 1594.92  100.07
  -5   4  -3 1700.47  111.54
   5  -4   4 2517.40  130.90
   5  -4   4 2222.69  130.44
  -5   4  -4 2346.97  141.71
  -5   4  -4 2345.58  137.74
   5  -4   5 1207.46   86.11
  -5   4  -5 1141.07   90.43
   5  -4   5 1243.86   96.49
  -5   4  -5 1046.69   93.09
  -5   4  -6 1066.51   93.40
  -5   4  -6 1082.33   87.32
   5  -4   6  984.62   77.02
   5  -4   6  903.15   87.58
  -5   4  -6  795.80   85.49
  -5   4  -7  378.44   59.06
  -5   4  -7  320.13   55.17
  -5   4  -7  424.39   52.51
   5  -4   7  322.14   55.34
  -5   4  -8    3.87   15.81
  -5   4  -8  -27.62   20.61
   5  -4   8  -46.52   24.20
  -5   4  -9  297.39   59.91
  -5   4  -9  262.99   55.55
   5  -4   9  338.95   62.10
  -5   4 -10  988.67  113.48
   5  -4  10 1237.33  123.20
  -5   4 -10 1200.29  123.80
  -5   4 -11  876.20  110.13
   5  -4  11 1221.16  125.92
  -5   4 -11  822.87  105.95
   5  -3 -10   31.14   25.18
   5  -3 -10  -13.20   16.41
  -5   3  10   -6.25   13.99
   5  -3  -9  -37.81   27.10
   5  -3  -9  -52.08   23.45
  -5   3   9  -10.26   17.57
   5  -3  -8  547.59   89.07
   5  -3  -8  581.60   68.90
  -5   3   8  587.19   64.93
   5  -3  -7 1557.68  108.44
  -5   3   7 1453.14  100.70
   5  -3  -7 1362.50  138.95
   5  -3  -6 2121.83  120.76
   5  -3  -6 2185.19  171.42
   5  -3  -6 2146.52  113.83
  -5   3   6 1860.03  127.66
   5  -3  -5 4054.06  166.51
   5  -3  -5 3898.84  165.87
   5  -3  -5 3151.99  211.99
  -5   3   5 3152.31  187.80
   5  -3  -4 1110.18   67.48
   5  -3  -4 1019.21   72.39
   5  -3  -4 1055.38  106.63
  -5   3   4 1078.53   98.89
   5  -3  -3  563.08   40.58
  -5   3   3  506.09   66.93
   5  -3  -3  536.31   71.17
   5  -3  -3  607.49   52.86
  -5   3   2   23.75    6.46
  -5   3   2   23.47   17.37
   5  -3  -2    3.97    3.72
   5  -3  -2   22.37   14.00
   5  -3  -2   17.79   11.43
  -5   3   2   13.32    3.41
   5  -3  -1  250.51   41.99
  -5   3   1  321.45   50.64
   5  -3  -1  229.65   33.09
  -5   3   1  286.45   28.09
   5  -3   0  650.53   64.45
  -5   3   0  682.68   55.90
   5  -3   0  737.57   60.43
  -5   3   0  722.84   73.45
   5  -3   1 3217.79  151.14
  -5   3  -1 3227.91  170.95
  -5   3  -1 3098.87  154.45
   5  -3   2 2437.13  129.27
  -5   3  -2 2564.35  145.62
  -5   3  -2 2361.53  136.28
  -5   3  -3 2708.34  157.13
   5  -3   3 3289.50  153.93
  -5   3  -3 2863.17  157.73
   5  -3   3 2969.21  151.86
  -5   3  -4  753.30   67.16
  -5   3  -4  882.32   76.11
  -5   3  -4  561.16   66.34
   5  -3   4  658.55   61.84
   5  -3   4  770.80   73.74
  -5   3  -5   18.80   19.65
   5  -3   5   40.14   20.58
  -5   3  -5   25.93   13.88
  -5   3  -5   27.55   11.92
   5  -3   5   45.76   15.93
  -5   3  -6  656.95   72.84
   5  -3   6  484.93   65.57
   5  -3   6  568.36   55.79
  -5   3  -6  599.82   60.62
  -5   3  -6  454.49   63.73
  -5   3  -7 1144.63  105.57
   5  -3   7 1354.67  117.07
  -5   3  -7 1024.15  102.71
  -5   3  -8  934.37   99.25
   5  -3   8 1088.76  109.29
  -5   3  -8  992.90  104.82
  -5   3  -9 1611.36  140.78
   5  -3   9 1847.09  150.80
  -5   3  -9 1655.36  143.74
  -5   3 -10 1493.73  141.38
   5  -3  10 1853.15  156.14
  -5   3 -10 1645.77  148.40
   5  -2 -11  219.03   51.36
  -5   2  11  238.65   47.28
   5  -2 -11  290.98   65.97
   5  -2 -10 1401.40  124.33
  -5   2  10 1365.15  110.76
   5  -2 -10 1339.82  143.54
   5  -2  -9 1881.48  136.92
  -5   2   9 1759.32  121.66
   5  -2  -9 1727.64  163.26
   5  -2  -8 1975.79  133.90
  -5   2   8 2141.48  128.57
   5  -2  -8 2241.81  180.48
   5  -2  -7 1305.74   95.57
  -5   2   7 1234.30   88.86
   5  -2  -7 1165.94  123.82
   5  -2  -7 1307.51   80.75
  -5   2   7 1183.01   88.98
   5  -2  -6 1002.60   74.06
   5  -2  -6  810.99   97.17
   5  -2  -6  877.42   63.78
  -5   2   6  817.22   76.49
   5  -2  -5  522.37   46.34
   5  -2  -5  593.86   77.55
   5  -2  -5  470.76   45.37
   5  -2  -5  539.99   35.15
  -5   2   5  385.09   54.09
   5  -2  -4   43.46   11.04
  -5   2   4   21.12   14.81
   5  -2  -4   10.45    8.29
   5  -2  -4    9.73   16.48
   5  -2  -3  705.21   40.00
  -5   2   3  604.91   71.18
   5  -2  -3  655.02   74.22
   5  -2  -3  577.86   51.05
   5  -2  -2 3555.02  154.96
   5  -2  -2 3270.27  179.66
  -5   2   2 3346.95  186.86
  -5   2   2 3570.11  131.12
   5  -2  -1 3915.68  171.65
  -5   2   1 3993.79  203.59
   5  -2  -1 4163.99  193.70
  -5   2   1 4002.24  158.11
   5  -2   0 2434.88  125.06
  -5   2   0 2423.66  123.92
  -5   2   0 2333.44  142.27
   5  -2   0 2489.48  129.22
   5  -2   1  583.33   55.34
  -5   2  -1  549.78   62.71
  -5   2  -1  614.35   60.84
  -5   2  -2   35.84   17.34
  -5   2  -2    9.88    7.24
  -5   2  -2    0.27    8.45
   5  -2   2   22.21   14.93
   5  -2   2   11.80   12.62
  -5   2  -3   -5.38    9.01
  -5   2  -3   21.87   11.70
  -5   2  -3    9.03    9.93
   5  -2   3    2.23   11.62
  -5   2  -4  794.12   71.18
   5  -2   4  651.17   70.90
  -5   2  -4  839.75   72.31
  -5   2  -4  680.64   74.61
  -5   2  -5 2992.24  169.32
   5  -2   5 3668.90  193.60
  -5   2  -5 3214.68  159.46
  -5   2  -5 3230.16  185.11
  -5   2  -6 3394.67  190.47
  -5   2  -6 3493.60  163.01
  -5   2  -6 3195.34  193.42
   5  -2   6 3618.27  203.18
  -5   2  -7 1955.97  144.15
   5  -2   7 2115.01  154.72
  -5   2  -7 1996.51  150.02
  -5   2  -8  745.30   89.35
   5  -2   8  890.58  100.44
  -5   2  -8  840.60   96.76
  -5   2  -9  245.33   54.39
  -5   2  -9  343.95   62.09
   5  -2   9  253.79   55.91
  -5   2 -10   27.28   19.69
  -5   2 -10   -8.37   24.06
   5  -2  10   35.07   24.78
   5  -1 -11 1675.97  143.47
   5  -1 -11 1433.25  150.27
  -5   1  11 1722.79  128.14
   5  -1 -10 1304.55  119.46
   5  -1 -10 1381.60  143.98
  -5   1  10 1418.73  109.39
   5  -1  -9 1523.62  121.64
   5  -1  -9 1710.28  157.34
  -5   1   9 1609.27  111.57
   5  -1  -8  726.31   75.37
   5  -1  -8  698.55   94.66
  -5   1   8  642.72   65.03
   5  -1  -8  839.10   58.57
   5  -1  -7   10.45   15.14
   5  -1  -7   85.86   22.96
  -5   1   7   61.32   19.03
   5  -1  -7   74.88   16.79
   5  -1  -7   68.38   15.65
   5  -1  -6  516.10   50.97
   5  -1  -6  377.06   63.05
   5  -1  -6  553.22   47.04
   5  -1  -6  512.82   39.36
  -5   1   6  533.53   58.02
   5  -1  -5 2284.18  106.65
   5  -1  -5 1963.51  144.71
   5  -1  -5 2108.52  105.49
  -5   1   5 2108.52  130.59
   5  -1  -4 1654.63   76.47
   5  -1  -4 1549.54  118.44
  -5   1   4 1584.60  114.60
   5  -1  -4 1666.07   90.83
   5  -1  -3 1483.94   58.91
   5  -1  -3 1400.86  105.85
   5  -1  -3 1452.68   85.80
  -5   1   3 1524.27  113.77
  -5   1   3 1475.38   69.64
   5  -1  -2 1847.66  116.75
   5  -1  -2 1810.62  102.04
  -5   1   2 2026.24  134.05
  -5   1   2 1946.58   89.21
   5  -1  -1  916.20   73.55
  -5   1   1 1066.67   91.49
  -5   1   1  887.24   61.94
   5  -1  -1  955.82   70.64
  -5   1   0    1.23    8.31
   5  -1   0   10.68    8.87
  -5   1   0   20.80    5.92
  -5   1   0    6.96   10.86
   5  -1   0   21.44    4.62
   5  -1   1 2107.54  102.03
  -5   1  -1 2301.83  102.21
  -5   1  -1 2410.51  139.02
   5  -1   1 2288.49  123.60
  -5   1  -1 2138.84  128.31
  -5   1  -2 2836.88  127.71
   5  -1   2 2443.82  137.64
  -5   1  -2 2466.31  139.63
  -5   1  -2 2254.31  142.05
  -5   1  -3 3335.30  160.27
   5  -1   3 3224.50  172.90
  -5   1  -3 3355.27  163.70
  -5   1  -3 3137.97  175.75
  -5   1  -4 3045.15  163.58
   5  -1   4 3438.24  185.07
  -5   1  -4 3213.39  155.83
  -5   1  -4 3087.30  178.37
  -5   1  -5 1538.34  114.41
   5  -1   5 1648.74  126.96
  -5   1  -5 1740.33  100.39
  -5   1  -5 1476.24  120.10
  -5   1  -6  926.08   90.98
   5  -1   6  966.29   98.27
  -5   1  -6  811.57   89.55
  -5   1  -7  255.12   52.50
  -5   1  -7  316.00   55.27
   5  -1   7  378.67   63.13
  -5   1  -8   -6.43   18.51
  -5   1  -8   -1.91   16.36
   5  -1   8    3.90   17.69
  -5   1  -9  539.89   79.54
   5  -1   9  557.58   85.53
  -5   1  -9  649.11   88.23
  -5   1 -10  958.35  109.65
   5  -1  10  852.72  108.34
  -5   1 -10  890.68  106.58
   5   0 -12  909.12  108.11
   5   0 -12  911.31  117.92
  -5   0  12  804.33   88.91
   5   0 -11  265.34   63.20
   5   0 -11  176.32   46.31
  -5   0  11  226.60   43.96
   5   0 -10   30.58   27.08
   5   0 -10    4.56   14.99
  -5   0  10   12.36   13.03
   5   0  -9   48.90   28.00
   5   0  -9   46.96   22.46
  -5   0   9   47.55   19.68
   5   0  -9   62.55   17.71
   5   0  -8  452.15   74.20
   5   0  -8  533.63   64.59
  -5   0   8  484.73   52.97
   5   0  -8  455.26   44.58
  -5   0   8  552.94   52.92
   5   0  -7 1167.72   91.31
   5   0  -7 1607.03  133.92
   5   0  -7 1414.88   76.28
   5   0  -7 1250.28   74.87
  -5   0   7 1239.84   88.21
   5   0  -6 1986.06  111.80
   5   0  -6 2090.01  149.84
   5   0  -6 2076.92  100.34
  -5   0   6 1937.42  118.51
   5   0  -5 2821.50  124.81
   5   0  -5 2690.82  166.41
   5   0  -5 2859.21  126.13
  -5   0   5 2501.99  145.52
   5   0  -4  699.52   43.17
   5   0  -4  736.39   74.84
   5   0  -4  678.67   54.76
  -5   0   4  631.27   66.43
  -5   0   3    2.30    4.36
   5   0  -3   12.62    3.26
  -5   0   3    5.83   14.76
   5   0  -3   35.10    9.17
   5   0  -3    6.65    7.47
   5   0  -3   10.30   10.59
   5   0  -2  159.97   30.08
  -5   0   2  168.79   24.00
  -5   0   2  157.93   34.23
   5   0  -2  162.63   14.56
   5   0  -1 1722.95   98.91
   5   0  -1 1701.10   64.79
  -5   0   1 1717.31  118.27
  -5   0   1 1739.42   95.69
  -5   0   0 2200.87   83.23
   5   0   0 2417.00  111.25
  -5   0   0 2441.57  141.89
  -5   0   0 2320.20  125.80
  -5   0  -1 3523.98  137.46
   5   0   1 2954.03  155.03
  -5   0  -1 3239.46  166.23
   5   0   1 3193.34  127.22
  -5   0  -1 3059.84  165.24
  -5   0  -2 4597.83  193.96
   5   0   2 4175.85  206.95
  -5   0  -2 4620.31  203.37
  -5   0  -2 4623.66  220.66
  -5   0  -3 2433.63  135.21
   5   0   3 2428.87  147.92
  -5   0  -3 2126.75  121.16
  -5   0  -3 2208.53  146.06
  -5   0  -4  242.34   47.06
  -5   0  -4  201.57   38.88
  -5   0  -4  235.45   33.16
   5   0   4  178.28   40.21
  -5   0  -5  258.74   48.80
  -5   0  -5  292.88   48.68
   5   0   5  221.58   46.87
  -5   0  -5  267.30   33.16
  -5   0  -6  381.48   61.09
  -5   0  -6  409.21   60.23
   5   0   6  410.31   65.21
  -5   0  -7  907.52   96.63
   5   0   7  905.60  102.69
  -5   0  -7  861.85   96.22
  -5   0  -8 1380.30  124.33
   5   0   8 1331.13  130.36
  -5   0  -8 1322.68  125.13
  -5   0  -9 1073.91  112.81
  -5   0  -9 1159.64  119.79
   5   0   9 1046.98  121.07
  -5   0 -10 1360.30  131.17
   5   0  10 1463.15  146.70
  -5   0 -10 1165.85  124.64
   5   1 -12  -21.27   23.95
   5   1 -12  -29.08   23.02
  -5  -1  12    9.01   15.67
   5   1 -11  234.22   59.02
   5   1 -11  279.90   56.70
  -5  -1  11  220.49   42.46
   5   1 -10 1345.52  122.02
   5   1 -10 1135.21  128.24
  -5  -1  10 1199.82   94.79
   5   1 -10 1201.49   88.86
   5   1  -9 1947.99  143.20
   5   1  -9 1900.07  162.21
  -5  -1   9 1916.47  117.85
   5   1  -9 2052.88  114.14
  -5  -1   8 1752.31  101.61
   5   1  -8 1525.82  115.97
   5   1  -8 1590.61  139.14
  -5  -1   8 1444.54   95.80
   5   1  -8 1611.95   93.92
   5   1  -7  526.87   73.23
   5   1  -7  479.14   56.57
   5   1  -7  504.27   41.37
   5   1  -7  486.71   44.40
  -5  -1   7  556.48   55.41
   5   1  -6  443.82   62.80
   5   1  -6  421.97   47.74
   5   1  -6  412.83   38.77
  -5  -1   6  458.05   50.80
   5   1  -5  142.89   23.33
  -5  -1   5  133.40   27.57
   5   1  -5  110.17   21.44
   5   1  -5   69.10   25.95
   5   1  -5  138.54   23.15
   5   1  -4  146.01   19.60
  -5  -1   4  153.45   30.06
   5   1  -4  144.64   20.52
   5   1  -4  138.28   30.56
   5   1  -3 2134.25  120.95
   5   1  -3 2071.10   77.77
   5   1  -3 1992.11   85.85
  -5  -1   3 1877.71  119.16
  -5  -1   3 2040.28   97.59
   5   1  -2 5109.41  210.35
   5   1  -2 5081.62  173.91
  -5  -1   2 4955.41  224.70
  -5  -1   2 5502.12  201.15
   5   1  -1 3652.81  158.01
   5   1  -1 3963.01  139.70
  -5  -1   1 3658.73  180.68
  -5  -1   1 3632.15  163.95
  -5  -1   0 1185.30   57.84
   5   1   0 1137.27   66.40
   5   1   0 1142.04   83.01
  -5  -1   0 1197.67   88.38
  -5  -1   0 1145.44   85.03
  -5  -1  -1  248.41   41.80
  -5  -1  -1  273.20   31.93
   5   1   1  356.85   27.37
  -5  -1  -1  287.77   40.37
   5   1   1  263.33   40.53
  -5  -1  -2   11.89   10.22
  -5  -1  -2   22.43   12.82
  -5  -1  -2   10.98   11.98
   5   1   2    6.75    9.80
  -5  -1  -3  387.51   59.22
  -5  -1  -3  431.23   53.49
   5   1   3  486.47   63.00
  -5  -1  -3  369.67   42.40
  -5  -1  -4  859.96   82.34
   5   1   4  743.57   82.92
  -5  -1  -4  844.17   88.76
  -5  -1  -4  851.45   62.90
  -5  -1  -5 1923.70  136.40
   5   1   5 2045.08  148.04
  -5  -1  -5 1859.36  141.28
  -5  -1  -6 2565.05  168.22
  -5  -1  -6 2681.63  177.93
   5   1   6 2646.98  178.62
  -5  -1  -7 2007.67  149.38
   5   1   7 1819.11  150.95
  -5  -1  -7 1772.83  145.45
  -5  -1  -8  720.47   90.24
   5   1   8  695.49   94.79
  -5  -1  -8  808.83   96.67
  -5  -1  -9  134.88   40.88
  -5  -1  -9  160.33   43.72
   5   1   9   89.92   39.81
   5   2 -12  571.49   87.05
  -5  -2  12  710.16   78.01
   5   2 -12  684.22   74.19
   5   2 -12  751.91  108.07
   5   2 -11 1069.72  114.77
   5   2 -11  932.72  118.31
  -5  -2  11  943.94   85.98
   5   2 -11  957.85   84.09
   5   2 -10 1507.67  147.84
   5   2 -10 1796.85  144.79
  -5  -2  10 1518.24  106.67
   5   2 -10 1719.32  109.79
   5   2  -9 1009.10   77.44
   5   2  -9  907.66  107.03
  -5  -2   9 1204.77   81.18
   5   2  -9 1032.22  100.91
  -5  -2   9  991.91   78.93
   5   2  -8  138.76   33.91
   5   2  -8   95.55   31.05
  -5  -2   8  216.05   33.56
   5   2  -8  167.86   28.63
   5   2  -7  247.12   41.73
   5   2  -7  298.40   53.29
   5   2  -7  215.05   36.85
   5   2  -7  352.94   33.64
  -5  -2   7  252.06   36.65
  -5  -2   6  990.42   77.26
   5   2  -6  905.41   89.42
   5   2  -6  978.69   77.45
   5   2  -6  879.79   69.55
   5   2  -6 1047.10   66.03
   5   2  -5 1409.31   83.36
   5   2  -5 1313.67   77.98
  -5  -2   5 1274.61   90.27
   5   2  -5 1023.62   91.96
   5   2  -4 2470.23  110.23
  -5  -2   4 2462.50  134.72
   5   2  -4 2517.50  141.31
   5   2  -3 1737.85   83.72
  -5  -2   3 1891.98  113.40
  -5  -2   3 1813.68   94.41
   5   2  -3 1788.53  108.25
   5   2  -2 1099.14   63.25
  -5  -2   2 1304.03   79.26
  -5  -2   2 1212.43   87.85
   5   2  -2 1249.13   79.91
  -5  -2   1  198.94   31.66
  -5  -2   1  159.61   18.30
   5   2  -1  142.09   22.78
   5   2  -1  161.72   22.97
  -5  -2   1  226.68   35.31
   5   2   0  169.70   21.74
  -5  -2   0  162.37   31.21
  -5  -2   0  193.29   24.16
   5   2   0  120.44   21.98
  -5  -2   0  185.85   31.72
   5   2   0  203.91   33.92
   5   2   1 1313.92   59.67
  -5  -2  -1 1312.96   80.60
   5   2   1 1316.69   96.99
  -5  -2  -1 1146.50   94.29
  -5  -2  -1 1153.67   83.41
  -5  -2  -2 3203.52  158.04
   5   2   2 3366.90  179.00
  -5  -2  -2 3096.85  178.37
  -5  -2  -2 3028.04  147.89
  -5  -2  -3 2218.59  136.13
   5   2   3 2185.98  145.45
  -5  -2  -3 2220.40  150.03
  -5  -2  -3 2172.29  114.17
  -5  -2  -4 2354.53  116.67
  -5  -2  -4 2605.35  158.36
   5   2   4 2330.10  158.29
  -5  -2  -4 2499.61  165.43
  -5  -2  -5 1916.83  139.27
   5   2   5 1448.40  128.57
  -5  -2  -5 1911.61  144.12
  -5  -2  -6 1084.91  105.69
   5   2   6  939.46  104.07
  -5  -2  -6  965.35  103.06
  -5  -2  -7  342.37   61.68
  -5  -2  -7  243.18   51.69
   5   2   7  285.72   59.82
  -5  -2  -8   56.04   28.56
  -5  -2  -8   54.05   28.44
   5   2   8  104.93   39.24
  -5  -2  -9  396.08   68.87
  -5  -2  -9  395.44   70.21
   5   2   9  288.91   66.35
   5   3 -13 1057.31  127.21
   5   3 -13 1332.60  148.15
  -5  -3  13 1338.87  112.97
   5   3 -13 1038.80  100.56
   5   3 -12  550.66   85.57
   5   3 -12  355.95   74.50
  -5  -3  12  439.85   59.14
   5   3 -12  516.57   64.32
   5   3 -11  137.99   38.90
   5   3 -11  102.18   40.50
  -5  -3  11  104.86   26.71
   5   3 -11  140.68   31.78
   5   3 -10   20.75   18.88
   5   3 -10   19.59   25.01
  -5  -3  10    4.60   13.40
   5   3 -10   17.68   13.93
   5   3  -9   56.49   26.59
   5   3  -9   69.99   33.09
  -5  -3   9   87.98   22.21
  -5  -3   9  105.19   24.35
   5   3  -9   97.99   24.80
  -5  -3   8  519.78   54.06
   5   3  -8  581.33   69.17
   5   3  -8  525.11   74.95
   5   3  -8  556.04   63.06
   5   3  -8  491.30   51.71
  -5  -3   8  476.25   47.89
  -5  -3   7 1502.60   99.12
   5   3  -7 1610.71  112.47
   5   3  -7 1527.47   83.10
   5   3  -7 1443.06  100.11
  -5  -3   7 1539.81   93.80
   5   3  -7 1438.46  122.14
  -5  -3   6 2335.04  129.75
   5   3  -6 2303.89  122.17
   5   3  -6 2365.15  152.06
  -5  -3   5 2053.96  121.47
   5   3  -5 2165.17  109.71
   5   3  -5 2117.43  135.30
  -5  -3   4  539.99   56.10
   5   3  -4  443.40   41.59
  -5  -3   3  147.70   25.31
   5   3  -3  179.77   25.53
  -5  -3   3  120.15   27.88
  -5  -3   2  685.38   62.98
   5   3  -2  649.55   51.70
  -5  -3   2  634.35   56.04
  -5  -3   1 1805.68  109.56
  -5  -3   1 1894.67   90.06
   5   3  -1 1781.73   99.13
   5   3  -1 1994.83  112.81
  -5  -3   1 1707.93  106.26
  -5  -3   0 2034.16  117.71
  -5  -3   0 2306.10  109.94
   5   3   0 2022.78  115.59
   5   3   0 2093.77  124.77
  -5  -3   0 2171.72  128.41
  -5  -3  -1 2804.03  141.45
  -5  -3  -1 2709.10  138.00
   5   3   1 2909.03  159.40
  -5  -3  -1 2757.55  159.03
   5   3   1 2845.57  107.95
  -5  -3  -2 4092.68  177.96
  -5  -3  -2 3878.65  190.02
   5   3   2 4345.05  213.92
  -5  -3  -2 3842.21  207.46
  -5  -3  -3 2181.09  115.52
  -5  -3  -3 2284.88  144.03
   5   3   3 2360.41  153.82
  -5  -3  -3 2417.18  158.78
  -5  -3  -3 2228.47  124.00
  -5  -3  -4  346.80   59.15
  -5  -3  -4  242.00   48.19
   5   3   4  245.83   48.38
  -5  -3  -4  312.49   39.94
  -5  -3  -5  156.66   41.66
  -5  -3  -5  183.54   43.45
   5   3   5  141.94   42.16
  -5  -3  -6  466.56   71.99
  -5  -3  -6  465.02   70.14
   5   3   6  283.91   59.30
  -5  -3  -7  588.58   82.07
  -5  -3  -7  489.67   75.99
   5   3   7  455.38   76.46
  -5  -3  -8  750.59   96.75
   5   3   8  691.47   98.91
  -5  -3  -8  852.46  100.92
   5   4 -13  110.95   41.26
   5   4 -13  174.63   54.94
   5   4 -13  119.95   34.96
   5   4 -12    6.44   16.87
   5   4 -12   37.90   27.36
  -5  -4  12    9.88   12.13
   5   4 -12   15.39   12.18
   5   4 -11  114.82   39.58
   5   4 -11  220.45   56.73
  -5  -4  11  179.77   34.78
   5   4 -11  126.37   31.48
   5   4 -10 1446.06  131.80
  -5  -4  10 1398.88   96.35
   5   4 -10 1333.24  100.28
   5   4 -10 1556.85  146.92
   5   4  -9 2245.37  155.18
  -5  -4   9 1946.31  115.50
  -5  -4   9 1888.58  107.53
   5   4  -9 1722.87  127.87
   5   4  -9 1721.29  112.20
   5   4  -9 1537.92  142.63
  -5  -4   8 1145.30   86.88
   5   4  -8 1281.71   98.43
   5   4  -8 1251.99  118.99
  -5  -4   8 1209.30   82.46
  -5  -4   7  786.25   70.67
   5   4  -7  786.56   70.50
  -5  -4   7  729.12   63.20
  -5  -4   6    7.76    9.46
  -5  -4   6   47.34   19.39
   5   4  -6   22.28   13.19
  -5  -4   5   48.89   18.30
   5   4  -5   76.18   19.28
  -5  -4   5   82.09   23.10
  -5  -4   4 1157.50   87.27
   5   4  -4 1127.95   76.26
  -5  -4   4 1223.82   87.16
  -5  -4   3 2329.57  130.37
   5   4  -3 2289.84  117.40
  -5  -4   3 2166.18  125.77
  -5  -4   3 2354.47  120.44
  -5  -4   2 4507.91  202.65
   5   4  -2 4501.90  191.18
  -5  -4   2 4622.19  204.60
  -5  -4   2 4533.76  195.03
  -5  -4   1 3646.93  173.48
  -5  -4   1 3826.15  158.15
   5   4  -1 3555.27  168.07
   5   4  -1 3744.45  173.30
  -5  -4   1 3410.66  171.52
  -5  -4   1 3422.65  169.27
  -5  -4   0  581.24   58.23
  -5  -4   0  762.43   62.46
   5   4   0  699.48   66.14
   5   4   0  594.25   62.51
  -5  -4   0  651.98   63.47
  -5  -4   0  634.90   65.67
  -5  -4  -1  613.19   58.89
  -5  -4  -1  725.48   66.93
   5   4   1  759.30   76.40
  -5  -4  -1  740.55   75.45
  -5  -4  -1  675.91   64.39
  -5  -4  -2   72.27   26.70
  -5  -4  -2   79.20   23.06
  -5  -4  -2   80.32   25.31
  -5  -4  -2   84.82   20.95
   5   4   2  114.46   33.76
  -5  -4  -3  156.07   38.36
  -5  -4  -3  179.62   31.99
  -5  -4  -3  180.61   38.72
  -5  -4  -3  130.90   24.42
   5   4   3  179.03   41.86
  -5  -4  -4 1127.20  106.05
   5   4   4 1047.04  103.88
  -5  -4  -4 1123.92  108.40
  -5  -4  -4  858.12   72.70
  -5  -4  -5 1936.34  150.11
   5   4   5 1592.02  139.98
  -5  -4  -5 1931.99  150.93
  -5  -4  -6 1874.48  151.25
   5   4   6 1333.87  132.59
  -5  -4  -6 1629.43  139.71
  -5  -4  -7  921.40  107.20
   5   4   7 1065.74  118.66
  -5  -4  -7  900.02  103.67
   5   5 -13  501.63   87.17
   5   5 -13  522.46   94.80
   5   5 -13  593.60   76.48
   5   5 -12  874.85  117.05
   5   5 -12  496.76   83.66
   5   5 -12  637.00   75.12
   5   5 -11  772.97  102.87
   5   5 -11  866.91   99.66
   5   5 -11 1016.34   91.31
   5   5 -11  903.91  117.63
   5   5 -10 1179.94  120.45
  -5  -5  10 1162.70   90.00
   5   5 -10 1150.22  108.32
   5   5 -10 1009.14   88.40
   5   5 -10 1104.45  125.32
  -5  -5   9  347.50   47.56
   5   5  -9  417.44   59.29
   5   5  -9  476.20   78.71
   5   5  -9  317.44   45.83
  -5  -5   9  360.69   43.97
  -5  -5   8   -4.38   10.85
   5   5  -8    7.37   11.68
  -5  -5   8    6.37    6.51
  -5  -5   8    9.63   11.03
  -5  -5   7  869.00   77.49
   5   5  -7 1026.08   83.44
  -5  -5   7  915.44   74.86
  -5  -5   6 2416.97  139.12
   5   5  -6 2379.42  133.81
  -5  -5   6 2553.07  137.24
  -5  -5   5 1652.37  109.62
   5   5  -5 1538.64  100.45
  -5  -5   5 1758.73  109.98
  -5  -5   4 1402.90   98.94
   5   5  -4 1438.77   93.62
  -5  -5   4 1298.58   95.12
  -5  -5   3 1720.22  112.12
   5   5  -3 1839.25  109.03
  -5  -5   3 1714.98  111.59
  -5  -5   3 1670.77  102.46
  -5  -5   2 1382.24   97.33
   5   5  -2 1365.98   94.59
  -5  -5   2 1366.67   98.14
  -5  -5   2 1381.31   93.42
  -5  -5   1  151.15   29.87
  -5  -5   1  133.07   29.59
  -5  -5   1  191.81   31.01
   5   5  -1   95.95   24.68
  -5  -5   1  118.86   26.90
   5   5  -1  121.12   27.72
  -5  -5   0  102.67   26.29
  -5  -5   0  181.38   34.32
  -5  -5   0  144.12   29.89
   5   5   0  129.75   31.96
  -5  -5   0  132.15   27.76
   5   5   0  218.86   37.52
  -5  -5  -1  934.02   76.20
  -5  -5  -1 1003.76   86.08
   5   5   1  900.03   88.24
   5   5   1 1077.28   93.76
  -5  -5  -1  948.27   88.20
  -5  -5  -1  981.04   81.50
  -5  -5  -2 2570.76  136.50
  -5  -5  -2 2869.63  165.52
   5   5   2 2943.96  172.21
  -5  -5  -2 2434.24  159.61
  -5  -5  -2 2292.13  137.86
  -5  -5  -3 2292.25  155.79
   5   5   3 2471.29  162.95
  -5  -5  -3 2110.50  152.28
  -5  -5  -3 2153.36  129.49
  -5  -5  -4 1535.93  132.20
   5   5   4 1681.05  138.21
  -5  -5  -4 1568.34  132.82
  -5  -5  -5  949.26  105.73
   5   5   5  819.08   98.70
  -5  -5  -5  856.94   98.26
  -5  -5  -6  380.44   66.82
  -5  -5  -6  383.11   68.82
   5   5   6  286.59   61.08
  -5  -5  -7  104.00   39.20
   5   5   7   47.94   29.31
   5   6 -12  148.36   51.78
   5   6 -12  280.34   68.94
   5   6 -12  228.27   45.81
   5   6 -11    7.87   15.78
   5   6 -11    6.42   15.86
   5   6 -11   10.74   19.81
   5   6 -11    2.26   12.61
   5   6 -10  110.56   34.31
   5   6 -10  174.59   37.07
  -5  -6   9  382.57   53.21
   5   6  -9  504.96   67.36
   5   6  -9  570.86   63.53
  -5  -6   9  498.96   54.95
  -5  -6   8  771.39   75.49
   5   6  -8  907.97   84.84
  -5  -6   8  798.16   71.71
  -5  -6   7 2149.46  133.87
   5   6  -7 2226.54  136.60
  -5  -6   7 2067.47  126.23
  -5  -6   6 1526.49  107.67
   5   6  -6 1332.18  100.14
  -5  -6   6 1536.76  104.52
  -5  -6   5 1162.56   92.29
   5   6  -5 1217.25   91.73
  -5  -6   5 1055.86   86.93
  -5  -6   4  215.19   38.95
   5   6  -4  304.57   43.71
  -5  -6   4  243.03   40.61
  -5  -6   3  192.71   33.14
  -5  -6   3  167.87   34.42
   5   6  -3  157.37   32.64
  -5  -6   3  145.77   31.43
  -5  -6   2  694.83   69.02
   5   6  -2  617.52   66.82
  -5  -6   2  803.11   70.49
  -5  -6   2  740.83   72.98
  -5  -6   1 1786.87  117.08
  -5  -6   1 1870.49  117.57
   5   6  -1 1743.22  122.34
   5   6  -1 1937.55  115.66
  -5  -6   1 1917.69  119.67
  -5  -6   1 1614.92  115.37
  -5  -6   0 1728.00  114.38
  -5  -6   0 1830.69  121.66
   5   6   0 1689.99  126.40
   5   6   0 1834.40  119.83
  -5  -6   0 1897.81  124.41
  -5  -6   0 1701.52  117.18
  -5  -6  -1 2813.22  151.85
  -5  -6  -1 2953.44  170.74
   5   6   1 2787.82  175.87
   5   6   1 3027.64  171.40
  -5  -6  -1 2773.01  164.69
  -5  -6  -1 2694.51  155.41
  -5  -6  -2 2013.64  144.52
   5   6   2 1849.60  146.64
   5   6   2 2371.57  154.00
  -5  -6  -2 1926.40  138.36
  -5  -6  -2 1907.39  125.29
  -5  -6  -3  742.19   88.73
   5   6   3  708.86   85.67
  -5  -6  -3  714.93   83.58
  -5  -6  -3  708.98   71.06
  -5  -6  -4   34.25   20.52
  -5  -6  -4    6.67   19.62
   5   6   4   88.48   34.43
  -5  -6  -5   98.97   32.71
  -5  -6  -5  186.81   48.56
   5   6   5  186.48   47.71
  -5  -6  -6  230.36   55.10
   5   6   6  157.53   46.97
   5   7 -12  102.00   42.54
   5   7 -12  122.53   44.61
   5   7 -12  137.88   41.96
   5   7 -12  197.59   44.62
   5   7 -11  698.55   89.09
   5   7 -11  672.37   78.46
   5   7 -10 1510.12  128.91
   5   7 -10 1450.48  113.72
  -5  -7   9 1207.05   92.52
   5   7  -9 1014.84  100.22
   5   7  -9 1162.93   97.34
  -5  -7   8  555.43   65.90
   5   7  -8  488.25   64.37
  -5  -7   8  504.21   59.03
  -5  -7   7  137.24   31.88
   5   7  -7  128.59   31.82
  -5  -7   7  125.16   31.22
  -5  -7   6   -6.09   11.61
   5   7  -6    1.40   10.97
  -5  -7   6   -3.02   14.33
  -5  -7   5  179.63   36.53
   5   7  -5  154.45   34.04
  -5  -7   5  187.80   38.25
  -5  -7   4 1181.55   97.85
  -5  -7   4 1261.12   99.74
   5   7  -4 1140.71   95.31
  -5  -7   3 2524.30  151.52
   5   7  -3 2670.01  155.17
  -5  -7   3 2502.80  150.76
  -5  -7   2 2987.32  165.18
   5   7  -2 2638.36  161.65
  -5  -7   2 2761.25  152.21
  -5  -7   2 2969.71  165.93
  -5  -7   1 1666.14  118.78
  -5  -7   1 1927.92  127.11
   5   7  -1 1740.92  129.39
  -5  -7   1 1803.25  119.62
  -5  -7   1 1721.20  122.27
  -5  -7   0  668.40   75.06
   5   7   0  721.56   82.29
  -5  -7   0  628.89   69.22
  -5  -7   0  656.44   71.74
  -5  -7  -1  182.46   39.44
  -5  -7  -1  216.48   40.92
  -5  -7  -1  141.68   36.90
   5   7   1  222.36   47.74
  -5  -7  -2    6.91   15.21
  -5  -7  -2   -2.84   16.62
  -5  -7  -2    6.16   13.69
   5   7   2   -7.06   14.46
  -5  -7  -3   58.63   25.98
  -5  -7  -3   72.76   29.88
   5   7   3   60.00   27.09
   5   7   3  167.30   41.25
  -5  -7  -4  406.09   71.84
   5   7   4  558.65   79.68
   5   7   5  863.56  105.22
  -5  -7  -5  850.71  108.25
   5   8 -11  444.80   74.48
   5   8 -11  593.67   74.43
  -5  -8  10  459.19   57.44
   5   8 -10  380.96   64.15
   5   8 -10  357.61   56.58
  -5  -8   9   15.88   15.32
   5   8  -9   -2.64   13.76
   5   8  -9   34.00   21.75
  -5  -8   8   70.94   24.87
   5   8  -8   65.55   24.63
  -5  -8   7  793.30   80.14
   5   8  -7  816.20   85.93
   5   8  -6 1499.55  118.01
  -5  -8   6 1460.37  113.05
   5   8  -5 1652.49  123.93
  -5  -8   5 1537.16  116.96
   5   8  -4 1213.15  105.84
  -5  -8   4 1349.22  108.09
   5   8  -3  971.00   93.81
  -5  -8   3  888.65   87.60
   5   8  -2  747.26   83.92
  -5  -8   2  795.46   82.87
  -5  -8   1  103.93   29.12
  -5  -8   1   83.08   27.39
   5   8  -1  112.22   33.45
  -5  -8   0   71.93   25.62
  -5  -8   0   53.96   23.47
  -5  -8   0   75.60   28.44
   5   8   0   23.31   19.02
  -5  -8  -1  813.74   84.33
  -5  -8  -1  766.09   90.84
   5   8   1  723.70   93.27
  -5  -8  -1  828.10   83.83
  -5  -8  -2 1097.42   98.47
  -5  -8  -2 1148.83  116.56
   5   8   2 1002.50  114.55
  -5  -8  -2 1158.28  103.78
   5   8   3  589.11   90.69
  -5  -8  -3  574.54   85.44
   5   9 -11    0.32   13.13
   5   9 -11   29.00   19.93
  -5  -9  10  250.47   45.69
   5   9 -10  277.11   57.73
   5   9 -10  359.15   57.58
  -5  -9   9  571.33   68.69
   5   9  -9  450.58   69.69
   5   9  -9  486.85   66.73
  -5  -9   8  974.37   92.31
   5   9  -8  892.13   97.98
  -5  -9   7 1535.42  120.26
   5   9  -7 1499.90  125.88
  -5  -9   6 1312.75  112.65
   5   9  -6 1586.71  127.14
  -5  -9   5  753.49   82.22
   5   9  -5  632.34   78.22
  -5  -9   4  111.61   32.00
   5   9  -4  185.09   41.71
  -5  -9   3  109.26   32.88
   5   9  -3  155.86   40.26
  -5  -9   2  492.06   67.44
   5   9  -2  429.63   67.34
  -5  -9   1  562.86   72.14
   5   9  -1  552.47   78.81
  -5  -9   0 1071.77  101.67
  -5  -9   0 1013.75  105.74
   5   9   0  874.33  104.63
  -5  -9   0 1112.12   97.14
  -5  -9  -1 1015.94  100.12
  -5  -9  -1 1147.50  117.15
   5   9   1 1029.87  117.20
  -5  -9  -2  679.57   92.69
   5   9   2  549.20   89.29
  -5 -10   9 1106.17  102.69
   5  10  -9  832.06  101.15
   5  10  -9  895.91   93.53
  -5 -10   8  486.17   67.76
   5  10  -8  408.95   68.35
  -5 -10   7  106.17   31.91
   5  10  -7   42.23   22.61
  -5 -10   6   15.12   13.64
   5  10  -6   12.09   20.10
  -5 -10   5   54.47   25.47
   5  10  -5   58.18   24.51
  -5 -10   4  605.90   78.46
   5  10  -4  685.00   86.23
  -5 -10   3 1516.06  129.14
   5  10  -3 1659.87  140.35
  -5 -10   2 1312.76  119.30
   5  10  -2 1244.02  122.93
  -5 -10   1  455.37   68.85
   5  10  -1  509.68   80.51
  -5 -10   0  332.15   59.26
   5  10   0  277.09   60.09
  -5 -11   7  554.73   76.55
   5  11  -7  444.92   74.31
  -5 -11   6  834.09   95.67
   5  11  -6  820.79   99.52
  -5 -11   5 1000.82  106.41
   5  11  -5 1224.30  121.73
  -5 -11   4 1153.85  114.71
   5  11  -4 1023.10  114.24
  -5 -11   3  733.09   91.89
   5  11  -3  730.62   95.74
   6 -11   1 1007.67  113.67
   6 -11   2 1169.15  121.90
   6 -11   3 1334.26  130.48
   6 -11   4  381.91   68.56
   6 -10  -2 1579.79  144.14
  -6  10   2 1509.07  150.37
   6 -10  -1 1275.00  127.23
  -6  10   1 1276.68  134.04
   6 -10   0 1070.21  114.55
   6 -10   1  629.85   86.31
   6 -10   2  216.39   51.33
   6 -10   3   34.56   19.48
   6 -10   4  151.95   41.51
   6 -10   5  373.89   63.62
   6 -10   6 1738.40  142.50
   6 -10   7 1298.44  122.35
   6  -9  -4  868.03  104.56
   6  -9  -3  950.94  108.31
  -6   9   3 1105.92  124.26
   6  -9  -2  843.17   98.64
  -6   9   2  782.83  102.11
   6  -9  -1  415.03   68.41
  -6   9   1  420.37   72.50
   6  -9   0  153.27   42.28
   6  -9   1  111.28   34.84
   6  -9   2  960.78  100.98
   6  -9   3 1248.10  115.32
   6  -9   3 1316.81  113.02
   6  -9   4 1354.13  120.76
   6  -9   4 1482.54  118.44
   6  -9   5 1031.37  102.93
   6  -9   5 1012.17   96.76
   6  -9   6  909.94   97.41
   6  -9   7  227.89   48.41
  -6   9  -8   -6.18   19.21
   6  -9   8   10.41   20.94
  -6   8   5 1386.05  107.73
  -6   8   4  298.73   61.88
  -6   8   4  408.02   52.94
   6  -8  -4  282.46   57.60
  -6   8   3  115.73   42.05
   6  -8  -3   65.71   32.18
  -6   8   3   87.71   25.11
  -6   8   2  109.55   36.13
   6  -8  -2   82.21   29.51
   6  -8  -1  268.99   52.10
  -6   8   1  359.80   65.28
   6  -8  -1  233.86   44.27
   6  -8   0  907.65   96.05
   6  -8   0 1127.54   99.46
   6  -8   1 2360.18  159.94
   6  -8   1 2405.66  151.86
   6  -8   2 2339.30  157.58
   6  -8   2 2335.84  149.73
   6  -8   3 2442.16  162.03
   6  -8   3 2505.34  155.46
   6  -8   4  557.48   72.96
   6  -8   4  671.34   73.96
   6  -8   5   41.16   22.68
   6  -8   5   11.00   11.61
  -6   8  -6  153.66   38.24
   6  -8   6  163.83   38.56
  -6   8  -7  442.00   66.09
   6  -8   7  465.65   66.06
  -6   8  -8  320.52   59.76
  -6   8  -8  348.49   59.29
  -6   8  -9  666.70   90.24
  -6   8  -9  701.70   91.78
  -6   7   7  357.72   55.74
  -6   7   6  139.34   34.05
  -6   7   5   14.66   17.59
  -6   7   4  102.22   36.61
  -6   7   4  160.41   31.84
  -6   7   3  892.88  104.17
   6  -7  -3  865.66   94.59
   6  -7  -3  977.28   89.01
  -6   7   2 2772.26  191.21
   6  -7  -2 3092.63  187.52
   6  -7  -2 2915.23  168.42
   6  -7  -1 3544.83  200.63
   6  -7  -1 3490.64  184.40
  -6   7   1 3073.82  200.79
   6  -7   0 2196.07  151.33
  -6   7   0 2362.03  164.03
   6  -7   0 2361.10  144.43
   6  -7   1  765.00   82.93
   6  -7   1  886.18   82.19
   6  -7   2   69.41   26.35
   6  -7   2  113.40   29.06
   6  -7   3   12.88   13.14
   6  -7   3   -1.63   11.37
  -6   7  -4  148.73   33.51
   6  -7   4  154.29   37.21
   6  -7   4  193.41   37.63
   6  -7   5  912.60   90.86
   6  -7   5  912.86   83.88
  -6   7  -5  999.76   93.24
   6  -7   6 1546.99  121.07
  -6   7  -6 1625.13  126.21
  -6   7  -6 1410.87  119.52
  -6   7  -7 1066.49  100.97
  -6   7  -7 1074.30  105.99
  -6   7  -8  272.43   54.41
  -6   7  -8  442.20   67.97
  -6   7  -8  469.18   65.80
  -6   7  -9  165.96   45.37
  -6   7  -9  133.32   39.72
  -6   6   8   91.64   31.45
   6  -6  -8   24.02   25.05
  -6   6   7  223.40   42.95
   6  -6  -7  225.94   61.10
   6  -6  -6 1172.64  137.92
  -6   6   6 1329.55  102.77
   6  -6  -5 2048.53  178.11
  -6   6   5 2005.65  126.05
  -6   6   5 2105.46  160.32
   6  -6  -4 1294.46  136.48
   6  -6  -4 1649.13  101.34
  -6   6   4 1488.39  135.24
   6  -6  -4 1751.60  118.06
   6  -6  -3 2350.20  120.81
  -6   6   3 2303.75  169.93
   6  -6  -3 2287.96  139.44
   6  -6  -2 1900.87  122.98
   6  -6  -2 1755.13  132.98
  -6   6   2 1935.78  149.43
   6  -6  -1  803.05   84.72
  -6   6   1  779.23   89.62
   6  -6  -1  780.57   73.74
  -6   6   0   12.98   17.22
   6  -6   0   35.02   18.69
   6  -6   0   22.58   16.36
   6  -6   1  793.91   81.76
  -6   6  -1  692.04   80.56
   6  -6   1  748.93   72.78
   6  -6   2 1124.32   99.88
  -6   6  -2 1383.49  112.82
   6  -6   2 1243.96   95.87
   6  -6   3 1194.84  102.50
  -6   6  -3 1485.18  116.03
   6  -6   3 1257.19   97.45
  -6   6  -3 1399.11  102.97
   6  -6   4 1260.70  105.17
  -6   6  -4 1134.42  103.40
   6  -6   4 1477.22  105.65
  -6   6  -4 1426.17  108.49
  -6   6  -5 1238.94  105.57
   6  -6   5 1196.05   94.70
  -6   6  -5 1124.68  101.50
  -6   6  -6  594.12   72.69
  -6   6  -6  603.87   75.16
  -6   6  -7  180.49   42.32
  -6   6  -7  206.76   45.20
  -6   6  -7  199.39   40.89
   6  -6   7  177.93   37.75
  -6   6  -8    2.09   17.44
  -6   6  -8  -30.80   20.72
   6  -6   8    5.14   13.64
  -6   6  -9  592.55   85.40
  -6   6  -9  627.85   85.60
  -6   6 -10  855.09  105.84
  -6   6 -10 1116.14  121.64
   6  -5  -9  196.00   58.42
  -6   5   9  153.68   37.44
   6  -5  -8  402.29   82.10
  -6   5   8  452.33   61.79
   6  -5  -7 1773.08  169.78
  -6   5   7 1583.94  116.36
   6  -5  -6 1666.24  164.67
  -6   5   6 2277.84  134.32
   6  -5  -5 2049.86  173.31
   6  -5  -5 2151.25  118.02
   6  -5  -5 2097.61  128.12
  -6   5   5 1792.80  146.56
   6  -5  -4  689.90   93.86
   6  -5  -4  904.29   66.10
  -6   5   4  896.93   99.40
   6  -5  -4  868.27   77.16
   6  -5  -3   29.75   18.34
  -6   5   3   -1.89   14.46
   6  -5  -3   16.62    9.08
   6  -5  -3   14.72   13.28
   6  -5  -2  177.93   42.75
  -6   5   2  144.75   39.42
   6  -5  -2  247.59   39.32
  -6   5   1 1077.97  101.84
   6  -5  -1  832.09   74.35
   6  -5   0 1508.81  114.39
  -6   5   0 1342.39  116.14
   6  -5   0 1603.94  106.13
   6  -5   1 2322.65  146.75
  -6   5  -1 2426.43  155.83
   6  -5   1 2455.23  137.53
  -6   5  -1 2252.97  126.08
   6  -5   2 2222.03  133.92
  -6   5  -2 2557.99  157.64
  -6   5  -2 2451.77  139.21
  -6   5  -3 1597.09  120.80
   6  -5   3 1536.24  107.28
  -6   5  -3 1592.12  113.06
  -6   5  -4  584.25   68.98
   6  -5   4  675.70   67.59
  -6   5  -4  563.89   67.94
  -6   5  -5   71.22   23.18
  -6   5  -5   56.76   23.43
   6  -5   5  120.67   29.68
   6  -5   5  155.93   33.97
  -6   5  -6  474.31   66.55
  -6   5  -6  518.67   65.79
  -6   5  -6  500.39   64.80
   6  -5   6  526.94   60.20
   6  -5   6  550.22   66.08
  -6   5  -7  711.16   82.91
  -6   5  -7  794.92   81.37
   6  -5   7  859.26   86.48
  -6   5  -7  754.43   88.73
  -6   5  -8  649.75   83.24
   6  -5   8  651.62   79.12
  -6   5  -8  745.00   90.97
  -6   5  -9  561.88   83.72
  -6   5  -9  644.20   85.92
   6  -5   9  595.77   79.15
  -6   5 -10  622.77   90.41
  -6   5 -10  595.73   86.45
   6  -5  10  712.28   89.88
  -6   4   9 1232.64  106.98
   6  -4  -9 1324.90  150.01
  -6   4   8 1305.11  104.86
   6  -4  -8 1273.08  144.86
  -6   4   7  547.37   62.50
   6  -4  -7  470.78   86.16
  -6   4   6  219.13   44.90
   6  -4  -6  190.88   55.50
   6  -4  -6  222.33   36.70
  -6   4   5   31.85   19.07
   6  -4  -5   10.66    8.77
   6  -4  -5   23.17   26.52
   6  -4  -5    7.93   12.07
   6  -4  -4  649.58   51.27
   6  -4  -4  721.47   65.81
  -6   4   4  686.26   83.44
   6  -4  -4  674.29   88.09
   6  -4  -3 2227.10   97.64
   6  -4  -3 1899.04  117.33
  -6   4   3 2083.56  151.78
   6  -4  -3 1889.97  148.34
   6  -4  -2 3092.81  189.63
  -6   4   2 3536.08  201.56
   6  -4  -2 3332.92  163.48
   6  -4  -1 3219.36  186.23
   6  -4  -1 3511.30  168.92
  -6   4   1 3258.84  194.77
  -6   4   1 3516.19  137.79
  -6   4   0 2000.17  139.50
   6  -4   0 1804.29  113.74
  -6   4   0 1928.70  105.58
  -6   4  -1  505.56   54.89
  -6   4  -1  555.26   68.79
   6  -4   1  510.33   56.85
  -6   4  -2   24.89   14.76
  -6   4  -2   76.81   26.94
   6  -4   2   34.41   17.20
  -6   4  -3    8.29   10.19
  -6   4  -3   63.81   23.73
   6  -4   3   39.87   17.63
  -6   4  -4  297.42   49.33
  -6   4  -4  318.71   50.25
   6  -4   4  220.68   38.69
   6  -4   4  286.67   44.26
  -6   4  -5 1313.16  101.85
   6  -4   5 1480.53  103.38
  -6   4  -5 1315.02  105.40
   6  -4   5 1361.27  106.58
  -6   4  -5 1323.91  112.33
  -6   4  -6 1818.85  129.71
   6  -4   6 1914.88  119.55
  -6   4  -6 1942.53  128.64
   6  -4   6 1741.45  129.26
  -6   4  -6 1717.02  135.78
  -6   4  -7  876.31   91.00
   6  -4   7  779.07   86.88
  -6   4  -7  833.59   95.03
  -6   4  -8  177.20   44.68
  -6   4  -8   63.19   26.38
   6  -4   8  153.75   40.63
  -6   4  -9   -1.82   17.24
  -6   4  -9  -17.21   16.87
   6  -4   9   11.78   16.94
  -6   4 -10    6.00   20.89
  -6   4 -10    9.25   17.73
   6  -4  10   14.05   15.64
   6  -3 -10  830.07  118.13
  -6   3  10  860.05   89.96
   6  -3  -9  348.65   76.29
  -6   3   9  337.90   52.32
   6  -3  -8   31.90   23.13
  -6   3   8   30.33   16.64
   6  -3  -7  550.05   55.94
   6  -3  -7  408.35   76.46
   6  -3  -6 1779.21  102.16
   6  -3  -6 1709.66  105.88
   6  -3  -6 1816.27  158.48
  -6   3   6 1696.64  128.27
   6  -3  -5 2708.31  121.24
   6  -3  -5 2465.61  181.11
  -6   3   5 2475.07  165.25
   6  -3  -5 2362.35  129.94
   6  -3  -4 3000.54  121.12
   6  -3  -4 2821.30  143.59
  -6   3   4 2667.59  176.78
   6  -3  -4 2671.65  183.21
   6  -3  -3 1535.84   70.81
   6  -3  -3 1565.26   99.38
  -6   3   3 1707.73  132.14
   6  -3  -3 1654.09  131.21
   6  -3  -2 2295.10  124.72
  -6   3   2 2168.90  149.85
   6  -3  -2 2036.78  142.81
  -6   3   2 2174.02   94.16
   6  -3  -1 1260.32   88.25
  -6   3   1 1171.30  104.15
  -6   3   1 1149.85   71.67
   6  -3  -1 1280.03  101.07
  -6   3   0   97.86   23.00
  -6   3   0   97.90   30.26
   6  -3   0  102.28   27.55
   6  -3   0   90.69   22.91
   6  -3   1  753.10   69.49
  -6   3  -1  707.67   76.36
  -6   3  -1  685.43   66.83
   6  -3   2 2008.85  123.06
  -6   3  -2 1977.91  133.16
  -6   3  -2 1920.57  126.73
  -6   3  -3  933.90   71.18
   6  -3   3  922.43   78.88
  -6   3  -3  928.58   86.06
   6  -3   3  957.05   81.55
  -6   3  -3 1001.31   89.84
  -6   3  -4 1537.28  101.27
   6  -3   4 1321.74   96.74
  -6   3  -4 1344.61  104.54
   6  -3   4 1441.66  108.02
  -6   3  -4 1181.91  104.57
  -6   3  -5  809.92   77.95
   6  -3   5  758.21   70.38
  -6   3  -5  919.34   81.54
   6  -3   5  673.89   76.53
  -6   3  -5  807.06   87.17
  -6   3  -6  339.78   58.19
  -6   3  -6  339.47   52.78
   6  -3   6  312.59   43.77
  -6   3  -6  389.04   50.75
   6  -3   6  296.46   52.92
  -6   3  -7   10.31   13.82
  -6   3  -7   11.90   13.05
   6  -3   7  -19.43   20.02
  -6   3  -8  232.24   51.24
  -6   3  -8  138.85   38.85
   6  -3   8  246.16   52.92
  -6   3  -9  667.26   88.45
   6  -3   9  918.96  105.78
  -6   3  -9  814.56  100.85
  -6   3 -10 1273.50  127.24
  -6   3 -10 1116.37  123.73
   6  -3  10 1419.77  137.40
  -6   2  11   39.23   20.69
   6  -2 -11   16.65   19.67
  -6   2  10  141.85   35.82
   6  -2 -10  144.12   50.19
  -6   2   9  488.85   61.12
   6  -2  -9  435.91   82.31
  -6   2   8 1077.09   89.08
   6  -2  -8 1291.01  136.93
   6  -2  -8 1035.19   75.94
   6  -2  -7 2065.78  173.99
   6  -2  -7 2476.70  125.52
  -6   2   7 2283.59  142.53
   6  -2  -6 3361.27  146.04
   6  -2  -6 3139.93  208.39
   6  -2  -6 3088.56  149.15
  -6   2   6 2930.94  175.09
   6  -2  -5 3446.06  137.66
   6  -2  -5 3284.09  205.40
   6  -2  -5 3278.45  154.60
  -6   2   5 3019.49  184.80
   6  -2  -4 1103.46   56.14
   6  -2  -4  877.17   94.77
   6  -2  -4 1098.45   78.46
  -6   2   4 1151.00  105.37
  -6   2   3   42.93   10.35
  -6   2   3   -5.49   12.16
   6  -2  -3   51.12    8.02
   6  -2  -3    1.71    8.41
   6  -2  -3   -8.85   14.31
   6  -2  -2  121.77   32.23
  -6   2   2  145.34   21.58
  -6   2   2  126.51   33.35
   6  -2  -2  149.52   28.39
   6  -2  -1  604.60   59.80
  -6   2   1  727.55   79.57
   6  -2  -1  641.65   67.46
  -6   2   1  763.19   58.78
  -6   2   0 1949.98   77.65
   6  -2   0 1716.70  111.11
  -6   2   0 1882.26  131.14
  -6   2   0 1824.50  111.65
   6  -2   0 1706.99  109.06
  -6   2  -1 2650.85  108.64
   6  -2   1 2304.17  133.32
  -6   2  -1 2200.96  144.50
  -6   2  -1 2210.28  135.46
  -6   2  -2 1914.48  100.11
   6  -2   2 1831.65  115.32
  -6   2  -2 2010.36  130.23
   6  -2   2 1734.93  115.15
  -6   2  -2 1866.75  126.33
  -6   2  -3 1388.27   89.45
  -6   2  -3 1282.03   99.82
   6  -2   3 1181.92   90.44
   6  -2   3 1359.66  102.62
  -6   2  -3 1242.92  103.83
  -6   2  -4  157.85   38.08
  -6   2  -4  167.22   32.17
  -6   2  -4   91.99   24.54
   6  -2   4   95.19   26.57
  -6   2  -5  328.17   55.00
  -6   2  -5  453.48   57.73
  -6   2  -5  335.15   46.06
   6  -2   5  309.24   53.68
  -6   2  -6  990.11   92.43
   6  -2   6  767.53   88.89
  -6   2  -6  744.10   88.27
  -6   2  -7  783.87   86.89
   6  -2   7  908.12   99.80
  -6   2  -7  872.55   98.05
  -6   2  -8  846.96   95.71
   6  -2   8 1023.00  110.88
  -6   2  -8  972.54  106.86
  -6   2  -9  743.46   92.07
   6  -2   9  686.27   94.25
  -6   2  -9  666.13   91.79
  -6   2 -10  422.46   74.55
  -6   2 -10  504.19   78.56
   6  -2  10  536.10   85.15
  -6   1  11  771.82   84.10
   6  -1 -11  766.22  111.36
   6  -1 -10 2035.60  184.28
  -6   1  10 2169.37  141.64
   6  -1  -9 2093.40  181.77
  -6   1   9 2241.63  137.53
   6  -1  -8 2054.66  172.34
   6  -1  -8 2062.79  109.44
   6  -1  -7  812.49   66.91
   6  -1  -7  773.07   98.13
   6  -1  -7  901.83   65.95
  -6   1   7  773.40   75.79
   6  -1  -6  277.44   32.99
   6  -1  -6  200.92   46.46
  -6   1   6  202.58   39.89
   6  -1  -6  188.23   29.74
   6  -1  -5    6.04   12.33
   6  -1  -5   40.51   10.89
  -6   1   5   32.26   19.49
   6  -1  -5   26.36   12.27
   6  -1  -4 1079.33   48.54
   6  -1  -4 1107.04   99.90
   6  -1  -4  918.03   71.69
  -6   1   4  900.66   91.37
   6  -1  -3 1708.04  121.71
   6  -1  -3 1735.91  104.68
  -6   1   3 1615.58  127.57
  -6   1   3 1739.84   85.58
   6  -1  -2 3889.13  191.02
   6  -1  -2 3854.01  178.49
  -6   1   2 3735.62  208.54
  -6   1   2 3855.14  158.91
   6  -1  -1 3622.51  172.95
   6  -1  -1 3526.37  172.18
  -6   1   1 3841.49  202.79
  -6   1   1 3327.26  158.08
  -6   1   0  954.31   40.30
   6  -1   0  936.46   39.79
  -6   1   0 1010.28   92.21
   6  -1   0  905.91   70.69
  -6   1   0 1022.13   80.71
  -6   1  -1  291.00   44.11
   6  -1   1  251.28   30.44
  -6   1  -1  260.58   27.96
  -6   1  -1  255.16   44.49
  -6   1  -2   65.23   24.34
  -6   1  -2   33.74   12.86
  -6   1  -2  -30.38   16.33
   6  -1   2   18.86    9.39
  -6   1  -3   31.59   20.98
  -6   1  -3   77.34   20.76
  -6   1  -3   53.13   20.10
   6  -1   3   54.23   23.53
  -6   1  -4 1411.36  101.48
   6  -1   4 1363.66  111.92
  -6   1  -4 1462.31   99.46
  -6   1  -4 1122.13  104.97
  -6   1  -5 1837.16  126.01
   6  -1   5 1702.85  133.69
  -6   1  -5 1919.51  112.63
  -6   1  -5 1731.89  135.58
  -6   1  -6 1811.87  130.77
   6  -1   6 1738.44  140.61
  -6   1  -6 1608.72  134.70
  -6   1  -7 1028.56  101.43
   6  -1   7 1189.73  117.99
  -6   1  -7  981.78  106.18
  -6   1  -8   45.62   24.92
  -6   1  -8   88.92   32.39
   6  -1   8  146.23   43.95
  -6   1  -9   14.38   17.12
  -6   1  -9  -37.71   24.95
   6  -1   9  -13.73   17.91
   6   0 -12  944.84  125.92
  -6   0  12 1004.44   99.70
   6   0 -11 1029.97  128.70
  -6   0  11  796.73   84.59
   6   0 -10  988.02  125.03
  -6   0  10 1283.93  101.90
   6   0  -9  551.37   87.57
  -6   0   9  697.33   69.60
   6   0  -8   -1.26   17.01
  -6   0   8   -6.00    9.32
   6   0  -8   -0.39    6.90
   6   0  -7  885.65   70.68
   6   0  -7  713.70   92.54
   6   0  -7  884.16   64.05
   6   0  -7  964.16   63.77
  -6   0   7  813.33   77.60
   6   0  -6 2292.83  109.60
   6   0  -6 2209.83  159.41
   6   0  -6 2055.29  110.52
  -6   0   6 2035.14  133.74
   6   0  -5 2500.93  102.36
   6   0  -5 2284.83  156.44
   6   0  -5 2441.27  124.50
  -6   0   5 2284.63  146.46
   6   0  -4 1799.49  126.81
   6   0  -4 1779.15  105.58
  -6   0   4 1798.06  128.12
   6   0  -3 2000.19  128.27
   6   0  -3 1985.32   81.52
   6   0  -3 1846.55  113.05
  -6   0   3 2125.31  142.94
  -6   0   3 2065.06  100.91
   6   0  -2 2341.95  131.19
   6   0  -2 2126.65   80.02
  -6   0   2 2560.13  156.98
  -6   0   2 2277.90  114.30
   6   0  -1  468.25   27.77
   6   0  -1  518.88   52.03
  -6   0   1  518.72   66.34
  -6   0   1  395.82   46.47
  -6   0   0   23.66   17.74
  -6   0   0   31.23    6.27
  -6   0   0   27.08   15.83
   6   0   0   23.10    7.32
   6   0   0   30.18   11.93
  -6   0  -1 1211.56   67.76
   6   0   1 1165.87   90.19
  -6   0  -1 1101.45   92.77
  -6   0  -1 1090.29   93.98
   6   0   1 1228.48   67.10
  -6   0  -2 3200.30  142.99
   6   0   2 2726.43  159.21
  -6   0  -2 2792.91  154.59
  -6   0  -2 2641.43  164.95
  -6   0  -3 2963.41  149.33
   6   0   3 2734.01  164.02
  -6   0  -3 2509.63  142.49
  -6   0  -3 2742.71  170.46
  -6   0  -4  907.08   81.29
   6   0   4  851.56   90.11
  -6   0  -4  918.52   73.85
  -6   0  -4  945.63   96.38
  -6   0  -5  332.71   57.87
  -6   0  -5  329.74   51.55
   6   0   5  422.36   65.76
  -6   0  -6  158.00   43.17
  -6   0  -6  236.11   46.41
   6   0   6  122.80   37.87
  -6   0  -7   22.43   25.08
  -6   0  -7   32.47   20.12
   6   0   7   17.53   17.02
  -6   0  -8  426.21   71.52
  -6   0  -8  500.34   72.06
   6   0   8  345.26   67.53
  -6   0  -9 1081.62  112.67
   6   0   9 1150.63  127.66
  -6   0  -9 1264.83  127.79
   6   1 -12  163.39   54.88
  -6  -1  12  218.44   43.55
   6   1 -11   21.88   31.19
  -6  -1  11    2.58   12.76
  -6  -1  10  184.96   36.92
   6   1 -10  250.56   38.60
   6   1 -10  310.97   67.83
  -6  -1   9  680.99   66.88
   6   1  -9  669.02   60.61
   6   1  -9  648.16   94.02
   6   1  -8 1722.51  151.07
   6   1  -8 1885.04  104.33
  -6  -1   8 1790.55  117.06
   6   1  -7 2852.63  147.46
   6   1  -7 2703.96  186.45
   6   1  -7 2858.11  133.54
  -6  -1   7 3221.72  166.02
   6   1  -6 2584.12  125.36
   6   1  -6 2549.94  169.81
   6   1  -6 2680.96  129.90
  -6  -1   6 2632.12  152.72
   6   1  -5 2377.61  104.67
   6   1  -5 2143.52  147.22
   6   1  -5 2371.09  116.11
   6   1  -5 2571.68  129.00
  -6  -1   5 2501.47  149.10
   6   1  -4  581.87   32.95
   6   1  -4  603.12   67.28
   6   1  -4  608.97   44.52
  -6  -1   4  563.21   65.79
  -6  -1   4  658.57   51.49
  -6  -1   3   16.66   10.22
  -6  -1   3   10.42   13.19
   6   1  -3    4.61    4.03
   6   1  -3   17.73   14.86
   6   1  -2  693.87   62.88
   6   1  -2  634.79   40.00
  -6  -1   2  630.12   70.06
  -6  -1   2  639.52   57.21
   6   1  -1 1561.42   91.78
   6   1  -1 1421.06   70.98
  -6  -1   1 1416.49  108.36
  -6  -1   1 1412.86   96.11
  -6  -1   0 1823.64   79.67
   6   1   0 2125.51   99.91
   6   1   0 1775.37   91.66
  -6  -1   0 2013.46  128.79
  -6  -1   0 1723.50  117.72
  -6  -1  -1 2577.30  118.28
   6   1   1 2686.90  106.71
   6   1   1 2408.94  145.58
  -6  -1  -1 2509.09  146.75
  -6  -1  -1 2440.31  152.49
  -6  -1  -2 1290.53   86.84
   6   1   2 1349.27  106.85
  -6  -1  -2 1244.05  107.84
  -6  -1  -2 1426.91   99.14
  -6  -1  -3  420.12   62.64
  -6  -1  -3  388.59   49.90
   6   1   3  390.87   58.47
  -6  -1  -3  359.92   45.79
  -6  -1  -4  175.64   42.84
  -6  -1  -4  131.73   31.55
  -6  -1  -4  146.48   27.87
   6   1   4  127.52   37.65
  -6  -1  -5  673.47   76.43
   6   1   5  763.20   91.03
  -6  -1  -5  770.72   89.58
  -6  -1  -6  970.91   95.47
   6   1   6  939.32  104.33
  -6  -1  -6  960.86  104.02
  -6  -1  -7 1079.63  105.76
   6   1   7 1079.36  115.82
  -6  -1  -7  913.90  104.78
  -6  -1  -8  911.66  100.56
   6   1   8  967.85  113.48
  -6  -1  -8  749.78   97.27
  -6  -1  -9 1149.36  116.51
   6   1   9 1029.84  122.20
  -6  -1  -9  912.13  108.60
  -6  -2  12  394.63   59.00
   6   2 -12  523.14   92.69
   6   2 -11 1420.51  152.97
  -6  -2  11 1449.08  110.42
   6   2 -11 1554.02  110.18
   6   2 -10 2256.43  187.35
  -6  -2  10 2336.67  137.57
   6   2 -10 2203.85  130.58
  -6  -2   9 2698.63  145.62
   6   2  -9 2375.63  186.08
  -6  -2   9 2572.65  140.62
   6   2  -9 2495.79  135.21
  -6  -2   8 1261.19   95.31
   6   2  -8 1192.67  120.86
   6   2  -8 1169.33   97.05
   6   2  -8 1296.33   85.96
   6   2  -7  359.45   46.34
   6   2  -7  349.79   47.16
   6   2  -7  313.12   56.73
   6   2  -7  364.16   40.30
  -6  -2   7  278.95   43.38
   6   2  -6  121.52   24.42
   6   2  -6  159.19   39.40
   6   2  -6   93.03   21.55
  -6  -2   6  152.70   33.30
   6   2  -6  185.84   30.22
   6   2  -5   21.91    9.02
   6   2  -5    3.42   11.69
   6   2  -5   27.31   11.74
  -6  -2   5   28.61   17.18
   6   2  -4  568.29   62.84
   6   2  -4  540.48   43.82
  -6  -2   4  501.78   60.21
  -6  -2   4  532.93   49.16
   6   2  -3 2206.43  127.75
   6   2  -3 2246.19  101.31
  -6  -2   3 2122.84  135.81
  -6  -2   3 2253.92  117.44
   6   2  -2 3518.53  158.77
   6   2  -2 3236.45  134.53
  -6  -2   2 3155.50  172.00
  -6  -2   2 3255.56  157.12
   6   2  -1 2007.08  104.86
   6   2  -1 2001.83   99.50
  -6  -2   1 1888.06  118.30
  -6  -2   1 1872.19  124.05
  -6  -2   0  131.04   31.75
   6   2   0  200.62   25.49
  -6  -2   0  224.76   26.21
   6   2   0  166.52   27.36
  -6  -2   0  241.59   40.78
   6   2   0  225.97   39.29
  -6  -2  -1  116.27   30.59
  -6  -2  -1  108.95   21.88
  -6  -2  -1  186.45   34.44
   6   2   1  128.28   31.19
  -6  -2  -2   69.52   27.05
  -6  -2  -2   73.15   19.94
  -6  -2  -2   88.83   24.65
   6   2   2   71.97   25.35
  -6  -2  -3  470.26   68.91
  -6  -2  -3  479.91   57.63
   6   2   3  411.80   61.35
  -6  -2  -3  440.19   49.31
  -6  -2  -4 1508.79  113.75
   6   2   4 1198.20  113.59
  -6  -2  -4 1390.32  124.00
  -6  -2  -5 2076.31  144.30
   6   2   5 2109.64  158.79
  -6  -2  -5 1854.62  149.61
  -6  -2  -6 1831.81  140.83
   6   2   6 2146.17  162.90
  -6  -2  -6 1732.24  146.19
  -6  -2  -7  591.14   79.22
   6   2   7  587.85   86.04
  -6  -2  -7  699.57   90.59
  -6  -2  -8  139.06   42.48
  -6  -2  -8   66.17   32.53
   6   2   8  129.33   44.22
   6   3 -12 1001.43  130.16
  -6  -3  12 1130.26   97.52
   6   3 -12  898.48   87.99
   6   3 -11  951.49  121.98
  -6  -3  11 1009.67   87.56
   6   3 -11  890.22   83.12
   6   3 -10  672.48   98.31
  -6  -3  10  775.11   71.95
   6   3 -10  727.33   70.91
  -6  -3   9  556.69   60.71
  -6  -3   9  406.20   49.11
   6   3  -9  333.33   66.63
   6   3  -9  428.53   51.25
   6   3  -8   12.91   11.10
   6   3  -8    1.49   12.56
   6   3  -8   -0.42   13.39
  -6  -3   8   17.64   11.50
  -6  -3   8   11.06   11.59
  -6  -3   7  505.68   59.46
   6   3  -7  501.08   58.37
   6   3  -7  413.32   65.91
   6   3  -7  465.66   53.16
   6   3  -7  414.93   44.92
  -6  -3   6 1518.29  109.63
   6   3  -6 1568.75   97.69
   6   3  -6 1632.23  125.17
  -6  -3   5 1923.50  128.81
   6   3  -5 2304.70  115.06
   6   3  -5 2228.68  142.86
  -6  -3   4  877.35   81.12
   6   3  -4  958.61   65.44
   6   3  -4 1001.27   85.13
  -6  -3   4  968.24   71.63
   6   3  -3 1140.00   72.68
   6   3  -3 1187.13   88.38
  -6  -3   3 1222.19   84.01
  -6  -3   3 1210.02   95.77
   6   3  -2  833.85   61.37
  -6  -3   2  813.09   70.40
   6   3  -2  841.14   67.25
  -6  -3   2  678.31   70.79
  -6  -3   1   20.25   15.87
   6   3  -1   10.57    8.61
  -6  -3   1   22.92    8.27
   6   3  -1    2.42    6.50
  -6  -3   1   15.12   13.44
  -6  -3   0  701.46   69.12
   6   3   0  752.34   51.82
  -6  -3   0  804.68   59.23
   6   3   0  731.10   65.06
   6   3   0  690.66   70.42
  -6  -3   0  694.46   73.00
  -6  -3  -1 1722.60  110.91
  -6  -3  -1 1649.52  101.61
   6   3   1 1692.18  120.34
  -6  -3  -1 1587.67  121.42
  -6  -3  -2 1632.62  106.17
  -6  -3  -2 1750.24  113.00
   6   3   2 1672.54  124.75
  -6  -3  -2 1541.59  126.07
  -6  -3  -3 1945.59  112.96
  -6  -3  -3 1922.35  129.15
   6   3   3 1774.41  136.89
  -6  -3  -3 1914.12  146.12
  -6  -3  -4  910.87   90.20
   6   3   4  701.23   87.18
  -6  -3  -4  734.22   91.06
  -6  -3  -4  852.74   73.21
  -6  -3  -5  403.60   67.95
  -6  -3  -5  322.58   56.48
   6   3   5  301.38   59.41
  -6  -3  -6   35.60   25.69
  -6  -3  -6   28.35   21.09
   6   3   6   64.99   29.79
  -6  -3  -7   65.41   25.57
  -6  -3  -7  212.24   48.81
   6   3   7  118.82   43.15
   6   4 -12  206.51   60.60
   6   4 -12  335.67   54.27
   6   4 -11   14.24   20.57
  -6  -4  11   16.72   14.50
   6   4 -11    8.61   12.48
   6   4 -10  191.76   51.21
   6   4 -10  132.55   36.52
  -6  -4  10  151.01   31.17
  -6  -4  10  165.53   33.31
   6   4 -10   88.71   25.85
  -6  -4   9  426.31   54.09
   6   4  -9  250.62   55.91
  -6  -4   9  318.86   41.61
   6   4  -9  326.35   52.76
   6   4  -9  353.29   47.70
  -6  -4   9  353.10   45.46
   6   4  -8 1040.91   95.01
  -6  -4   8  917.68   83.47
   6   4  -8  945.82   85.93
  -6  -4   8  997.94   80.69
   6   4  -8 1047.26  110.93
  -6  -4   7 2316.08  141.05
   6   4  -7 2212.87  132.39
  -6  -4   7 2413.42  137.37
   6   4  -7 2356.22  164.29
  -6  -4   6 2787.44  161.61
   6   4  -6 3108.08  152.21
   6   4  -6 3030.24  181.98
  -6  -4   6 2935.79  158.42
  -6  -4   5  482.21   59.68
   6   4  -5  489.75   50.11
   6   4  -5  482.63   61.97
  -6  -4   4   23.37   13.79
   6   4  -4   38.02   15.68
  -6  -4   4   47.71   20.88
  -6  -4   3  159.06   30.59
   6   4  -3  143.53   26.55
  -6  -4   3  163.22   34.23
  -6  -4   2 1080.81   89.72
   6   4  -2  988.00   76.24
  -6  -4   2 1118.86   86.19
  -6  -4   1 1067.52   88.66
  -6  -4   1 1149.66   74.99
   6   4  -1 1089.53   83.06
  -6  -4   1  996.21   86.07
  -6  -4   0 1256.15   96.66
  -6  -4   0 1349.19   88.29
   6   4   0 1318.78   98.08
   6   4   0 1281.87   99.40
  -6  -4   0 1238.66  102.51
  -6  -4  -1 1003.02   82.70
  -6  -4  -1  946.06   79.24
   6   4   1 1053.67   90.90
   6   4   1 1140.09   97.01
  -6  -4  -1 1000.97   86.29
  -6  -4  -1  975.41   95.08
  -6  -4  -2 1078.54   83.77
  -6  -4  -2  967.61   86.95
   6   4   2 1017.71   97.03
  -6  -4  -2 1112.51  105.56
  -6  -4  -2 1071.55   88.32
  -6  -4  -3  155.41   42.27
  -6  -4  -3   99.02   27.06
  -6  -4  -3  180.53   39.51
   6   4   3  207.96   47.02
  -6  -4  -4   72.20   29.74
  -6  -4  -4   66.60   26.57
   6   4   4  159.75   41.34
  -6  -4  -5  650.01   83.94
   6   4   5  784.64   96.76
  -6  -4  -5  834.62   98.89
  -6  -4  -6  886.68  101.03
   6   4   6 1007.21  113.38
  -6  -4  -6  927.37  105.88
  -6  -4  -7  700.75   90.78
   6   4   7  678.51   96.35
  -6  -4  -7  613.96   87.18
   6   5 -12  178.95   55.60
   6   5 -12  174.21   39.69
   6   5 -11 1402.33  149.99
   6   5 -11 1417.75  129.23
   6   5 -11 1282.71  106.98
  -6  -5  10 1798.30  122.38
   6   5 -10 1774.62  138.07
   6   5 -10 1575.74  116.82
   6   5 -10 1776.85  164.28
  -6  -5   9 1692.10  119.34
   6   5  -9 1715.94  127.58
   6   5  -9 1566.97  147.39
  -6  -5   9 1684.78  111.06
  -6  -5   8 1068.86   92.14
   6   5  -8 1109.22   93.81
   6   5  -8  953.75  107.86
  -6  -5   8  941.01   81.97
  -6  -5   7  224.08   39.66
   6   5  -7  188.26   36.76
  -6  -5   7  193.45   37.44
  -6  -5   6   -2.44   11.82
   6   5  -6   12.53    9.70
  -6  -5   6   12.81   11.77
  -6  -5   5  209.03   38.50
   6   5  -5  223.24   36.23
  -6  -5   5  239.96   43.62
  -6  -5   4  443.01   58.55
   6   5  -4  514.25   55.11
  -6  -5   4  375.85   53.50
  -6  -5   3 1490.58  111.71
   6   5  -3 1779.36  109.89
  -6  -5   3 1577.77  113.63
  -6  -5   3 1562.83  105.68
  -6  -5   2 1737.03  120.20
   6   5  -2 1960.52  119.43
  -6  -5   2 1859.01  125.48
  -6  -5   2 1614.33  113.35
  -6  -5   1  681.41   70.54
  -6  -5   1  770.79   65.62
   6   5  -1  762.75   73.19
   6   5  -1  735.02   70.77
  -6  -5   1  524.84   64.17
  -6  -5   1  583.47   66.37
  -6  -5   0  122.06   32.45
  -6  -5   0  118.04   30.40
  -6  -5   0  216.41   35.96
   6   5   0  174.03   37.06
  -6  -5   0  205.70   37.90
   6   5   0  126.62   30.05
  -6  -5  -1   69.90   27.77
  -6  -5  -1   50.69   20.23
  -6  -5  -1    9.36   10.37
   6   5   1   18.75   15.12
  -6  -5  -1   17.30   13.24
   6   5   1   21.56   16.77
  -6  -5  -2  119.57   36.18
  -6  -5  -2  165.13   34.99
  -6  -5  -2  159.41   36.77
  -6  -5  -2  148.43   30.55
   6   5   2  171.20   37.41
  -6  -5  -3  538.89   77.10
  -6  -5  -3  665.76   78.45
   6   5   3  545.01   75.18
  -6  -5  -3  652.78   69.49
  -6  -5  -4 1633.39  134.95
   6   5   4 1469.41  132.57
  -6  -5  -4 1632.85  140.32
  -6  -5  -5 1713.96  143.97
   6   5   5 1731.04  148.79
  -6  -5  -5 1672.80  146.52
  -6  -5  -6 1296.33  127.48
   6   5   6 1195.43  127.57
  -6  -5  -6 1431.41  134.64
   6   6 -12 1152.77  123.07
   6   6 -12 1024.88  100.55
   6   6 -12  993.81  132.37
   6   6 -11  922.21  102.81
   6   6 -11  842.73   87.71
   6   6 -11  830.27  115.93
  -6  -6  10  897.09   85.86
   6   6 -10  806.13   91.18
   6   6 -10  696.91   76.68
   6   6 -10  734.38  105.00
  -6  -6   9  287.21   44.36
   6   6  -9  337.57   55.93
  -6  -6   9  262.40   45.99
   6   6  -9  333.42   68.53
  -6  -6   8  156.88   33.88
   6   6  -8  110.05   31.73
  -6  -6   8  170.96   37.73
   6   6  -7  493.53   62.18
  -6  -6   7  427.59   59.26
  -6  -6   7  523.74   62.04
  -6  -6   6 1212.85  102.78
   6   6  -6 1270.53   98.89
  -6  -6   6 1415.66  107.46
  -6  -6   5 1147.68   98.03
   6   6  -5 1066.16   89.06
  -6  -6   5  989.61   89.84
  -6  -6   4  811.23   81.09
   6   6  -4  814.49   76.51
  -6  -6   4  714.09   76.77
  -6  -6   3  523.94   64.80
   6   6  -3  698.43   70.69
  -6  -6   3  626.03   71.52
  -6  -6   3  667.42   67.67
  -6  -6   2  120.04   29.67
  -6  -6   2  102.98   30.06
   6   6  -2   80.42   25.07
  -6  -6   2   90.32   27.07
  -6  -6   1   16.30   12.00
  -6  -6   1  -14.33   13.72
  -6  -6   1   26.85   13.42
   6   6  -1  -27.22   16.89
  -6  -6   1   25.89   13.93
   6   6  -1   43.23   17.28
  -6  -6   0  735.29   75.06
  -6  -6   0  693.99   73.19
   6   6   0  794.19   85.40
   6   6   0  879.95   81.66
  -6  -6   0  845.16   86.38
  -6  -6   0  794.97   80.83
  -6  -6  -1 1848.26  122.66
  -6  -6  -1 2001.37  135.53
   6   6   1 1576.63  131.37
   6   6   1 2165.46  141.90
  -6  -6  -1 1799.02  135.68
  -6  -6  -1 1610.69  122.20
  -6  -6  -2 1983.26  144.18
   6   6   2 1832.13  145.78
   6   6   2 2019.24  145.53
  -6  -6  -2 2009.91  150.98
  -6  -6  -2 2020.77  134.57
  -6  -6  -3 1269.32  117.56
   6   6   3 1308.59  120.36
  -6  -6  -3 1209.54  118.37
  -6  -6  -3 1387.22  107.02
  -6  -6  -4  468.90   74.35
  -6  -6  -4  607.56   82.42
   6   6   4  470.56   74.45
  -6  -6  -5  345.04   64.50
  -6  -6  -5  380.71   67.86
   6   6   5  364.55   67.67
   6   7 -12  143.02   54.59
   6   7 -12  295.84   62.72
   6   7 -12  242.06   48.97
   6   7 -11   11.50   23.96
   6   7 -11    9.37   18.63
   6   7 -11   12.12   15.06
  -6  -7  10  237.36   41.57
   6   7 -10  217.76   48.39
   6   7 -10  210.29   42.77
  -6  -7   9  488.32   66.91
   6   7  -9  680.69   81.81
  -6  -7   9  637.98   70.12
  -6  -7   8  936.60   92.82
   6   7  -8 1130.43  102.02
  -6  -7   8  918.91   87.59
  -6  -7   7 1213.88  104.44
   6   7  -7  978.29   93.10
  -6  -7   7 1018.13   93.15
  -6  -7   6 1059.27   99.07
   6   7  -6 1293.99  104.05
  -6  -7   6 1153.80  100.53
  -6  -7   5  194.23   41.13
   6   7  -5  222.81   42.28
  -6  -7   5  203.23   42.34
  -6  -7   4   39.52   22.59
   6   7  -4   50.77   20.65
  -6  -7   4   36.36   20.27
  -6  -7   3  505.70   65.35
  -6  -7   3  470.08   63.57
   6   7  -3  430.53   60.62
  -6  -7   3  573.28   64.36
  -6  -7   2 1215.26  104.03
   6   7  -2 1099.93  100.95
  -6  -7   2 1291.32  102.79
  -6  -7   2 1287.69  108.31
  -6  -7   1 1095.81   96.73
   6   7  -1 1018.80   99.15
  -6  -7   1  951.04   90.75
  -6  -7   1 1066.47   98.41
  -6  -7   0 1239.59  102.41
  -6  -7   0 1158.52  102.48
   6   7   0 1193.15  112.89
  -6  -7   0 1065.81  100.54
  -6  -7   0 1126.61  101.58
  -6  -7  -1 1336.40  115.11
   6   7   1 1216.24  118.73
  -6  -7  -1 1342.06  116.46
  -6  -7  -1 1220.10  106.22
  -6  -7  -2  593.41   78.53
   6   7   2  510.95   76.83
  -6  -7  -2  608.68   78.81
  -6  -7  -2  580.51   70.75
  -6  -7  -3   40.14   20.53
  -6  -7  -3   79.99   30.75
   6   7   3   70.70   32.64
  -6  -7  -4   73.57   30.55
  -6  -7  -4   22.14   18.48
   6   7   4   53.28   27.98
   6   8 -11 1008.40  113.41
   6   8 -11 1020.83  102.36
  -6  -8  10 1111.00   98.72
   6   8 -10 1094.35  113.52
   6   8 -10 1389.19  115.36
  -6  -8   9  717.46   78.92
   6   8  -9  841.21   94.98
  -6  -8   8  173.27   38.42
   6   8  -8  120.25   34.84
  -6  -8   7   25.62   17.84
   6   8  -7    8.92   13.53
  -6  -8   7  -10.05   20.49
  -6  -8   6  123.40   34.63
   6   8  -6   91.49   28.30
  -6  -8   6  114.32   34.08
  -6  -8   5  310.13   53.85
   6   8  -5  296.31   51.98
  -6  -8   5  326.48   55.68
  -6  -8   4  990.29   97.00
   6   8  -4  870.89   90.70
  -6  -8   4  792.29   87.02
  -6  -8   3 1587.74  126.74
   6   8  -3 1787.65  134.10
  -6  -8   3 1556.77  125.43
   6   8  -2 1260.14  113.64
  -6  -8   2 1381.80  108.50
  -6  -8   2  939.34   97.44
  -6  -8   1  478.93   67.14
   6   8  -1  581.69   77.83
  -6  -8   1  492.21   65.14
  -6  -8   0  101.09   29.13
  -6  -8   0   75.47   25.89
  -6  -8   0   99.39   31.55
   6   8   0   42.03   21.18
  -6  -8  -1    6.54   13.95
  -6  -8  -1  -27.64   19.26
  -6  -8  -1   17.60   17.75
   6   8   1   -1.61   18.41
  -6  -8  -2  317.32   57.40
  -6  -8  -2  377.40   59.02
  -6  -8  -2  326.43   62.40
   6   8   2  406.38   71.19
  -6  -9  10  296.16   51.24
   6   9 -10  170.49   47.39
   6   9 -10  158.35   40.68
  -6  -9   9   51.22   25.35
   6   9  -9    1.43   17.01
  -6  -9   8  275.05   50.19
   6   9  -8  210.60   48.92
  -6  -9   7  921.14   94.72
   6   9  -7  843.07   95.65
  -6  -9   6  858.39   92.32
   6   9  -6  848.33   94.76
   6   9  -5  657.10   83.23
  -6  -9   5  635.04   80.52
  -6  -9   4  421.48   64.58
   6   9  -4  417.27   65.35
  -6  -9   3  204.02   45.49
   6   9  -3  267.93   53.54
  -6  -9   2   -8.19   16.09
   6   9  -2   16.14   23.08
  -6  -9   1  272.58   49.42
  -6  -9   1  182.32   42.58
   6   9  -1  203.74   48.93
  -6  -9   0  741.05   87.59
   6   9   0  711.36   94.98
  -6  -9   0  635.51   78.74
  -6  -9  -1 1255.38  116.23
  -6  -9  -1 1243.17  123.92
   6   9   1 1442.78  140.86
  -6 -10   8  621.68   81.63
   6  10  -8  813.49   98.65
  -6 -10   7  499.09   73.14
   6  10  -7  552.43   80.56
  -6 -10   6  207.11   46.60
   6  10  -6  136.47   39.32
  -6 -10   5   98.30   35.18
   6  10  -5   55.95   28.10
  -6 -10   4  107.91   35.32
   6  10  -4   47.14   24.23
  -6 -10   3  675.18   86.26
   6  10  -3  514.79   78.84
  -6 -10   2  904.81  100.90
   6  10  -2  876.68  105.46
  -7  10   1  555.24   91.13
   7 -10  -1  660.09   93.73
  -7  10   0  506.38   86.23
   7 -10   0  427.28   75.61
   7 -10   1  811.47  101.96
  -7  10  -1 1054.20  120.94
   7 -10   2  922.62  108.06
  -7  10  -2 1047.95  118.95
   7 -10   3  420.32   71.25
   7 -10   4   50.00   28.93
   7 -10   5  112.09   38.96
  -7   9   3  753.09  105.20
   7  -9  -2 1003.77  113.43
  -7   9   2  992.66  120.20
   7  -9  -1  731.41   95.60
  -7   9   1  926.28  112.58
  -7   9   0  448.41   77.34
   7  -9   0  275.27   56.93
  -7   9  -1   38.23   22.36
   7  -9   1   74.29   29.13
   7  -9   1   81.22   29.05
   7  -9   2   62.11   28.10
  -7   9  -2   42.78   25.65
   7  -9   2   63.96   28.07
   7  -9   3  196.79   47.79
  -7   9  -3  256.46   57.39
   7  -9   3  246.46   50.30
   7  -9   4  595.54   81.65
  -7   9  -4  627.49   86.92
   7  -9   4  553.98   74.64
   7  -9   5 1281.06  122.48
  -7   9  -5 1573.74  139.21
   7  -9   5 1300.77  116.55
   7  -9   6 1968.57  153.50
  -7   9  -6 1644.67  146.33
  -7   9  -7  961.52  107.99
  -7   8   5  835.51   84.55
  -7   8   4  580.04   91.23
  -7   8   4  506.27   62.21
  -7   8   3  170.85   49.72
  -7   8   2  327.95   66.53
   7  -8  -2  411.36   69.43
   7  -8  -2  383.44   60.48
  -7   8   1   30.91   24.92
   7  -8  -1   18.71   12.71
   7  -8  -1   91.06   31.79
  -7   8   0    3.04   20.72
   7  -8   0   27.57   19.73
   7  -8   0   47.78   23.92
   7  -8   1 1028.11  105.37
  -7   8  -1  867.82  102.63
   7  -8   1  836.03   89.26
   7  -8   2 1869.81  146.83
  -7   8  -2 1982.48  157.39
   7  -8   2 1882.51  138.93
   7  -8   3 1608.66  133.87
  -7   8  -3 1537.97  136.39
   7  -8   3 1516.09  122.43
   7  -8   4 1251.01  117.35
  -7   8  -4 1341.18  125.58
   7  -8   4 1314.33  114.89
  -7   8  -5  691.89   88.68
   7  -8   5  905.43   93.53
  -7   8  -6  203.83   48.93
  -7   8  -7   24.63   18.49
  -7   8  -7   -6.40   13.71
  -7   8  -8   81.72   31.43
  -7   7   6  910.70   89.38
  -7   7   5  528.96   81.67
  -7   7   5  509.06   62.85
  -7   7   4   71.59   31.32
   7  -7  -4   79.76   29.15
  -7   7   3   57.53   31.84
   7  -7  -3  122.21   33.77
  -7   7   2  549.17   81.94
   7  -7  -2  487.13   64.71
  -7   7   1  895.17  104.78
   7  -7  -1  822.81   85.15
   7  -7   0 1396.11  124.86
  -7   7   0 1550.98  137.73
   7  -7   0 1758.61  125.73
   7  -7   1 1970.92  149.02
  -7   7  -1 2116.80  161.57
   7  -7   1 2083.54  140.92
   7  -7   2 1535.21  127.03
  -7   7  -2 1465.24  130.66
   7  -7   2 1553.24  119.40
  -7   7  -3  647.75   84.02
   7  -7   3  679.88   76.55
  -7   7  -4   29.16   19.86
   7  -7   4   35.89   17.77
  -7   7  -5  172.23   40.94
  -7   7  -5  265.15   52.46
   7  -7   5  228.07   44.00
  -7   7  -6  717.22   87.38
  -7   7  -6  685.31   83.55
  -7   7  -7  656.78   82.95
  -7   7  -7  632.21   84.14
  -7   7  -8  737.96   94.30
   7  -6  -7  109.99   44.66
  -7   6   7  164.66   38.99
   7  -6  -6   17.58   30.09
  -7   6   6   -5.95   15.17
   7  -6  -5   94.42   38.57
  -7   6   5   -1.53   13.70
   7  -6  -5   49.91   25.44
   7  -6  -4  499.29   84.91
   7  -6  -4  642.69   71.84
  -7   6   4  653.99   89.63
  -7   6   3 1527.62  138.28
   7  -6  -3 1356.35  107.83
  -7   6   2 2483.30  178.31
   7  -6  -2 2086.19  138.52
  -7   6   1 2096.91  159.43
   7  -6  -1 1783.29  125.97
  -7   6   0 1008.65  105.75
   7  -6   0  905.25   85.77
  -7   6  -1   14.13   16.03
   7  -6   1   56.37   24.04
  -7   6  -2   54.56   26.92
   7  -6   2  127.29   31.80
  -7   6  -3  260.45   44.18
  -7   6  -3  175.18   44.20
   7  -6   3  205.51   40.37
  -7   6  -4  937.90   98.31
   7  -6   4  998.60   91.92
  -7   6  -4  971.56   92.84
  -7   6  -5 1727.56  136.74
   7  -6   5 1698.93  124.10
  -7   6  -5 1594.69  127.69
  -7   6  -6 2481.02  164.30
  -7   6  -6 2035.67  154.12
  -7   6  -7 1304.25  115.09
  -7   6  -7 1193.70  117.54
  -7   6  -8  255.80   56.66
   7  -6   8  455.00   64.81
  -7   6  -9   12.56   20.36
   7  -5  -8  -11.52   22.58
  -7   5   8    9.82   12.83
   7  -5  -7  377.69   77.70
  -7   5   7  275.36   48.17
   7  -5  -6 1052.45  126.48
   7  -5  -6  977.68   87.70
  -7   5   6  931.42  102.94
   7  -5  -5 1390.99  141.55
   7  -5  -5 1494.24  110.01
  -7   5   5 1453.31  133.03
   7  -5  -4 1051.69  117.90
   7  -5  -4 1285.63   99.61
  -7   5   4 1305.06  125.74
   7  -5  -3  991.83  108.76
  -7   5   3  915.90  103.21
   7  -5  -3  878.51   80.94
  -7   5   2  303.70   57.49
   7  -5  -2  308.44   55.35
   7  -5  -2  277.18   44.63
  -7   5   1  123.85   37.49
   7  -5  -1   69.47   23.18
  -7   5   0  372.08   62.10
   7  -5   0  398.05   53.54
  -7   5  -1 2042.22  152.20
   7  -5   1 2157.34  136.78
  -7   5  -1 2116.06  125.49
  -7   5  -2 3042.23  189.27
   7  -5   2 2872.78  169.03
  -7   5  -2 3353.98  174.96
   7  -5   3 2726.06  161.33
  -7   5  -3 2606.82  172.26
  -7   5  -3 2776.85  163.59
   7  -5   4 1223.02  101.58
  -7   5  -4 1188.95  108.10
  -7   5  -4 1069.34   99.39
   7  -5   5  975.93   90.67
  -7   5  -5 1057.52  101.07
  -7   5  -5 1031.10  100.83
  -7   5  -6  372.58   62.64
  -7   5  -6  379.10   58.12
   7  -5   6  438.66   60.44
  -7   5  -7   13.49   16.02
  -7   5  -7   -6.12   19.23
   7  -5   7   -0.91   11.08
  -7   5  -8  194.90   48.35
  -7   5  -8   98.18   33.38
   7  -5   8  155.71   41.27
   7  -5   9  712.84   88.43
  -7   5  -9  828.25  102.67
   7  -4  -9  224.04   63.95
  -7   4   9  327.98   54.64
   7  -4  -8  617.22  102.90
  -7   4   8  772.54   80.65
   7  -4  -7  866.30   79.84
   7  -4  -7 1139.20  133.19
   7  -4  -6 1332.70  101.04
  -7   4   6 1338.02  123.15
   7  -4  -6 1742.06  159.33
   7  -4  -5  990.21   82.57
  -7   4   5  726.30   91.77
   7  -4  -5  933.06  111.60
  -7   4   4   10.56   16.01
   7  -4  -4   31.76   17.45
   7  -4  -4    0.19   14.91
   7  -4  -3  592.46   63.76
  -7   4   3  715.72   88.79
   7  -4  -3  555.72   77.38
   7  -4  -2 1931.99  144.10
   7  -4  -2 2077.81  127.44
  -7   4   2 1750.91  143.06
   7  -4  -1 1619.48  124.07
   7  -4  -1 1610.58  112.49
  -7   4   1 1803.25  139.41
   7  -4   0 2873.42  158.83
  -7   4   0 2760.50  177.52
  -7   4   0 2747.41  141.88
   7  -4   1 3210.88  175.36
  -7   4  -1 3201.96  193.03
  -7   4  -1 3479.80  174.18
   7  -4   2 2282.66  139.94
  -7   4  -2 1962.49  143.58
  -7   4  -2 2061.08  135.73
   7  -4   3  740.12   74.94
  -7   4  -3  528.38   70.87
  -7   4  -3  609.42   71.21
  -7   4  -4    6.33   14.12
  -7   4  -4    6.11   14.95
   7  -4   4   10.61    9.70
  -7   4  -5  188.70   41.28
  -7   4  -5  226.00   45.47
   7  -4   5  117.10   28.74
   7  -4   5  155.98   36.84
  -7   4  -6  994.25   92.18
   7  -4   6  957.48   84.34
  -7   4  -6  963.85   91.58
   7  -4   6 1032.02   98.17
  -7   4  -6  800.93   93.69
  -7   4  -7  498.36   68.97
   7  -4   7  714.33   83.63
  -7   4  -7  664.00   85.63
  -7   4  -8  643.92   82.03
   7  -4   8  672.99   85.15
  -7   4  -8  655.92   88.68
  -7   4  -9  838.39   98.42
   7  -4   9 1010.11  108.06
  -7   4  -9  689.91   96.33
  -7   3  10  987.65   98.01
   7  -3 -10  946.62  130.61
  -7   3   9 1114.80   99.79
   7  -3  -9 1008.46  131.77
   7  -3  -8  159.00   49.20
   7  -3  -8  259.53   40.41
  -7   3   8  186.69   39.79
   7  -3  -7  -15.23   20.52
  -7   3   7   -5.19   13.88
   7  -3  -7   20.98   15.78
   7  -3  -6    3.32   20.35
  -7   3   6   49.35   22.85
   7  -3  -6   58.12   20.41
   7  -3  -5  508.63   79.01
  -7   3   5  407.10   65.67
   7  -3  -5  474.94   53.89
   7  -3  -4 1377.30   98.51
  -7   3   4 1426.76  126.82
   7  -3  -4 1338.88  125.73
   7  -3  -3 3657.84  180.93
  -7   3   3 3712.56  218.01
   7  -3  -3 3726.07  214.33
   7  -3  -2 2641.80  151.67
  -7   3   2 3018.86  187.04
   7  -3  -2 2855.40  174.54
  -7   3   2 2994.34  128.08
   7  -3  -1 2617.76  156.93
   7  -3  -1 2448.10  144.14
  -7   3   1 2325.75  162.04
  -7   3   1 2756.97  132.02
   7  -3   0 1008.14   85.69
   7  -3   0 1063.23   89.66
  -7   3   0 1206.25  108.17
  -7   3   0 1090.14   84.84
  -7   3  -1    6.96   11.91
  -7   3  -1   28.47   17.76
   7  -3   1   14.12   14.71
  -7   3  -2   78.98   27.34
  -7   3  -2   60.51   22.77
   7  -3   2   49.29   19.44
  -7   3  -3  413.80   59.44
  -7   3  -3  336.42   54.10
   7  -3   3  355.10   50.83
   7  -3   4  840.66   79.20
  -7   3  -4  964.67   90.12
   7  -3   4  792.45   81.94
  -7   3  -4  905.38   92.17
  -7   3  -5 2389.65  139.97
   7  -3   5 1876.33  125.49
   7  -3   5 2056.33  143.64
  -7   3  -5 2042.08  135.85
  -7   3  -5 1893.71  144.13
  -7   3  -6 1602.53  122.42
   7  -3   6 1750.59  117.87
   7  -3   6 1960.91  144.12
  -7   3  -6 1806.46  143.63
  -7   3  -7  714.56   82.34
   7  -3   7  659.48   83.89
  -7   3  -7  641.44   85.63
  -7   3  -8  103.66   39.68
  -7   3  -8  137.56   37.32
   7  -3   8   96.91   35.23
  -7   3  -9   44.42   24.57
  -7   3  -9   88.59   32.24
   7  -3   9   80.19   32.63
  -7   2  10  149.28   38.70
   7  -2 -10  181.76   54.14
  -7   2   9  100.75   30.25
   7  -2  -9   69.41   33.02
   7  -2  -8  292.89   65.86
   7  -2  -8  253.82   38.61
   7  -2  -7  894.56  112.14
   7  -2  -7  970.38   78.04
  -7   2   7 1031.26   97.21
   7  -2  -6 2134.93  169.50
   7  -2  -6 2018.36  119.78
  -7   2   6 2109.95  149.71
   7  -2  -5 2525.17  178.82
   7  -2  -5 2540.06  138.82
  -7   2   5 2477.28  170.20
   7  -2  -4 1626.94  132.18
   7  -2  -4 1440.32   99.92
  -7   2   4 1497.47  128.51
   7  -2  -3 1094.88   87.43
   7  -2  -3 1201.30  107.29
  -7   2   3 1077.95  107.93
  -7   2   3 1204.91   69.22
   7  -2  -2  446.99   54.75
   7  -2  -2  468.36   63.26
  -7   2   2  504.50   70.21
  -7   2   2  502.84   46.56
  -7   2   1   50.90   17.22
  -7   2   1   62.07   24.42
   7  -2  -1   49.67   16.72
   7  -2  -1   51.51   18.26
   7  -2   0  997.11   79.43
   7  -2   0  991.07   85.67
  -7   2   0  936.26   94.62
  -7   2   0 1066.13   85.41
   7  -2   1 2203.41  137.56
  -7   2  -1 2282.19  151.99
  -7   2  -1 2571.97  150.03
   7  -2   2 1998.67  128.96
  -7   2  -2 2113.41  141.95
  -7   2  -2 2122.31  142.55
   7  -2   3 2441.12  143.52
   7  -2   3 2257.73  147.05
  -7   2  -3 2391.26  150.10
  -7   2  -3 2516.11  161.54
   7  -2   4  929.69   82.27
   7  -2   4  934.59   91.14
  -7   2  -4 1004.63   87.91
  -7   2  -4  700.33   83.73
  -7   2  -5  423.20   66.17
  -7   2  -5  407.99   54.36
  -7   2  -5  377.86   51.50
   7  -2   5  409.77   52.42
   7  -2   5  485.78   67.99
  -7   2  -6  126.00   39.22
  -7   2  -6  126.75   32.06
   7  -2   6  191.45   36.40
   7  -2   6   94.49   32.00
  -7   2  -7   21.61   19.38
  -7   2  -7   32.52   17.47
   7  -2   7    6.48   17.20
  -7   2  -8  405.38   70.60
  -7   2  -8  544.82   74.57
   7  -2   8  347.68   65.77
  -7   2  -9  879.07  100.09
   7  -2   9  943.90  112.13
  -7   2  -9  950.33  111.46
   7  -1 -11  108.87   42.30
  -7   1  11  146.42   37.53
   7  -1 -10  263.68   64.16
  -7   1  10  175.65   38.65
   7  -1  -9  670.13  101.75
  -7   1   9  716.24   75.18
   7  -1  -8 1189.56  131.50
   7  -1  -8 1421.83   91.11
  -7   1   8 1054.68   95.66
   7  -1  -7 1774.53  155.33
   7  -1  -7 1978.03  113.07
  -7   1   7 1725.68  130.36
   7  -1  -6 2160.51  167.07
   7  -1  -6 2612.10  135.16
  -7   1   6 2285.49  156.29
   7  -1  -5  444.96   69.20
  -7   1   5  397.68   61.99
   7  -1  -5  407.72   49.08
   7  -1  -4   14.20   11.23
  -7   1   4   -1.88   14.56
   7  -1  -4   18.03   13.39
   7  -1  -3  834.42   84.45
   7  -1  -3  824.14   74.30
  -7   1   3  939.95   98.09
  -7   1   3  901.76   63.29
   7  -1  -2 1895.96  125.31
   7  -1  -2 1883.70  121.31
  -7   1   2 1665.10  136.18
  -7   1   2 1793.15  103.43
   7  -1  -1 2151.11  132.61
   7  -1  -1 2298.55  132.79
  -7   1   1 2280.57  154.85
  -7   1   1 2074.62  123.23
  -7   1   0 2355.40  155.14
   7  -1   0 2328.11  124.53
  -7   1   0 2232.36  137.43
   7  -1   1 1964.53  101.69
  -7   1  -1 1945.97  135.27
  -7   1  -1 1817.29  128.78
   7  -1   2 2496.57  150.77
  -7   1  -2 2467.22  152.55
  -7   1  -2 2427.53  156.79
   7  -1   3  562.20   68.34
  -7   1  -3  608.28   67.33
  -7   1  -3  541.47   71.69
  -7   1  -4   20.10   19.86
  -7   1  -4   22.68   17.29
   7  -1   4   24.56   18.58
  -7   1  -5  406.59   65.55
  -7   1  -5  426.60   56.34
   7  -1   5  506.95   70.87
  -7   1  -6  729.86   78.78
   7  -1   6  676.07   86.16
  -7   1  -6  586.85   81.76
  -7   1  -7  396.46   68.51
  -7   1  -7  649.46   77.92
   7  -1   7  588.59   82.91
  -7   1  -8  412.34   71.90
  -7   1  -8  513.72   72.52
   7  -1   8  528.82   81.09
  -7   1  -9  191.68   50.48
  -7   1  -9  251.23   53.35
   7  -1   9  323.04   66.00
   7   0 -11 1016.66  131.96
  -7   0  11  973.67   94.60
   7   0 -10 1042.48  130.18
  -7   0  10 1184.42  100.22
   7   0  -9 1485.58  150.61
   7   0  -8  488.19   81.24
   7   0  -8  478.65   49.11
  -7   0   8  404.85   56.77
   7   0  -7  -33.68   23.36
  -7   0   7   20.67   15.65
   7   0  -7   23.99   13.39
   7   0  -6  144.48   40.74
  -7   0   6  237.60   45.65
   7   0  -6  236.13   35.58
   7   0  -5  887.45   93.72
   7   0  -5  870.52   73.98
  -7   0   5 1003.78   97.59
   7   0  -4 1499.22  117.43
   7   0  -4 1333.13   98.73
  -7   0   4 1748.10  133.12
  -7   0   4 1452.45   85.49
   7   0  -3 3576.09  186.89
   7   0  -3 3364.69  174.81
  -7   0   3 3840.32  213.16
  -7   0   3 3297.93  154.16
   7   0  -2 3925.19  189.36
  -7   0   2 3961.55  220.58
  -7   0   2 3718.86  174.86
   7   0  -1 2283.00  127.10
  -7   0   1 2521.86  161.95
  -7   0   1 2087.98  128.94
   7   0   0 1020.32   72.17
  -7   0   0  919.93   91.03
  -7   0   0  859.10   82.84
  -7   0  -1   65.36   25.06
  -7   0  -1   45.63   20.97
  -7   0  -2   25.09   13.33
  -7   0  -2   21.19   13.62
   7   0   2   32.32   18.12
   7   0   3  441.09   63.60
  -7   0  -3  516.03   59.26
  -7   0  -3  523.30   71.70
  -7   0  -4 1379.83  100.10
   7   0   4 1454.67  121.94
  -7   0  -4 1383.06   98.89
  -7   0  -4 1260.79  116.90
  -7   0  -5 1631.64  116.18
   7   0   5 1534.72  130.64
  -7   0  -5 1351.75  125.97
  -7   0  -6 1289.89  107.08
   7   0   6 1034.95  110.37
  -7   0  -6 1180.42  116.77
  -7   0  -7  237.07   55.72
  -7   0  -7  224.69   45.69
   7   0   7  167.70   46.07
  -7   0  -8   14.41   22.69
  -7   0  -8  -34.41   21.97
   7   0   8  -21.82   27.42
   7   1 -12  782.32  116.91
  -7  -1  12  659.41   79.19
   7   1 -11  307.04   73.28
  -7  -1  11  313.88   51.89
   7   1 -10  399.39   78.17
  -7  -1  10  282.10   46.31
  -7  -1   9   48.57   18.72
   7   1  -9   14.51   13.64
   7   1  -9   19.06   18.68
   7   1  -8  572.31   87.22
  -7  -1   8  698.77   75.01
   7   1  -7 1893.07  153.64
   7   1  -7 2025.00  113.98
  -7  -1   7 1840.78  132.78
   7   1  -6 3244.32  200.18
   7   1  -6 3168.12  159.92
  -7  -1   6 3251.90  187.44
   7   1  -5 2590.34  165.41
   7   1  -5 2408.48  138.58
  -7  -1   5 2675.55  168.10
   7   1  -4 1871.15  130.87
  -7  -1   4 1745.77  134.09
  -7  -1   4 1908.33  105.48
   7   1  -3 1460.48  106.79
   7   1  -3 1457.48   70.00
  -7  -1   3 1337.20  114.88
  -7  -1   3 1386.37   91.27
   7   1  -2 1022.47   80.96
   7   1  -2  940.10   52.87
  -7  -1   2  983.08   95.85
  -7  -1   2  934.12   77.05
  -7  -1   1   93.56   25.03
   7   1  -1  112.05   23.33
  -7  -1   1   94.83   28.84
   7   1  -1  129.10   18.57
   7   1   0  965.49   63.50
   7   1   0 1056.50   69.00
  -7  -1   0 1059.82   96.11
  -7  -1   0  859.12   85.29
   7   1   1 2478.50  150.97
  -7  -1  -1 2689.27  156.65
  -7  -1  -1 2238.74  152.45
   7   1   2 1922.16  137.23
  -7  -1  -2 2178.45  151.71
  -7  -1  -2 2365.76  140.02
   7   1   3 1225.65  109.20
  -7  -1  -3 1285.70  117.35
  -7  -1  -3 1349.24   98.92
  -7  -1  -4  520.36   74.74
  -7  -1  -4  517.52   60.69
   7   1   4  300.93   58.37
  -7  -1  -4  644.46   62.29
  -7  -1  -5   85.02   31.05
  -7  -1  -5  146.73   35.11
   7   1   5  117.71   36.57
  -7  -1  -6   39.51   26.00
  -7  -1  -6    9.56   14.90
   7   1   6   42.67   29.23
  -7  -1  -7  169.98   46.73
  -7  -1  -7   57.53   20.92
   7   1   7  143.70   44.80
  -7  -1  -8  475.77   78.02
  -7  -1  -8  510.62   72.97
   7   1   8  433.16   78.54
   7   2 -12  -31.50   26.71
  -7  -2  12  -24.59   18.01
  -7  -2  11  378.03   54.96
   7   2 -11  342.41   75.88
   7   2 -10 1081.06  128.90
  -7  -2  10  949.70   85.75
   7   2 -10 1050.97   85.25
  -7  -2   9 1700.13  120.34
   7   2  -9 1411.28  144.87
   7   2  -9 1566.54  103.92
  -7  -2   8 1962.41  134.92
   7   2  -8 2019.97  163.95
   7   2  -7 2099.92  158.34
   7   2  -7 2239.23  126.44
   7   2  -7 1758.58  112.13
  -7  -2   7 1981.51  137.62
   7   2  -6 2296.14  161.40
   7   2  -6 2633.87  131.39
   7   2  -6 2443.47  137.41
  -7  -2   6 2394.62  156.54
   7   2  -5  563.46   69.21
   7   2  -5  550.60   48.59
  -7  -2   5  523.82   67.83
  -7  -2   4   51.63   16.34
   7   2  -4   57.61   14.87
  -7  -2   4   68.47   26.00
   7   2  -4   40.20   19.15
  -7  -2   3  288.20   40.56
   7   2  -3  309.74   31.88
  -7  -2   3  257.94   46.93
   7   2  -3  307.98   45.47
   7   2  -2 1059.22   84.02
   7   2  -2 1446.57   77.52
  -7  -2   2 1372.23  111.78
  -7  -2   2 1330.83   96.53
   7   2  -1 2212.66  117.71
   7   2  -1 2308.20  112.16
  -7  -2   1 2037.34  133.24
  -7  -2   1 2324.00  148.78
   7   2   0 2263.53  117.48
  -7  -2   0 2161.79  145.27
  -7  -2   0 2198.93  143.75
   7   2   1 1605.79  118.26
  -7  -2  -1 1499.85  123.60
  -7  -2  -1 1522.46  112.24
   7   2   2  712.04   80.80
  -7  -2  -2  795.26   90.49
  -7  -2  -2  888.22   79.85
  -7  -2  -3  183.21   45.26
  -7  -2  -3  181.01   33.47
   7   2   3  190.49   44.30
  -7  -2  -4  163.18   42.36
  -7  -2  -4  215.07   40.93
   7   2   4  172.01   42.52
  -7  -2  -5  467.59   74.00
  -7  -2  -5  468.28   65.06
   7   2   5  480.31   73.21
  -7  -2  -6  793.55   87.28
   7   2   6  868.88  105.08
  -7  -2  -6  699.23   92.19
  -7  -2  -7  769.28   89.20
   7   2   7  778.68  102.00
  -7  -2  -7  793.91   99.65
  -7  -3  12  682.79   76.91
   7   3 -12  744.58   79.45
   7   3 -12  564.51   99.43
   7   3 -11 1647.28  168.70
  -7  -3  11 1910.71  128.57
   7   3 -11 1891.43  128.14
  -7  -3  10 1861.04  127.44
   7   3 -10 1558.37  158.28
  -7  -3  10 1885.81  122.02
   7   3 -10 1922.40  123.78
  -7  -3   9  805.91   81.42
   7   3  -9  917.12  110.32
   7   3  -9  768.14   72.64
   7   3  -8  223.97   53.52
   7   3  -8  204.22   38.60
  -7  -3   8  174.00   37.34
   7   3  -7  153.20   40.90
   7   3  -7  120.85   27.74
  -7  -3   7   90.29   28.37
   7   3  -7  105.98   25.52
   7   3  -6   95.69   32.14
   7   3  -6  101.01   23.68
  -7  -3   6   64.08   25.63
  -7  -3   5  896.45   89.34
   7   3  -5 1051.83   95.03
   7   3  -5  858.63   66.33
   7   3  -4 1620.06  114.70
   7   3  -4 1593.77   91.15
  -7  -3   4 1466.94   99.88
  -7  -3   4 1524.17  119.68
   7   3  -3 2979.60  157.30
   7   3  -3 2874.32  135.26
  -7  -3   3 2877.11  153.41
  -7  -3   3 2957.51  174.18
   7   3  -2 3775.98  173.51
   7   3  -2 3717.74  163.21
  -7  -3   2 3300.82  178.75
  -7  -3   2 3867.75  202.48
   7   3  -1 1590.19   90.79
   7   3  -1 1280.71   87.27
  -7  -3   1 1220.82  101.85
  -7  -3   1 1359.37  108.83
  -7  -3   0  131.20   33.78
   7   3   0  151.41   29.63
  -7  -3   0  190.55   37.91
   7   3   0  129.09   30.94
  -7  -3  -1   18.01   18.02
   7   3   1    3.89   10.73
  -7  -3  -1   35.86   19.94
   7   3   1   24.69   17.77
  -7  -3  -2  182.27   45.20
  -7  -3  -2  177.05   35.81
   7   3   2  265.27   49.17
  -7  -3  -3  481.81   55.26
  -7  -3  -3  353.91   62.52
  -7  -3  -3  471.44   59.17
   7   3   3  385.31   62.44
  -7  -3  -4 1272.98  105.95
   7   3   4  980.97  105.10
  -7  -3  -4 1139.38  116.66
  -7  -3  -5 1525.17  122.34
   7   3   5 1386.43  131.89
  -7  -3  -5 1392.69  131.33
  -7  -3  -6  735.75   86.20
   7   3   6  673.76   92.24
  -7  -3  -6  708.23   92.99
  -7  -3  -7   40.07   27.26
   7   3   7   83.64   37.72
   7   4 -12  798.44  116.56
   7   4 -12  543.52   70.20
  -7  -4  11  512.21   61.30
   7   4 -11  442.46   84.99
   7   4 -11  493.56   63.82
   7   4 -10   35.09   21.32
   7   4 -10   18.99   15.56
  -7  -4  10   89.96   26.17
  -7  -4  10   66.75   24.40
   7   4 -10   34.47   17.80
  -7  -4   9    3.03    8.76
   7   4  -9   26.61   26.77
   7   4  -9    2.24   12.04
  -7  -4   9   17.57   15.63
   7   4  -8  444.20   72.51
   7   4  -8  456.99   59.63
  -7  -4   8  364.16   55.91
  -7  -4   8  424.53   56.95
  -7  -4   7 2204.58  146.40
   7   4  -7 2214.72  131.47
  -7  -4   7 1949.96  133.87
   7   4  -7 2152.36  160.51
  -7  -4   6 3322.10  188.40
   7   4  -6 3339.37  164.27
   7   4  -6 3230.48  195.05
  -7  -4   5 2582.21  165.43
   7   4  -5 2929.00  145.21
   7   4  -5 2784.93  169.77
  -7  -4   4 1060.30   96.95
   7   4  -4  907.63   72.63
   7   4  -4 1154.77   95.27
  -7  -4   4  930.86   79.77
  -7  -4   3  901.54   89.46
   7   4  -3  957.97   74.48
   7   4  -3 1051.38   85.56
  -7  -4   3  917.00   81.07
  -7  -4   2  140.74   33.07
   7   4  -2  214.23   34.10
   7   4  -2  103.13   24.56
  -7  -4   2   51.33   24.18
  -7  -4   1   96.95   30.34
   7   4  -1  105.41   26.30
  -7  -4   1   79.22   26.58
  -7  -4   0  650.99   72.68
   7   4   0  740.21   72.61
   7   4   0  857.18   81.88
  -7  -4   0  651.59   77.56
  -7  -4  -1 1786.75  121.86
   7   4   1 1634.03  117.38
   7   4   1 1580.88  122.76
  -7  -4  -1 1766.46  125.54
  -7  -4  -1 1680.70  134.57
  -7  -4  -2 1088.96   89.23
   7   4   2 1153.38  105.94
  -7  -4  -2 1071.00  108.95
  -7  -4  -2  979.08   91.09
  -7  -4  -3  535.82   78.82
  -7  -4  -3  652.72   72.76
   7   4   3  663.17   82.50
  -7  -4  -3  633.26   69.72
  -7  -4  -4  143.44   42.45
  -7  -4  -4  154.03   37.08
   7   4   4  103.68   36.18
  -7  -4  -5   -1.11   14.49
  -7  -4  -5    8.27   15.35
   7   4   5    4.65   16.28
  -7  -4  -6   22.64   18.23
   7   4   6   69.23   32.19
   7   5 -12   51.19   31.87
   7   5 -12   25.91   20.76
   7   5 -11  444.31   85.61
   7   5 -11  366.45   65.25
   7   5 -11  446.16   62.43
   7   5 -10  909.41  117.25
  -7  -5  10  885.40   89.35
   7   5 -10  934.47   98.57
   7   5 -10  963.37   89.62
  -7  -5   9 1049.08   99.48
   7   5  -9 1262.09  108.27
  -7  -5   9 1156.35   97.50
   7   5  -9 1310.61  134.40
  -7  -5   8 2039.93  141.83
   7   5  -8 1982.50  134.43
  -7  -5   8 1875.48  130.79
   7   5  -8 1957.83  161.36
  -7  -5   7 1836.10  134.67
   7   5  -7 1841.77  123.09
   7   5  -7 1829.68  147.89
  -7  -5   7 1760.00  126.96
  -7  -5   6 1195.58  106.62
   7   5  -6 1230.13   94.09
   7   5  -6 1210.30  113.80
  -7  -5   6 1244.69  105.18
  -7  -5   5  284.59   49.04
   7   5  -5  282.01   42.52
  -7  -5   5  272.80   48.53
   7   5  -5  280.26   49.90
  -7  -5   4   75.75   25.49
  -7  -5   4   93.98   29.72
   7   5  -4   84.87   24.30
  -7  -5   4   83.21   27.49
   7   5  -4  126.38   32.75
  -7  -5   3  449.81   62.68
  -7  -5   3  401.68   59.53
   7   5  -3  453.95   54.14
   7   5  -3  439.15   55.38
  -7  -5   3  392.51   53.55
  -7  -5   2 1006.86   93.50
   7   5  -2  880.89   79.69
   7   5  -2  905.54   75.92
  -7  -5   2  962.71   93.02
  -7  -5   2  876.59   84.73
  -7  -5   1  680.98   76.38
   7   5  -1  756.93   75.47
  -7  -5   1  710.09   80.28
  -7  -5   1  803.19   84.00
  -7  -5   0  699.63   74.82
   7   5   0  739.21   77.97
   7   5   0  693.86   74.75
  -7  -5   0  641.54   75.07
  -7  -5   0  588.09   75.64
  -7  -5  -1  872.11   82.74
   7   5   1  820.32   85.30
   7   5   1  822.78   86.45
  -7  -5  -1  805.80   91.53
  -7  -5  -1  822.03   84.97
  -7  -5  -2  168.74   44.46
  -7  -5  -2  172.28   38.64
   7   5   2  149.52   37.20
   7   5   2  165.75   39.72
  -7  -5  -3    6.88   18.27
  -7  -5  -3   22.29   16.41
   7   5   3    0.09   16.95
  -7  -5  -4  389.91   69.39
   7   5   4  354.00   64.76
   7   5   5  674.29   92.05
  -7  -5  -5  787.08   99.65
  -7  -6  11 1543.66  125.34
   7   6 -11 1598.93  140.98
   7   6 -11 1696.51  130.05
   7   6 -11 1702.41  171.10
  -7  -6  10 1591.87  125.84
   7   6 -10 1590.41  133.15
   7   6 -10 1516.02  119.57
   7   6 -10 1381.22  147.45
  -7  -6   9 1015.96   99.23
   7   6  -9  950.56   96.60
   7   6  -9 1066.70  122.57
  -7  -6   9  960.39   90.91
   7   6  -8  370.19   67.33
  -7  -6   8  212.54   42.75
   7   6  -8  381.71   57.23
  -7  -6   8  256.21   48.64
  -7  -6   7   -1.98   12.04
   7   6  -7    6.44   13.71
  -7  -6   7    6.53   14.86
  -7  -6   6   28.82   16.47
   7   6  -6   18.28   12.69
  -7  -6   6   13.57   15.65
   7   6  -5  524.96   62.39
  -7  -6   5  431.63   63.85
  -7  -6   5  473.68   65.63
  -7  -6   4  835.81   88.19
   7   6  -4  931.49   84.83
  -7  -6   4  778.14   86.10
  -7  -6   3 1680.63  129.47
   7   6  -3 1989.21  129.92
  -7  -6   3 1684.87  130.81
  -7  -6   3 1599.17  119.70
  -7  -6   2 1548.35  120.04
   7   6  -2 1359.03  108.44
  -7  -6   2 1206.27  109.61
  -7  -6   2 1407.92  112.13
  -7  -6   1  188.08   41.24
  -7  -6   1  191.17   43.23
   7   6  -1  167.45   38.54
  -7  -6   1  139.80   35.22
  -7  -6   0   32.25   21.82
  -7  -6   0   13.69   15.82
   7   6   0   59.36   25.83
  -7  -6   0   36.49   18.51
   7   6   0   14.91   13.41
  -7  -6  -1  135.13   39.37
  -7  -6  -1  123.97   33.94
   7   6   1  117.04   33.78
  -7  -6  -1  168.31   36.76
   7   6   1  110.98   32.26
  -7  -6  -2  335.63   62.92
  -7  -6  -2  377.47   58.39
   7   6   2  236.01   50.12
   7   6   2  377.40   61.43
  -7  -6  -3  616.22   85.49
   7   6   3  310.58   58.44
   7   6   3  602.95   80.73
  -7  -6  -4  587.24   86.86
   7   6   4  581.95   81.79
   7   6   4  782.14   95.61
   7   7 -11  643.82  103.71
   7   7 -11  532.80   81.01
   7   7 -11  612.21   77.90
   7   7 -10   97.30   40.83
  -7  -7  10  150.03   36.06
   7   7 -10  154.99   42.48
   7   7 -10  137.10   36.65
  -7  -7  10  168.55   40.47
  -7  -7   9    4.37   14.62
   7   7  -9   -1.02   14.80
  -7  -7   9    3.02   16.97
   7   7  -9   -8.13   16.06
   7   7  -8  397.26   61.73
  -7  -7   8  315.43   56.61
  -7  -7   8  577.78   71.42
  -7  -7   7 1433.36  123.57
   7   7  -7 1438.74  118.63
  -7  -7   7 1448.02  120.11
  -7  -7   6 1251.52  114.76
   7   7  -6 1518.17  117.49
  -7  -7   6 1309.09  114.81
  -7  -7   5 1064.80  104.64
   7   7  -5 1032.69   96.92
  -7  -7   5 1162.93  106.94
  -7  -7   4  474.82   68.31
  -7  -7   4  470.95   67.06
   7   7  -4  464.39   62.97
  -7  -7   3  277.89   48.76
  -7  -7   3  196.66   43.27
   7   7  -3  254.03   47.50
  -7  -7   3  245.16   48.24
  -7  -7   2   12.34   16.83
  -7  -7   2    9.25   13.88
   7   7  -2   11.83   13.23
  -7  -7   2   -0.61   14.92
  -7  -7   1  149.45   38.50
  -7  -7   1  131.26   37.55
   7   7  -1  138.50   38.62
  -7  -7   1   74.44   27.93
  -7  -7   0  487.67   70.43
   7   7   0  509.56   73.08
  -7  -7   0  460.72   63.86
  -7  -7   0  499.95   69.91
   7   7   1  902.35  102.09
  -7  -7  -1 1009.38  105.85
  -7  -7  -1 1065.54  102.37
  -7  -7  -2  482.52   75.83
   7   7   2  512.18   76.93
  -7  -7  -2  577.72   73.59
  -7  -7  -3  236.63   53.91
   7   7   3  257.01   55.68
  -7  -8  10  609.41   75.04
   7   8 -10  650.12   87.33
   7   8 -10  686.01   82.96
   7   8 -10  446.68   87.74
  -7  -8   9  549.76   77.58
   7   8  -9  706.74   88.38
  -7  -8   9  608.77   76.64
  -7  -8   8 1511.01  132.32
   7   8  -8 1848.76  142.78
  -7  -8   8 1623.21  131.29
  -7  -8   7 1141.85  112.14
   7   8  -7 1191.18  110.43
  -7  -8   7  860.63   94.53
   7   8  -6  596.62   76.24
  -7  -8   6  429.34   68.24
  -7  -8   6  633.50   80.39
  -7  -8   5   27.98   16.89
   7   8  -5   17.99   12.82
  -7  -8   5   59.76   27.81
  -7  -8   4   77.70   30.09
   7   8  -4   19.59   15.93
  -7  -8   4   82.32   30.50
  -7  -8   3  286.09   55.02
   7   8  -3  321.05   56.66
  -7  -8   3  224.06   47.56
  -7  -8   2  502.00   72.75
   7   8  -2  611.78   80.71
  -7  -8   2  509.48   71.77
  -7  -8   2  623.35   77.34
  -7  -8   1  318.26   56.75
   7   8  -1  405.64   67.07
  -7  -8   1  544.18   75.20
  -7  -8   0  543.40   75.94
   7   8   0  415.61   70.04
  -7  -8   0  575.40   76.60
  -7  -8  -1  287.76   56.63
  -7  -8  -1  262.76   51.92
   7   8   1  344.70   65.18
  -7  -9   9  612.48   79.62
   7   9  -9  646.17   88.28
  -7  -9   8  161.02   41.29
   7   9  -8  220.64   49.92
  -7  -9   7   44.52   24.00
   7   9  -7   49.69   28.21
  -7  -9   6  105.29   34.58
   7   9  -6   67.96   28.53
  -7  -9   5  231.56   51.46
   7   9  -5  332.15   61.39
  -7  -9   4  493.76   73.80
   7   9  -4  467.53   71.25
   7   9  -3  780.29   94.86
  -7  -9   3  828.14   96.53
  -7  -9   2  559.83   80.53
   7   9  -2  778.00   95.58
  -7  -9   1   71.25   26.68
  -7  -9   1  126.13   38.23
   7   9  -1   58.21   28.53
  -7 -10   6  577.21   82.59
   7  10  -6  590.41   85.94
  -7 -10   5  296.73   59.63
   7  10  -5  253.61   57.08
  -8   9   2  579.71   93.87
  -8   9   1  642.46   98.73
   8  -9  -1  460.79   71.75
  -8   9   0  660.87   98.80
   8  -9   0  774.98   93.12
  -8   9  -1  569.05   89.72
   8  -9   1  553.21   78.19
  -8   9  -2  570.79   88.06
   8  -9   2  581.63   80.48
  -8   9  -3   51.63   30.30
   8  -9   3  122.34   36.67
  -8   9  -4   15.17   21.18
   8  -9   4   30.72   24.94
  -8   9  -5  247.22   58.51
  -8   8   4  474.52   83.66
  -8   8   3 1373.77  141.92
   8  -8  -3 1081.99  107.95
  -8   8   2  790.32  105.18
   8  -8  -2  702.04   86.71
  -8   8   1  861.89  109.94
   8  -8  -1  740.12   87.66
  -8   8   0  215.32   54.09
   8  -8   0  199.57   45.41
  -8   8  -1   23.01   21.46
   8  -8   1    5.88   13.23
  -8   8  -2  192.64   48.79
   8  -8   2  136.16   39.53
  -8   8  -3  444.28   80.10
   8  -8   3  476.99   70.87
  -8   8  -4  739.93   96.91
   8  -8   4  584.23   77.96
  -8   8  -5 1761.23  152.49
   8  -8   5 1744.61  140.51
  -8   8  -6 1032.30  113.60
  -8   7   5 1193.56  130.00
   8  -7  -4  768.84   87.25
  -8   7   4  825.86  106.82
  -8   7   3  417.92   76.01
   8  -7  -3  430.74   63.72
  -8   7   2  109.47   38.52
   8  -7  -2   93.65   31.32
  -8   7   1   45.82   29.99
   8  -7  -1   65.80   26.58
  -8   7   0  345.60   66.92
   8  -7   0  294.87   52.54
  -8   7  -1 1285.89  128.23
   8  -7   1 1224.24  110.87
  -8   7  -2 1579.11  141.73
   8  -7   2 1461.84  123.26
  -8   7  -3 1022.47  111.72
   8  -7   3  958.09   98.13
  -8   7  -4  245.86   53.63
   8  -7   4  289.78   53.27
  -8   7  -5  101.95   35.15
   8  -7   5   29.91   19.97
  -8   7  -6  -34.74   21.80
  -8   7  -6   16.40   17.73
  -8   7  -7  166.58   44.13
  -8   7  -7  193.62   46.93
   8  -6  -7 1048.56  135.08
  -8   6   7  956.02   95.45
   8  -6  -6 1076.04  132.70
   8  -6  -6 1087.54  101.72
   8  -6  -5  379.46   74.93
  -8   6   5  228.80   56.20
   8  -6  -5  416.03   60.79
   8  -6  -4   44.89   27.87
  -8   6   4   16.24   13.17
   8  -6  -4   32.99   19.94
  -8   6   3  501.38   79.76
   8  -6  -3  381.10   58.48
  -8   6   2  665.27   91.88
   8  -6  -2  634.72   75.58
   8  -6  -1  675.81   77.22
  -8   6   1  740.09   95.62
  -8   6   0  717.54   92.73
   8  -6   0  611.47   74.48
   8  -6   1  723.37   81.26
  -8   6  -1  767.21   94.36
  -8   6  -2  527.99   78.07
   8  -6   2  626.25   75.50
  -8   6  -3   22.71   19.28
   8  -6   3   18.08   18.63
  -8   6  -4  233.98   47.70
  -8   6  -4  214.85   48.74
   8  -6   4  233.34   46.41
   8  -6   5  742.97   83.30
  -8   6  -5  668.62   85.90
  -8   6  -5  831.61   91.53
  -8   6  -6 1142.33  112.72
  -8   6  -6 1163.88  113.51
  -8   6  -7  990.27  108.58
  -8   6  -8  802.27   99.95
   8  -5  -8  208.80   61.51
  -8   5   8  263.78   49.91
   8  -5  -7    8.21   17.50
   8  -5  -7   42.84   22.31
   8  -5  -6    1.27   21.61
  -8   5   6    9.77   19.31
   8  -5  -6    5.87   12.56
  -8   5   5   38.05   22.90
   8  -5  -5   58.69   28.89
   8  -5  -5   58.78   22.04
  -8   5   4  502.46   79.52
   8  -5  -4  438.13   59.89
   8  -5  -4  415.95   74.22
   8  -5  -3 1527.41  138.55
   8  -5  -3 1652.59  121.86
  -8   5   3 1581.99  142.97
   8  -5  -2 1213.98  116.84
   8  -5  -2 1270.10  104.32
  -8   5   2 1031.94  112.89
  -8   5   1  407.40   68.11
   8  -5  -1  400.57   57.25
  -8   5   0  123.20   41.09
   8  -5   0   83.12   27.76
  -8   5  -1   59.09   27.82
   8  -5   1   83.00   27.50
  -8   5  -2  475.30   72.40
   8  -5   2  469.31   65.34
  -8   5  -2  568.82   66.94
   8  -5   3 1080.95  100.15
  -8   5  -3  954.07  101.30
  -8   5  -3  989.27   94.71
   8  -5   4 1333.21  112.15
  -8   5  -4 1388.60  122.95
  -8   5  -4 1541.15  123.90
   8  -5   5 1858.72  130.50
  -8   5  -5 1624.92  133.10
  -8   5  -5 1468.32  127.77
  -8   5  -6 1674.42  131.50
  -8   5  -6 1416.12  128.40
  -8   5  -7  292.33   59.32
   8  -5   7  245.43   49.66
  -8   5  -8    1.24   20.66
   8  -5   8   -6.26   18.66
   8  -4  -8  162.87   52.96
   8  -4  -8  133.97   32.61
  -8   4   8   39.35   20.44
   8  -4  -7  469.35   86.38
   8  -4  -7  658.85   72.18
   8  -4  -6 1185.28   97.10
  -8   4   6  934.98  107.70
   8  -4  -6 1129.66  129.84
   8  -4  -5  921.90   86.54
  -8   4   5 1133.65  117.71
   8  -4  -5 1117.84  123.35
   8  -4  -4  909.74   86.19
  -8   4   4  963.98  108.10
   8  -4  -4 1070.70  115.34
   8  -4  -3  188.07   46.38
  -8   4   3  146.34   41.31
   8  -4  -3  260.25   44.87
  -8   4   2    2.21   18.03
   8  -4  -2   22.93   16.81
   8  -4  -2  -17.15   18.22
  -8   4   1   25.69   21.73
   8  -4  -1   52.71   23.28
   8  -4  -1   42.47   19.29
   8  -4   0  915.62   88.78
  -8   4   0  884.95   98.00
  -8   4   0  900.06   76.55
   8  -4   1 2880.14  171.33
  -8   4  -1 2775.04  183.14
  -8   4  -1 2822.82  160.48
   8  -4   2 2292.82  149.51
  -8   4  -2 2159.85  158.57
  -8   4  -2 2463.59  152.93
   8  -4   3 1145.14  100.16
  -8   4  -3 1110.37  107.35
  -8   4  -3 1346.60  112.27
  -8   4  -4  409.21   63.45
  -8   4  -4  487.22   67.93
   8  -4   4  417.10   58.24
  -8   4  -5   64.82   27.53
  -8   4  -5   40.50   19.69
   8  -4   5   21.64   14.90
  -8   4  -6   -1.27   18.44
  -8   4  -6   37.58   19.36
   8  -4   6   23.78   20.76
  -8   4  -7  219.03   51.90
   8  -4   7  121.10   34.54
  -8   4  -8  471.29   77.71
   8  -4   8  571.67   79.00
   8  -3  -9  599.43  102.84
  -8   3   9  599.79   74.38
   8  -3  -8 1059.90   89.98
   8  -3  -8 1051.69  132.68
   8  -3  -7  570.85   94.45
   8  -3  -7  896.87   80.76
  -8   3   7  769.35   90.90
   8  -3  -6  969.94   85.67
   8  -3  -6  882.67  112.45
  -8   3   6  985.54  106.81
   8  -3  -5  260.08   58.86
  -8   3   5  344.77   63.19
   8  -3  -5  273.29   44.75
   8  -3  -4  105.56   36.01
  -8   3   4  130.20   40.69
   8  -3  -4  148.99   34.50
   8  -3  -3  720.83   74.76
  -8   3   3  728.33   91.60
   8  -3  -3  830.95   93.21
   8  -3  -2 1332.93  106.37
  -8   3   2 1420.39  127.26
   8  -3  -2 1402.62  117.36
   8  -3  -1 1323.03  107.70
   8  -3  -1 1399.30  110.05
  -8   3   1 1233.43  117.80
  -8   3   1 1562.37   99.70
   8  -3   0 2102.17  129.97
   8  -3   0 2078.60  138.73
  -8   3   0 1978.38  149.14
  -8   3   0 2067.14  128.98
   8  -3   1  922.59   88.01
  -8   3  -1 1068.41  103.93
  -8   3  -1 1038.09   92.56
  -8   3  -2  397.33   61.62
   8  -3   2  428.00   58.85
  -8   3  -2  461.64   64.07
  -8   3  -3   92.53   29.59
  -8   3  -3   65.06   27.50
   8  -3   3   64.37   24.55
   8  -3   4  587.20   67.93
  -8   3  -4  642.58   77.18
  -8   3  -4  609.66   78.12
   8  -3   5  907.49   86.02
   8  -3   5  917.74   95.09
  -8   3  -5 1067.57   95.85
  -8   3  -5  929.98  100.22
   8  -3   6 1218.57  113.81
  -8   3  -6 1059.57  111.73
   8  -3   7 1103.30  111.22
  -8   3  -7  976.38  109.42
   8  -3   8 1013.29  110.29
  -8   3  -8  924.46  109.38
  -8   2  10 1225.39  110.31
   8  -2 -10 1050.16  138.88
  -8   2   9  611.20   73.73
   8  -2  -9  596.16   99.45
   8  -2  -8  116.99   28.54
   8  -2  -8  142.58   47.26
  -8   2   7    8.39   14.38
   8  -2  -7   16.16   13.55
   8  -2  -7   -6.74   17.57
  -8   2   6   41.26   19.91
   8  -2  -6  116.05   28.68
   8  -2  -6   34.46   24.04
   8  -2  -5  639.56   86.76
   8  -2  -5  565.71   63.90
  -8   2   5  643.16   86.79
   8  -2  -4 1375.12  103.70
   8  -2  -4 1303.49  120.39
  -8   2   4 1228.40  121.17
   8  -2  -3 1996.11  133.08
   8  -2  -3 2042.36  148.35
  -8   2   3 2065.41  159.17
  -8   2   3 2207.57  111.07
   8  -2  -2 2358.99  149.05
  -8   2   2 2289.07  168.17
   8  -2  -2 2579.28  159.78
  -8   2   2 2630.37  133.58
   8  -2  -1  574.20   68.19
  -8   2   1  561.76   76.18
  -8   2   1  678.45   66.21
   8  -2  -1  744.42   74.27
   8  -2   0   35.50   16.11
  -8   2   0    2.36   10.11
  -8   2   0    8.66   12.21
   8  -2   0   12.91   13.94
  -8   2  -1  484.59   68.31
   8  -2   1  493.35   62.64
  -8   2  -1  511.98   65.57
   8  -2   2  611.37   70.22
  -8   2  -2  607.18   75.65
  -8   2  -2  804.10   86.35
   8  -2   3 1243.49  103.06
  -8   2  -3 1481.33  117.04
  -8   2  -3 1232.11  112.81
   8  -2   4 2047.29  137.53
   8  -2   4 2460.47  159.08
  -8   2  -4 1953.15  137.70
  -8   2  -4 2370.88  162.86
   8  -2   5 1751.11  124.32
   8  -2   5 1945.75  145.66
  -8   2  -5 2037.55  132.54
  -8   2  -5 1594.58  137.80
   8  -2   6 1440.26  109.92
   8  -2   6 1557.53  133.25
  -8   2  -6 1410.65  131.32
  -8   2  -7  330.75   63.00
   8  -2   7  309.05   60.38
  -8   2  -8   -4.22   19.73
   8  -2   8   40.59   25.19
   8  -1 -10  162.29   52.35
  -8   1  10   30.10   21.38
   8  -1  -9   -0.13   15.78
   8  -1  -8  317.76   68.63
  -8   1   8  280.19   51.40
   8  -1  -8  348.73   46.26
   8  -1  -7 1119.34  123.97
   8  -1  -7 1015.60   84.17
  -8   1   7 1030.77  103.95
   8  -1  -6 2009.86  163.68
   8  -1  -6 2482.66  139.47
  -8   1   6 2009.95  155.40
   8  -1  -5 1484.17  131.03
   8  -1  -5 1497.08  108.42
  -8   1   5 1677.24  139.20
  -8   1   4  206.89   49.23
   8  -1  -4  281.87   52.89
   8  -1  -4  314.86   48.32
  -8   1   4  341.74   38.45
  -8   1   3  175.54   29.98
  -8   1   3  201.51   47.58
   8  -1  -3  144.14   33.96
   8  -1  -3  162.47   37.20
  -8   1   2  120.27   26.73
  -8   1   2   61.61   26.29
   8  -1  -2   95.97   27.56
   8  -1  -2   95.02   27.53
   8  -1  -1  643.06   71.07
   8  -1  -1  744.72   71.38
  -8   1   1  602.20   79.53
  -8   1   1  715.39   71.05
   8  -1   0 1845.00  129.13
  -8   1   0 1937.70  144.88
  -8   1   0 2120.22  137.90
   8  -1   0 2033.62  118.31
  -8   1  -1 3358.47  195.42
  -8   1  -1 3411.71  192.45
  -8   1  -2 2232.59  148.79
  -8   1  -2 2126.60  151.08
   8  -1   3 1715.45  128.46
  -8   1  -3 1497.14  116.06
  -8   1  -3 1469.45  126.00
  -8   1  -4  444.50   57.63
  -8   1  -4  542.22   74.64
   8  -1   4  365.08   60.17
  -8   1  -5  221.25   52.01
   8  -1   5  213.34   52.23
  -8   1  -6   -4.08   14.17
   8  -1   6   16.97   14.93
  -8   1  -7  327.44   64.50
   8  -1   7  370.25   67.04
   8  -1   8  785.34  101.20
  -8   1  -8  724.44   98.44
   8   0 -11  265.42   69.53
  -8   0  11  231.38   47.94
   8   0 -10  388.99   80.42
  -8   0  10  521.80   67.41
   8   0  -9  573.11   93.09
   8   0  -8  942.97  113.79
   8   0  -8  858.45   73.93
  -8   0   8  934.02   95.45
   8   0  -7  813.08  100.99
   8   0  -7  769.04   71.25
  -8   0   7  663.94   82.31
   8   0  -6  591.34   82.61
   8   0  -6  660.54   67.01
  -8   0   6  608.12   80.14
   8   0  -5   17.38   18.44
  -8   0   5   21.10   22.09
   8   0  -5  -11.11   16.15
   8   0  -4  988.03   95.64
   8   0  -4  843.98   81.20
  -8   0   4  887.29  100.04
  -8   0   4  883.14   69.34
   8   0  -3 1707.48  123.62
   8   0  -3 1687.24  119.36
  -8   0   3 1808.58  146.26
  -8   0   3 1629.07  104.38
   8   0  -2 2056.59  129.23
  -8   0   2 1974.17  153.38
  -8   0   2 1949.35  122.93
   8   0  -1 1782.70  110.99
  -8   0   1 1732.70  137.60
  -8   0   1 1503.80  113.40
  -8   0   0 1832.95  138.59
  -8   0   0 1882.31  133.21
  -8   0  -1 1453.16  115.82
  -8   0  -1 1248.38  111.00
   8   0   2  432.24   62.89
  -8   0  -2  525.62   66.08
  -8   0  -2  546.93   74.00
  -8   0  -3  -10.73   21.16
  -8   0  -3    9.93   12.57
   8   0   3   -8.89   20.71
   8   0   4  683.05   84.25
  -8   0  -4  567.94   79.11
  -8   0  -4  581.61   65.33
   8   0   5 1146.37  113.79
  -8   0  -5 1151.93  115.58
   8   0   6 1210.21  120.32
  -8   0  -6  999.78  111.67
   8   0   7  751.98   97.91
  -8   0  -7  719.15   95.39
   8   1 -11  846.66  123.35
  -8  -1  11 1121.84  101.91
   8   1 -10 1045.13  130.00
  -8  -1  10  962.77   91.07
   8   1  -9  640.60   96.60
  -8  -1   9  583.47   73.01
   8   1  -8   -6.87   18.74
  -8  -1   8   14.11   14.11
   8   1  -8   -4.63    8.40
   8   1  -7   98.41   37.45
  -8  -1   7   66.11   26.07
   8   1  -7  136.35   29.11
   8   1  -6  195.91   46.26
  -8  -1   6  209.30   45.86
   8   1  -6  279.43   44.61
   8   1  -5 1683.77  134.46
   8   1  -5 1731.43  120.79
  -8  -1   5 2031.50  151.52
   8   1  -4 1779.90  130.33
   8   1  -4 1745.29  121.95
  -8  -1   4 1846.46  146.53
  -8  -1   4 1750.44  108.73
   8   1  -3 2173.47  139.65
  -8  -1   3 2563.13  173.18
  -8  -1   3 2107.17  127.80
   8   1  -2 1740.16  113.95
  -8  -1   2 1768.15  141.20
  -8  -1   2 1657.47  115.36
   8   1  -1  735.61   64.36
  -8  -1   1  704.26   84.06
  -8  -1   1  601.23   70.56
  -8  -1   0   10.04   14.96
  -8  -1   0  -23.55   17.99
  -8  -1  -1  580.10   70.74
  -8  -1  -1  506.03   70.81
   8   1   2  751.23   83.83
  -8  -1  -2  762.13   89.53
  -8  -1  -2  818.53   81.42
   8   1   3 1400.65  120.90
  -8  -1  -3 1442.14  128.22
  -8  -1  -3 1463.73  108.89
   8   1   4 1323.19  121.35
  -8  -1  -4 1461.08  130.85
   8   1   5 1607.85  138.95
  -8  -1  -5 1560.79  138.76
   8   1   6  800.82   99.46
  -8  -1  -6  722.10   94.71
  -8  -1  -7   25.69   18.08
   8   1   7   72.07   30.48
   8   2 -11  419.55   86.05
  -8  -2  11  426.33   60.48
   8   2 -10   38.02   28.43
   8   2 -10   24.16   15.27
  -8  -2   9  243.92   46.87
   8   2  -9  159.67   47.90
  -8  -2   8  686.56   82.46
   8   2  -8  730.72   96.81
   8   2  -7 1271.97  125.01
   8   2  -7 1375.07  100.73
  -8  -2   7 1336.99  119.45
   8   2  -6 2076.24  153.35
   8   2  -6 1958.60  129.20
  -8  -2   6 1857.21  145.83
   8   2  -5 1020.30  100.26
  -8  -2   5 1099.75  108.34
  -8  -2   4  208.03   35.67
  -8  -2   4  218.83   46.58
   8   2  -4  181.85   38.03
  -8  -2   3   72.52   23.59
  -8  -2   3   84.51   32.03
   8   2  -3   42.35   18.21
   8   2  -2   18.92   13.11
  -8  -2   2   -8.13   12.27
  -8  -2   2    7.42   19.74
  -8  -2   1  496.48   65.80
  -8  -2   1  608.68   76.02
  -8  -2   0 1923.83  142.29
  -8  -2   0 2098.81  144.74
   8   2   1 2569.40  165.63
  -8  -2  -1 2935.04  185.74
  -8  -2  -1 3045.86  174.28
   8   2   2 1888.34  139.05
  -8  -2  -2 1777.78  145.05
  -8  -2  -2 1865.60  128.04
   8   2   3  664.56   82.88
  -8  -2  -3  709.48   91.05
  -8  -2  -3  762.78   74.98
  -8  -2  -4  344.03   63.96
   8   2   4  304.88   58.13
  -8  -2  -5  188.02   48.06
   8   2   5  136.80   42.96
  -8  -2  -6   29.22   21.93
   8   2   6  -34.96   25.59
  -8  -3  11  573.73   69.62
   8   3 -11  660.30   73.22
   8   3 -11  562.82   98.74
  -8  -3  10 1017.26   97.91
   8   3 -10  936.63  121.90
   8   3 -10  947.28   86.41
  -8  -3   9  763.90   85.70
   8   3  -9  558.74   89.69
  -8  -3   8  671.03   81.36
   8   3  -8  550.75   84.23
  -8  -3   7  547.16   75.30
   8   3  -7  704.84   89.78
   8   3  -7  702.20   72.20
   8   3  -6  469.79   69.50
  -8  -3   6  496.45   70.69
   8   3  -5   20.34   17.63
  -8  -3   5   35.67   23.29
   8   3  -4  488.71   62.17
  -8  -3   4  565.72   62.37
  -8  -3   4  505.24   71.99
   8   3  -3 1658.86  113.84
  -8  -3   3 1571.33  114.56
  -8  -3   3 1667.45  133.69
   8   3  -2 1725.42  112.37
   8   3  -2 1990.32  109.69
  -8  -3   2 1858.45  130.76
  -8  -3   2 2170.12  150.82
   8   3  -1 1899.92  109.84
  -8  -3   1 1733.60  131.32
  -8  -3   1 1906.25  140.12
   8   3   0 1932.52  116.12
  -8  -3   0 1917.70  144.21
  -8  -3   0 2073.65  143.05
  -8  -3  -1 1240.96  104.02
   8   3   1 1171.45   89.79
   8   3   1 1032.70   98.83
  -8  -3  -1 1174.77  113.51
  -8  -3  -2  531.88   64.63
  -8  -3  -2  493.30   75.37
   8   3   2  516.27   60.09
   8   3   2  579.35   75.36
  -8  -3  -3   -1.44   15.40
   8   3   3   -8.39   19.84
  -8  -3  -4  457.58   73.90
   8   3   4  451.26   70.64
   8   3   5  775.64   96.11
  -8  -3  -5  675.95   91.75
   8   4 -11 1206.73  143.23
   8   4 -11 1150.76  102.04
  -8  -4  10  737.68   85.34
   8   4 -10  699.18  103.25
   8   4 -10  801.89   81.54
  -8  -4   9  201.23   41.71
   8   4  -9  284.46   62.53
  -8  -4   9  246.02   48.47
  -8  -4   8    6.99   12.02
   8   4  -8   -0.82   13.20
  -8  -4   8   -2.23   14.73
   8   4  -7  193.35   48.57
  -8  -4   7  209.88   47.42
   8   4  -6  657.14   80.70
  -8  -4   6  595.35   78.31
   8   4  -5 1546.39  122.73
  -8  -4   5 1454.54  126.71
   8   4  -5 1656.54  104.29
  -8  -4   4 2538.80  172.53
   8   4  -4 2498.40  155.17
   8   4  -4 2849.25  142.58
  -8  -4   4 2458.07  150.07
  -8  -4   3 2714.64  176.86
   8   4  -3 3293.41  164.28
   8   4  -3 2653.95  141.89
  -8  -4   3 2296.39  151.69
  -8  -4   2 1647.46  131.87
   8   4  -2 1826.14  112.44
  -8  -4   2 1610.49  124.79
  -8  -4   1  411.20   62.21
   8   4  -1  399.17   51.04
  -8  -4   1  369.60   59.64
  -8  -4   0    3.31   16.65
   8   4   0   14.99   10.76
  -8  -4   0   18.50   14.80
  -8  -4  -1  108.72   35.17
   8   4   1  162.57   34.92
  -8  -4  -1  144.92   35.35
   8   4   1  155.10   37.66
  -8  -4  -2  543.88   65.30
   8   4   2  526.95   65.18
   8   4   2  653.41   80.40
  -8  -4  -2  674.83   76.33
  -8  -4  -2  657.70   87.63
   8   4   3  812.88   93.98
  -8  -4  -3 1018.90  111.68
  -8  -4  -3  805.63   83.38
   8   4   4  841.30   99.02
  -8  -4  -4  893.55  106.68
  -8  -4  -5  624.40   90.65
   8   4   5  709.40   92.62
   8   5 -11  105.87   44.58
  -8  -5  11   62.79   26.17
   8   5 -11   45.20   21.63
   8   5 -10  -43.72   28.78
  -8  -5  10   20.83   17.79
  -8  -5   9  370.53   58.38
   8   5  -9  314.18   67.09
  -8  -5   9  353.97   60.12
   8   5  -8 1415.74  137.19
  -8  -5   8 1252.14  117.86
  -8  -5   8 1418.16  118.57
  -8  -5   7 2412.14  166.69
   8   5  -7 2369.18  144.22
  -8  -5   7 2070.64  151.16
   8   5  -7 2209.84  168.05
  -8  -5   6 1998.10  153.38
   8   5  -6 2255.44  135.83
  -8  -5   6 1960.89  147.56
   8   5  -6 2227.89  159.47
  -8  -5   5  872.47   96.69
   8   5  -5  980.52   83.01
  -8  -5   5  929.45   97.49
   8   5  -5  851.18   90.57
  -8  -5   4  394.21   56.45
  -8  -5   4  397.85   63.89
   8   5  -4  462.05   55.95
  -8  -5   4  468.46   68.75
   8   5  -4  435.77   59.70
  -8  -5   3   70.67   24.84
  -8  -5   3  105.99   34.04
   8   5  -3  117.90   28.69
  -8  -5   3   58.78   26.25
  -8  -5   2   26.13   21.26
  -8  -5   2   39.99   23.72
   8   5  -2   48.71   17.07
  -8  -5   2   53.98   25.08
  -8  -5   1  414.59   65.34
  -8  -5   1  406.99   63.52
   8   5  -1  503.02   60.98
  -8  -5   1  474.94   67.14
  -8  -5   0 1152.94  105.59
   8   5   0 1218.41  102.41
  -8  -5   0 1166.56  109.78
  -8  -5   0 1512.38  128.86
  -8  -5  -1 1735.45  126.22
   8   5   1 1418.99  116.29
   8   5   1 1687.32  130.28
  -8  -5  -1 1546.70  137.89
  -8  -5  -1 1718.03  132.34
   8   5   2 1229.45  109.28
   8   5   2 1562.86  127.95
  -8  -5  -2 1342.38  131.71
  -8  -5  -2 1472.94  119.02
  -8  -5  -3  320.56   61.81
   8   5   3  217.86   45.97
   8   5   3  279.56   54.67
  -8  -5  -4   93.07   36.82
   8   5   4   54.90   29.03
   8   6 -11  632.65  102.43
  -8  -6  11  536.34   74.39
   8   6 -11  504.33   70.43
   8   6 -10 1150.98  134.93
  -8  -6  10  933.16  101.32
  -8  -6   9  696.56   88.05
   8   6  -9  936.85   96.45
  -8  -6   9  907.94   94.77
   8   6  -9  954.48  117.65
  -8  -6   8  898.15   99.29
   8   6  -8 1022.85   96.35
  -8  -6   8  803.60   90.75
   8   6  -8  861.50  107.09
  -8  -6   7  860.43   97.27
   8   6  -7 1014.32   93.09
   8   6  -7  890.85  104.30
  -8  -6   7  737.34   87.54
   8   6  -6  148.11   40.15
  -8  -6   6  138.74   39.66
   8   6  -6  156.25   34.40
  -8  -6   6  177.70   45.12
   8   6  -5   10.87   17.59
  -8  -6   5   20.37   16.21
   8   6  -5    2.99   11.11
  -8  -6   5    2.25   13.82
   8   6  -4  536.71   65.01
  -8  -6   4  509.66   73.56
   8   6  -4  496.06   66.53
  -8  -6   4  570.46   77.28
  -8  -6   4  433.35   62.39
  -8  -6   3 1317.08  120.08
   8   6  -3 1459.20  112.69
  -8  -6   3 1550.94  130.13
  -8  -6   3 1229.20  110.72
  -8  -6   2 1643.38  133.68
   8   6  -2 1607.84  122.18
  -8  -6   2 1708.91  137.99
  -8  -6   2 1689.15  133.54
  -8  -6   1 1403.14  119.25
   8   6  -1 1314.33  110.51
  -8  -6   1 1225.70  115.97
  -8  -6   1 1214.92  115.14
  -8  -6   0  948.18   94.50
   8   6   0  954.94   94.33
  -8  -6   0  817.05   96.35
  -8  -6   0  770.08   89.91
  -8  -6  -1  549.75   80.49
  -8  -6  -1  632.88   74.06
   8   6   1  423.89   63.84
   8   6   1  544.14   71.86
  -8  -6  -1  590.86   76.68
  -8  -6  -2   25.47   22.67
  -8  -6  -2    5.29   16.29
   8   6   2   13.88   18.12
   8   6   2   10.31   14.47
  -8  -6  -3   11.48   22.15
   8   6   3   67.52   28.35
   8   6   3   83.95   31.78
  -8  -7  10  648.33   84.33
   8   7 -10  515.46   90.83
   8   7 -10  511.37   76.81
  -8  -7  10  568.96   75.32
   8   7  -9   85.68   38.65
  -8  -7   9  142.17   38.93
   8   7  -9  149.85   41.36
  -8  -7   9  124.57   37.71
   8   7  -8    3.34   13.54
  -8  -7   8   34.11   21.55
   8   7  -8    2.98   14.01
  -8  -7   8   12.16   12.90
   8   7  -7  323.74   64.05
  -8  -7   7  251.46   53.09
   8   7  -7  323.14   55.62
  -8  -7   7  279.71   56.51
  -8  -7   6  915.76  102.81
   8   7  -6  949.50   93.92
   8   7  -6  803.43   98.34
  -8  -7   6  924.81  100.84
  -8  -7   5 1306.47  122.06
   8   7  -5 1162.56  105.75
  -8  -7   5 1067.13  110.87
  -8  -7   4 1710.31  141.96
   8   7  -4 2021.84  140.87
  -8  -7   4 1464.29  133.37
  -8  -7   3 1255.08  119.61
   8   7  -3 1507.18  122.06
  -8  -7   3 1624.99  136.11
  -8  -7   3 1197.54  112.15
  -8  -7   2  691.39   85.22
   8   7  -2  635.76   79.50
  -8  -7   2  649.94   85.30
  -8  -7   2  689.37   84.13
  -8  -7   1   27.59   14.54
  -8  -7   1   60.98   25.77
   8   7  -1   87.40   28.51
  -8  -7   1  105.81   35.71
  -8  -7   0   42.78   24.63
  -8  -7   0   57.66   27.16
   8   7   0   26.28   17.56
  -8  -7   0   33.23   18.58
  -8  -7  -1  195.33   50.84
  -8  -7  -1  167.46   42.01
   8   7   1  169.08   44.33
   8   8  -9  387.17   76.21
  -8  -8   9  368.23   62.86
   8   8  -9  378.98   66.22
  -8  -8   9  308.81   59.96
  -8  -8   8  861.24  102.69
   8   8  -8  947.43  103.04
   8   8  -8  792.10  107.67
  -8  -8   8  841.59   97.31
  -8  -8   7 1797.38  152.53
   8   8  -7 1872.13  147.37
  -8  -8   7 1887.12  151.86
  -8  -8   6 1177.91  120.60
   8   8  -6 1587.31  130.01
  -8  -8   6 1085.75  115.10
  -8  -8   5  509.16   76.67
   8   8  -5  495.79   70.59
  -8  -8   5  444.45   71.84
  -8  -8   4  158.29   43.10
   8   8  -4  160.03   40.89
  -8  -8   4   87.98   30.07
  -8  -8   3   57.87   28.12
   8   8  -3   31.93   17.73
  -8  -8   3   61.89   28.82
  -8  -8   2   36.31   22.19
  -8  -8   2    0.96   18.55
   8   8  -2   24.94   16.21
  -8  -8   2   -3.29   15.40
  -8  -8   1  303.61   59.33
  -8  -8   1  362.57   64.84
   8   8  -1  321.56   59.02
  -8  -8   1  347.68   60.24
  -8  -9   7  503.09   77.63
   8   9  -7  717.21   91.57
  -8  -9   7  430.71   74.34
  -8  -9   6   51.55   26.68
   8   9  -6   38.93   24.58
  -8  -9   6   37.51   26.53
  -8  -9   5   40.90   23.95
   8   9  -5   17.46   14.81
  -8  -9   5   45.63   24.14
  -8  -9   4  218.77   51.55
   8   9  -4  138.64   42.87
  -8  -9   4  212.06   51.30
   9  -8  -2 1197.48  118.32
  -9   8   2 1099.17  130.15
  -9   8   1  617.63   95.84
   9  -8  -1  710.44   89.64
  -9   8   0  983.83  118.02
   9  -8   0  925.41  104.10
  -9   8  -1  889.22  113.46
   9  -8   1  743.87   92.09
  -9   8  -2  570.65   89.51
   9  -8   2  519.10   77.36
  -9   8  -3  131.99   45.75
   9  -8   3  120.12   38.24
  -9   8  -4  159.77   47.14
   9  -8   4  179.43   46.90
   9  -7  -4 1344.31  121.06
  -9   7   4 1128.41  129.65
   9  -7  -3 1720.21  140.60
  -9   7   3 1882.74  168.78
   9  -7  -2 1513.89  129.23
  -9   7   2 1306.86  138.41
  -9   7   1  550.50   87.10
   9  -7  -1  604.04   79.49
  -9   7   0   51.92   28.93
   9  -7   0   94.89   31.52
  -9   7  -1   47.85   24.45
   9  -7   1   23.64   18.56
  -9   7  -2  233.73   56.88
   9  -7   2  241.56   49.88
  -9   7  -3  652.63   91.07
   9  -7   3  681.83   85.90
  -9   7  -4  654.33   90.72
   9  -7   4  685.49   85.43
  -9   7  -5  703.15   93.32
   9  -6  -6 1560.17  162.11
   9  -6  -6 1691.79  134.42
   9  -6  -5 1025.49  126.48
   9  -6  -5 1165.52  110.10
  -9   6   5 1173.25  128.85
   9  -6  -4  735.09  103.63
  -9   6   4  710.92  100.03
   9  -6  -4  784.31   89.86
  -9   6   3  265.44   60.22
   9  -6  -3  375.47   61.93
  -9   6   2   76.08   33.35
   9  -6  -2   -4.99   12.63
  -9   6   1   92.20   35.63
   9  -6  -1   68.23   25.21
  -9   6   0  468.23   77.37
   9  -6   0  554.26   74.42
   9  -6   1 1055.07  106.80
  -9   6  -1 1164.78  121.67
   9  -6   2 1367.84  121.54
  -9   6  -2 1170.91  122.39
  -9   6  -3  589.63   83.67
   9  -6   3  625.89   79.34
  -9   6  -4   42.12   24.63
   9  -6   4   49.32   26.34
  -9   6  -5   18.46   17.35
  -9   6  -5    0.29   16.32
   9  -6   5   34.06   20.04
  -9   6  -6  130.85   40.29
  -9   6  -6  117.25   35.60
   9  -5  -7  743.28  111.51
   9  -5  -7  809.09   87.76
  -9   5   6  402.52   72.08
   9  -5  -6  386.66   78.35
   9  -5  -6  477.31   67.17
  -9   5   5  153.26   45.39
   9  -5  -5  149.97   37.76
   9  -5  -5  195.09   53.48
   9  -5  -4  114.90   40.71
  -9   5   4  124.00   44.78
   9  -5  -4   35.11   20.93
   9  -5  -3  908.56  106.73
   9  -5  -3 1019.94   98.87
  -9   5   3  990.01  114.60
   9  -5  -2  870.59   98.64
   9  -5  -2 1022.41   99.46
  -9   5   2  849.63  104.45
   9  -5  -1  613.12   76.48
  -9   5   1  627.53   88.52
   9  -5   0  775.59   87.01
  -9   5   0  727.15   94.30
   9  -5   1  885.58   93.67
  -9   5  -1  711.71   93.09
  -9   5  -2  242.94   53.83
   9  -5   2  191.71   44.11
  -9   5  -3   21.59   16.68
  -9   5  -3   16.63   17.03
   9  -5   3  -16.55   15.75
  -9   5  -4  517.49   72.23
  -9   5  -4  429.32   68.83
   9  -5   4  490.74   68.85
   9  -5   5 1266.45  111.19
  -9   5  -5 1455.81  127.86
  -9   5  -5 1458.51  128.19
  -9   5  -6  983.40  108.16
  -9   5  -7  363.63   66.71
   9  -4  -8   60.50   24.77
   9  -4  -8   80.87   38.06
  -9   4   7  103.22   33.77
   9  -4  -7   47.24   22.24
   9  -4  -7   36.56   30.08
  -9   4   6  218.35   53.21
   9  -4  -6  225.24   44.86
   9  -4  -6  110.36   39.80
  -9   4   5  576.60   87.53
   9  -4  -5  652.63   76.31
   9  -4  -5  736.54  100.86
   9  -4  -4 1224.04  107.37
  -9   4   4 1337.60  133.04
   9  -4  -4 1281.14  128.14
   9  -4  -3 1687.78  141.02
   9  -4  -3 1324.87  114.10
  -9   4   3 1513.05  140.12
   9  -4  -2  972.35  100.41
   9  -4  -2  738.50   83.94
  -9   4   2  998.23  109.35
   9  -4  -1  618.37   76.38
  -9   4   1  412.04   69.64
   9  -4  -1  481.33   65.94
  -9   4   0    9.54   17.28
   9  -4   0    4.03   13.33
  -9   4  -1  371.38   54.23
  -9   4  -1  330.17   60.32
   9  -4   1  382.78   58.45
  -9   4  -2  435.29   62.60
  -9   4  -2  457.71   70.22
   9  -4   2  406.22   61.27
   9  -4   3  897.00   91.82
  -9   4  -3  993.16  102.99
  -9   4  -3  856.53   91.95
   9  -4   4  996.18   96.01
  -9   4  -4 1025.87  104.91
  -9   4  -4 1116.24  108.41
   9  -4   5  741.56   81.13
  -9   4  -5  822.61   91.10
  -9   4  -5  812.58   94.88
  -9   4  -6  102.35   37.08
  -9   4  -7    6.75   18.77
   9  -4   7   25.50   17.35
   9  -3  -8  790.25  115.26
   9  -3  -8  827.81   82.95
   9  -3  -7 1377.75  109.49
   9  -3  -7 1291.46  143.81
  -9   3   7 1395.22  131.96
   9  -3  -6 1740.89  126.47
   9  -3  -6 1722.72  161.16
  -9   3   6 1859.18  156.56
   9  -3  -5 1024.22   94.93
   9  -3  -5 1255.02  129.34
  -9   3   5 1099.07  119.07
  -9   3   4  325.72   66.19
   9  -3  -4  400.62   68.75
   9  -3  -4  382.80   56.88
  -9   3   3  119.48   39.49
   9  -3  -3   35.46   17.40
   9  -3  -3  120.31   36.65
   9  -3  -2  135.29   36.55
  -9   3   2   75.14   33.74
   9  -3  -2   44.37   20.50
  -9   3   1  230.31   38.94
   9  -3  -1  199.86   40.92
  -9   3   1  150.38   43.63
   9  -3  -1  203.02   43.10
   9  -3   0  999.93   96.87
  -9   3   0 1314.17  121.50
  -9   3   0 1056.15   92.98
   9  -3   1 1231.44  108.42
  -9   3  -1 1398.52  124.53
  -9   3  -1 1249.31  107.32
   9  -3   2 1065.84   99.41
  -9   3  -2 1215.19  114.91
  -9   3  -2 1162.05  107.10
  -9   3  -3  299.30   54.86
  -9   3  -3  292.58   54.98
   9  -3   3  265.82   48.90
  -9   3  -4   12.48   11.73
  -9   3  -4   41.72   21.12
   9  -3   4   24.93   19.26
  -9   3  -5  103.20   35.68
  -9   3  -5   -6.17   14.18
   9  -3   5   62.33   21.78
  -9   3  -6  103.18   36.68
   9  -3   6  159.51   41.83
  -9   3  -7  404.08   70.94
   9  -3   7  451.16   71.96
   9  -2  -9 1182.91  144.35
   9  -2  -8  825.51   80.49
  -9   2   8  791.99   95.01
   9  -2  -8  725.99  107.29
   9  -2  -7 1026.39  123.23
   9  -2  -7 1010.94   90.50
  -9   2   7  891.78  104.02
   9  -2  -6  787.68   80.85
   9  -2  -6  819.67  105.98
  -9   2   6  840.81  102.32
  -9   2   5   53.97   27.70
   9  -2  -5   29.38   20.10
   9  -2  -5   98.89   36.50
   9  -2  -4  130.60   39.54
  -9   2   4   95.08   36.39
   9  -2  -4  114.65   32.09
   9  -2  -3  713.49   79.90
   9  -2  -3  959.14   98.27
  -9   2   3  852.49  101.56
   9  -2  -2  916.57   91.94
  -9   2   2  996.30  108.43
   9  -2  -2 1039.53   98.22
  -9   2   2  915.55   78.69
   9  -2  -1 1151.54  103.14
  -9   2   1  931.35  104.43
  -9   2   1 1116.61   93.68
   9  -2  -1 1251.52  100.75
   9  -2   0  640.85   65.79
   9  -2   0  653.44   76.44
  -9   2   0  825.01   94.33
  -9   2   0  814.18   82.68
  -9   2  -1  303.58   52.21
  -9   2  -1  354.06   60.82
   9  -2   1  320.10   52.02
  -9   2  -2   42.01   23.82
  -9   2  -2   56.34   27.33
   9  -2   2   44.24   20.87
  -9   2  -3  204.35   45.81
  -9   2  -3  281.58   51.12
   9  -2   3  307.28   52.01
   9  -2   4  760.62   81.29
  -9   2  -4  812.32   86.04
  -9   2  -4  741.79   90.25
   9  -2   5 1265.36  108.03
   9  -2   5 1543.16  130.28
  -9   2  -5 1305.18  125.10
   9  -2   6  943.28  104.00
  -9   2  -6  784.24   98.96
  -9   2  -7  567.58   84.80
   9  -2   7  701.71   91.71
  -9   1  10 1346.26  118.85
   9  -1 -10 1496.63  164.87
   9  -1  -9  343.73   76.54
  -9   1   8   63.21   27.26
   9  -1  -8   41.13   30.38
   9  -1  -8   93.61   28.27
  -9   1   7   13.82   15.77
   9  -1  -7   27.28   24.77
   9  -1  -7   40.45   21.17
  -9   1   6  348.50   65.43
   9  -1  -6  221.88   52.60
   9  -1  -6  156.29   36.30
  -9   1   5  564.20   83.17
   9  -1  -5  528.96   79.45
   9  -1  -5  748.71   78.65
   9  -1  -4 2071.28  152.46
   9  -1  -4 1905.28  135.84
  -9   1   4 1945.62  160.33
  -9   1   4 2069.38  116.46
   9  -1  -3 1422.75  115.31
   9  -1  -3 1634.99  127.04
  -9   1   3 1907.67  153.36
  -9   1   3 1394.68   99.39
   9  -1  -2  838.73   85.40
   9  -1  -2  740.17   78.96
  -9   1   2  854.72   99.44
  -9   1   2  815.24   76.47
  -9   1   1   39.15   22.84
  -9   1   1   47.70   27.45
   9  -1  -1   71.09   22.57
   9  -1  -1   46.98   21.95
  -9   1   0  205.72   42.37
  -9   1   0  265.03   52.42
   9  -1   0  233.63   45.90
   9  -1   1  473.71   64.40
  -9   1  -1  651.05   80.29
  -9   1  -1  619.82   76.64
  -9   1  -2  723.27   84.44
  -9   1  -2 1005.96  102.25
  -9   1  -3  939.30   92.42
  -9   1  -3  902.78   99.68
   9  -1   4 1194.09  113.46
  -9   1  -4 1146.00  101.01
  -9   1  -4 1364.84  125.43
   9  -1   5  990.67  105.48
  -9   1  -5  780.74   96.73
  -9   1  -6  392.96   69.41
   9  -1   6  408.61   69.92
   9   0 -10   43.30   26.21
   9   0  -9  161.84   50.09
  -9   0   9  222.95   48.28
   9   0  -8  739.83  103.45
   9   0  -8  927.94   82.97
  -9   0   8  687.53   87.97
   9   0  -7 1146.95  126.08
   9   0  -7 1296.56  102.98
  -9   0   7 1442.93  131.24
   9   0  -6 1554.80  140.22
   9   0  -6 1592.98  118.43
  -9   0   6 1672.41  145.00
   9   0  -5  916.94  100.69
   9   0  -5 1023.21   94.37
  -9   0   5 1092.47  115.69
  -9   0   4  213.98   36.71
   9   0  -4  215.95   46.02
  -9   0   4  180.72   48.31
   9   0  -4  289.73   49.47
  -9   0   3   38.05   18.52
  -9   0   3   80.72   32.64
   9   0  -3   50.18   22.29
   9   0  -3   57.98   25.17
  -9   0   2   64.67   24.94
  -9   0   2   54.37   24.61
   9   0  -2   31.01   16.20
   9   0  -2   56.41   20.48
  -9   0   1  598.85   81.62
  -9   0   1  499.48   65.76
  -9   0   0 1577.58  129.97
  -9   0   0 1465.75  121.73
  -9   0  -1 1807.73  136.53
  -9   0  -1 1701.79  135.98
  -9   0  -2 1472.33  119.69
  -9   0  -2 1553.30  132.99
  -9   0  -3  277.84   55.96
  -9   0  -3  423.30   59.25
   9   0   3  314.27   56.17
  -9   0  -4    9.39   17.70
   9   0   4   -6.06   16.54
  -9   0  -5   40.41   26.06
   9   0   5   16.26   14.88
  -9   0  -6  255.69   57.31
   9   0   6  199.52   51.33
   9   1 -10  973.00  127.40
   9   1  -9 1041.64  128.71
  -9  -1   9 1242.69  116.18
   9   1  -8  755.50  103.29
   9   1  -8  750.56   74.48
  -9  -1   8  739.88   91.32
   9   1  -7  842.08  104.16
   9   1  -7  814.53   80.64
  -9  -1   7  735.14   92.57
   9   1  -6  431.78   69.94
  -9  -1   6  351.96   64.67
   9   1  -6  340.02   52.18
   9   1  -5   12.23   20.35
  -9  -1   5    9.90   15.55
   9   1  -5   28.97   19.37
   9   1  -4 1154.96  103.69
   9   1  -4 1002.83   94.78
  -9  -1   4 1125.26  118.50
  -9  -1   4 1027.87   86.34
   9   1  -3 1312.52  106.15
  -9  -1   3 1380.29  130.70
  -9  -1   3 1172.33   97.65
   9   1  -2 1517.37  105.12
  -9  -1   2 1366.24  127.20
  -9  -1   2  886.93   90.10
  -9  -1   1  908.92   99.61
  -9  -1   1  820.03   87.60
  -9  -1   0  639.48   79.37
  -9  -1   0  587.35   75.76
  -9  -1  -1  298.54   57.07
  -9  -1  -1  360.12   58.17
  -9  -1  -2   -1.89   12.61
  -9  -1  -2   22.24   18.34
   9   1   3  631.78   81.82
  -9  -1  -3  713.56   90.85
  -9  -1  -3  677.64   75.02
   9   1   4 1286.37  121.09
  -9  -1  -4 1147.14  119.18
   9   1   5 1639.92  139.98
  -9  -1  -5 1358.88  133.08
   9   1   6 1185.58  123.20
  -9  -1  -6 1055.77  117.12
   9   2 -10 1407.78  154.33
   9   2  -9  162.47   53.46
  -9  -2   9  200.61   45.71
  -9  -2   8   20.43   17.93
   9   2  -8   50.32   33.15
  -9  -2   7   92.87   33.10
   9   2  -7  122.18   32.87
   9   2  -7  231.93   55.56
   9   2  -6  589.26   80.74
   9   2  -6  671.36   74.47
  -9  -2   6  564.28   82.35
   9   2  -5  797.93   89.35
   9   2  -5  845.73   85.96
  -9  -2   5  723.77   94.83
   9   2  -4 1196.23  105.46
  -9  -2   4 1273.41  124.01
  -9  -2   4 1201.36   97.72
   9   2  -3  960.77   87.50
  -9  -2   3 1129.71  115.18
  -9  -2   3  900.01   88.01
  -9  -2   2  215.40   44.69
  -9  -2   2  276.34   55.34
  -9  -2   1   40.68   26.20
  -9  -2   1   -5.96   15.47
  -9  -2   0  450.14   69.45
  -9  -2   0  601.50   76.69
  -9  -2  -1  970.58  106.04
  -9  -2  -1 1175.78  105.51
   9   2   2 1138.52  110.11
  -9  -2  -2 1293.86  124.10
  -9  -2  -2 1245.80  106.04
   9   2   3 1152.52  113.53
  -9  -2  -3 1284.04  125.90
   9   2   4 1090.93  112.76
  -9  -2  -4  997.70  112.05
   9   2   5  851.65  100.63
  -9  -2  -5  619.84   89.60
  -9  -3  10   28.80   18.86
   9   3 -10   -5.74   12.67
   9   3 -10    7.04   15.87
  -9  -3   9  280.06   55.31
   9   3  -9  162.53   52.80
  -9  -3   8  664.26   87.84
   9   3  -8  685.47   95.58
  -9  -3   7 1185.61  122.12
   9   3  -7 1463.45  135.02
   9   3  -7 1354.48  110.40
  -9  -3   6  789.94   97.46
   9   3  -6  775.61   92.32
  -9  -3   5  214.82   51.10
   9   3  -5  187.25   42.48
  -9  -3   4   10.77   10.59
  -9  -3   4   25.89   22.58
   9   3  -4   17.38   14.40
  -9  -3   3   31.40   19.39
  -9  -3   3   52.90   28.69
   9   3  -3   29.13   17.01
  -9  -3   2  378.65   59.79
  -9  -3   2  376.87   63.96
  -9  -3   1  884.23   96.36
  -9  -3   1 1172.77  112.47
  -9  -3   0 1740.38  142.88
  -9  -3   0 1607.67  130.70
  -9  -3  -1 2048.90  143.47
  -9  -3  -1 1602.23  142.11
  -9  -3  -2 1224.17  103.38
   9   3   2  885.46   97.52
  -9  -3  -2  950.96  109.12
  -9  -3  -3  277.83   58.56
   9   3   3  201.61   47.54
  -9  -3  -4   17.59   21.11
   9   3   4   41.06   28.05
  -9  -4  10  683.88   86.94
   9   4 -10  722.28  107.01
  -9  -4   9  639.92   86.76
   9   4  -9  775.49  105.82
  -9  -4   9  709.44   85.54
  -9  -4   8  354.70   64.66
   9   4  -8  488.65   79.44
  -9  -4   8  427.39   68.21
   9   4  -7  495.44   76.46
  -9  -4   7  412.97   69.13
   9   4  -6   -0.44   12.34
  -9  -4   6    5.79   16.94
   9   4  -5  241.64   48.00
  -9  -4   5  260.54   56.19
  -9  -4   4  845.87   98.94
   9   4  -4  845.88   84.48
  -9  -4   4  641.84   75.99
  -9  -4   3 1723.59  141.95
  -9  -4   3 1300.74  114.62
  -9  -4   2 1435.95  127.75
  -9  -4   2 1212.12  113.42
  -9  -4   1  955.66  101.07
  -9  -4   1  657.31   86.08
  -9  -4   0  370.26   65.74
  -9  -4   0  415.41   63.90
  -9  -4  -1  183.04   48.93
  -9  -4  -1  205.56   42.99
  -9  -4  -2   -3.08   21.14
  -9  -4  -2   15.79   11.29
   9   4   2   12.27   14.91
   9   4   3  581.14   81.22
  -9  -4  -3  682.52   93.72
   9   5 -10  461.28   87.06
  -9  -5  10  443.36   71.76
  -9  -5   9   51.98   26.11
   9   5  -9   12.55   22.12
  -9  -5   9   33.49   23.84
  -9  -5   8   58.14   27.91
   9   5  -8  104.87   36.70
  -9  -5   8   95.08   34.84
  -9  -5   7  284.13   56.62
   9   5  -7  374.67   66.68
  -9  -5   7  367.58   66.71
   9   5  -6  668.93   84.49
  -9  -5   6  559.88   82.28
  -9  -5   6  641.55   85.28
   9   5  -5  865.10   90.86
  -9  -5   5  674.54   91.14
  -9  -5   5  709.16   90.82
  -9  -5   4  950.03  105.74
  -9  -5   4  846.86   99.49
  -9  -5   4  826.73   88.00
  -9  -5   3  938.99  104.83
  -9  -5   3 1094.85  112.79
  -9  -5   3  850.31   93.00
  -9  -5   2  130.90   38.67
  -9  -5   2  128.37   40.05
  -9  -5   2  148.61   40.16
  -9  -5   1   15.11   14.07
  -9  -5   1   10.59   19.16
  -9  -5   1   23.32   16.56
  -9  -5   0  224.15   52.88
  -9  -5   0  185.95   46.37
  -9  -5   0  254.87   50.24
  -9  -5  -1  970.42   95.88
  -9  -5  -1  884.89   95.98
  -9  -5  -1  795.03  101.53
   9   5   2  825.76   95.42
  -9  -5  -2  939.35  110.99
  -9  -5  -2 1038.80  101.68
  -9  -6   9  421.38   67.65
   9   6  -9  386.00   73.65
  -9  -6   9  241.58   57.22
   9   6  -8  806.18  103.59
  -9  -6   8  660.20   89.85
  -9  -6   8  620.61   84.80
   9   6  -7  984.90  109.90
  -9  -6   7  935.44  108.95
  -9  -6   7  957.21  106.68
  -9  -6   6  779.09   98.32
  -9  -6   6  726.53   93.36
   9   6  -6  839.75   95.98
  -9  -6   5   72.78   28.83
  -9  -6   5  124.05   37.41
  -9  -6   4   29.50   17.97
  -9  -6   4    5.45   20.49
  -9  -6   4   24.71   19.46
  -9  -6   3  129.41   38.85
  -9  -6   3   87.34   33.86
  -9  -6   3  107.41   36.67
  -9  -6   2  286.62   57.43
  -9  -6   2  311.44   61.07
  -9  -6   2  374.30   63.84
  -9  -6   1  947.02  101.77
  -9  -6   1  986.94  107.85
  -9  -6   1  877.06  102.82
  -9  -6   0 2127.39  154.40
  -9  -6   0 2214.98  164.19
  -9  -6   0 2036.58  164.76
  -9  -6  -1 1085.42  121.67
  -9  -6  -1 1523.46  128.95
  -9  -7   8  221.03   51.36
   9   7  -8  360.35   70.05
  -9  -7   8  245.53   55.94
  -9  -7   7  230.07   54.31
   9   7  -7  311.34   63.82
  -9  -7   7  214.17   53.50
  -9  -7   6   -5.98   14.36
   9   7  -6   13.35   16.31
  -9  -7   6   -0.63   16.64
  -9  -7   5  458.35   75.49
  -9  -7   5  401.41   70.96
  -9  -7   4 1167.53  121.92
  -9  -7   4 1197.83  124.24
  -9  -7   3 1716.84  145.87
  -9  -7   3 1511.46  140.63
  -9  -7   3 1483.11  132.64
  -9  -7   2 1331.30  124.74
   9   7  -2 1179.35  108.58
  -9  -7   2 1110.45  118.44
  -9  -7   2 1027.20  112.00
  -9  -7   1  933.85  101.41
   9   7  -1  691.63   83.46
  -9  -7   1  707.95   93.93
  -9  -7   1  817.57   99.61
  -9  -8   6 1020.11  116.73
  -9  -8   6 1055.51  117.65
  -9  -8   5  915.39  110.47
   9   8  -5 1178.44  112.99
  -9  -8   5  981.96  114.41
  -9  -8   4  971.19  110.81
   9   8  -4  667.26   85.44
  -9  -8   4  777.92  100.93
  10  -7  -2 1468.14  133.33
 -10   7   2 1232.24  137.38
  10  -7  -1 1246.73  123.12
 -10   7   1 1150.26  130.21
 -10   7   0  734.15  101.46
  10  -7   0  590.40   83.53
 -10   7  -1  530.95   85.73
  10  -7   1  486.87   75.72
 -10   7  -2  105.21   40.02
  10  -7   2  116.99   36.49
 -10   7  -3   72.37   32.34
  10  -7   3   32.21   21.38
  10  -6  -4 1288.93  122.11
 -10   6   4 1486.17  148.51
  10  -6  -3 1426.86  129.63
 -10   6   3 1500.84  148.73
  10  -6  -2  794.44   94.73
 -10   6   2  819.06  107.28
 -10   6   1   38.25   25.75
  10  -6  -1   30.24   21.30
 -10   6   0   63.98   31.88
  10  -6   0  141.62   39.61
 -10   6  -1  400.85   72.29
  10  -6   1  342.59   62.24
 -10   6  -2  617.29   88.99
  10  -6   2  581.12   80.01
 -10   6  -3  413.21   72.15
  10  -6   3  410.06   65.12
  10  -6   4  848.86   95.19
 -10   6  -4  856.08  103.25
  10  -5  -5  623.48   95.70
 -10   5   5  748.47  103.19
  10  -5  -5  639.58   81.67
 -10   5   4  186.20   52.82
  10  -5  -4  153.53   46.41
  10  -5  -4  172.94   45.71
 -10   5   3  -55.21   30.72
  10  -5  -3    2.42   14.01
  10  -5  -3   46.48   24.66
 -10   5   2  114.38   38.83
  10  -5  -2  104.10   33.10
 -10   5   1  596.76   88.52
  10  -5  -1  462.26   70.84
  10  -5   0 1409.58  126.75
 -10   5   0 1337.19  134.60
  10  -5   1 1477.50  129.27
 -10   5  -1 1581.17  142.80
  10  -5   2 1235.09  115.34
 -10   5  -2 1214.39  124.16
 -10   5  -3  535.97   80.19
  10  -5   3  410.32   64.02
 -10   5  -4  105.32   31.82
 -10   5  -4  115.32   38.32
  10  -5   4   83.54   29.51
 -10   5  -5   28.23   16.21
 -10   5  -5   30.20   16.58
  10  -5   5  -11.64   20.74
 -10   4   7  260.77   61.01
  10  -4  -7  355.77   58.64
  10  -4  -7  310.68   73.61
 -10   4   6   69.49   36.03
  10  -4  -6   76.32   29.64
  10  -4  -6   19.45   23.71
  10  -4  -5  130.31   42.84
 -10   4   5  167.43   48.47
  10  -4  -5   53.47   24.77
  10  -4  -4 1374.98  134.90
  10  -4  -4 1400.83  122.26
 -10   4   4 1508.29  146.12
  10  -4  -3 1574.13  137.30
  10  -4  -3 1473.90  126.68
 -10   4   3 1380.54  139.24
  10  -4  -2 1595.98  133.46
  10  -4  -2 1460.95  127.25
 -10   4   2 1586.78  145.65
  10  -4  -1 1186.32  112.81
 -10   4   1 1326.72  130.16
  10  -4   0  874.86   95.59
 -10   4   0  841.05  101.95
 -10   4  -1  400.12   67.69
  10  -4   1  435.54   66.22
 -10   4  -2   58.27   28.43
 -10   4  -2  130.45   41.72
  10  -4   2  104.36   32.10
 -10   4  -3  151.65   39.71
 -10   4  -3   89.03   34.85
  10  -4   3   98.56   31.76
  10  -4   4  745.00   85.92
 -10   4  -4 1057.53  108.70
 -10   4  -4 1048.15  106.94
  10  -4   5 1012.73   98.98
 -10   4  -5 1034.00  106.08
 -10   4  -5 1037.52  110.55
  10  -3  -7  554.92   94.40
 -10   3   7  570.87   86.90
  10  -3  -7  578.75   72.86
  10  -3  -6 1165.74  107.59
  10  -3  -6 1186.76  132.97
 -10   3   6 1263.61  132.01
  10  -3  -5 1321.47  115.48
 -10   3   5 1249.78  132.04
  10  -3  -5 1230.24  129.77
  10  -3  -4 1641.36  132.08
 -10   3   4 1708.93  154.36
  10  -3  -4 1591.70  141.92
  10  -3  -3 1287.90  116.25
 -10   3   3 1203.85  127.10
  10  -3  -3 1423.20  126.70
  10  -3  -2  567.13   74.27
  10  -3  -2  756.99   86.45
 -10   3   2  654.06   89.50
 -10   3   1   58.21   29.09
  10  -3  -1  154.71   35.44
  10  -3  -1  108.44   33.35
 -10   3   0  149.32   37.38
 -10   3   0  136.54   40.41
  10  -3   0  153.19   39.01
 -10   3  -1  478.67   66.39
 -10   3  -1  427.12   69.27
  10  -3   1  362.99   59.83
  10  -3   2  645.69   79.96
 -10   3  -2  801.06   95.52
 -10   3  -2  775.79   88.63
  10  -3   3  780.10   86.10
 -10   3  -3  758.35   92.02
 -10   3  -3  882.17   96.67
  10  -3   4  527.51   71.91
 -10   3  -4  742.81   87.38
 -10   3  -4  815.19   95.29
 -10   3  -5  341.82   63.96
  10  -3   5  348.94   56.95
  10  -2  -8 1303.90  111.05
  10  -2  -8 1535.53  160.03
 -10   2   8 1456.48  137.55
  10  -2  -7 1514.88  122.01
  10  -2  -7 1635.85  159.51
 -10   2   7 1667.98  151.20
  10  -2  -6 1130.15  103.39
  10  -2  -6  950.22  115.57
 -10   2   6  992.58  116.72
  10  -2  -5  591.01   86.42
 -10   2   5  526.95   83.24
  10  -2  -5  371.90   60.39
  10  -2  -4  137.41   39.84
 -10   2   4  213.24   54.46
  10  -2  -4  204.75   44.32
 -10   2   3    8.29   15.83
  10  -2  -3    9.31   14.11
  10  -2  -3  -18.40   18.78
 -10   2   2  152.92   33.31
 -10   2   2   73.16   30.79
  10  -2  -2  104.28   32.57
  10  -2  -2  178.57   40.16
  10  -2  -1  519.52   71.20
 -10   2   1  702.39   91.32
 -10   2   1  470.45   63.44
  10  -2   0 1481.92  123.04
 -10   2   0 1687.44  142.42
 -10   2   0 1422.52  118.49
  10  -2   1 1443.21  121.85
 -10   2  -1 1521.64  134.51
 -10   2  -1 1556.59  127.64
  10  -2   2  754.85   85.46
 -10   2  -2  928.27  100.20
 -10   2  -2  604.04   80.76
 -10   2  -3  118.76   36.47
 -10   2  -3  139.57   38.75
  10  -2   3   65.49   26.75
 -10   2  -4   56.09   26.83
 -10   2  -4   26.46   22.89
  10  -2   4   30.44   19.50
 -10   2  -5   81.81   31.09
  10  -2   5  119.82   34.86
  10  -1  -9 1369.67  154.31
 -10   1   8  316.06   63.70
  10  -1  -8  357.79   54.92
  10  -1  -8  406.50   78.42
 -10   1   7  211.32   54.04
  10  -1  -7  327.14   52.63
  10  -1  -7  214.03   54.45
 -10   1   6   99.22   36.15
  10  -1  -6   79.57   29.50
  10  -1  -6  104.60   38.86
 -10   1   5   43.30   25.93
  10  -1  -5   42.65   20.66
  10  -1  -5    3.23   15.97
  10  -1  -4 1003.93   99.51
  10  -1  -4 1047.08  107.22
 -10   1   4  974.74  115.61
  10  -1  -3 2103.14  149.95
  10  -1  -3 2278.91  155.90
 -10   1   3 2255.43  175.71
 -10   1   3 2024.28  131.65
  10  -1  -2  901.16   96.12
  10  -1  -2 1180.65  102.20
 -10   1   2 1352.26  129.51
 -10   1   2 1300.32  104.59
  10  -1  -1 1050.26  102.33
 -10   1   1 1080.82  114.42
 -10   1   1 1075.86  100.25
 -10   1   0  417.43   63.18
 -10   1   0  338.18   62.43
  10  -1   0  318.75   55.27
 -10   1  -1  130.49   40.65
 -10   1  -1  166.80   41.48
  10  -1   1  167.66   40.84
 -10   1  -2   19.56   21.28
 -10   1  -2   11.60   17.87
  10  -1   2    9.73   17.96
 -10   1  -3  452.30   71.97
  10  -1   3  519.32   70.80
 -10   1  -3  549.58   72.24
  10  -1   4  537.57   71.81
 -10   1  -4  722.28   91.20
  10  -1   5  529.64   72.20
 -10   1  -5  719.52   93.75
  10  -1   5  538.20   79.41
  10   0  -9   52.50   34.56
 -10   0   9   34.27   22.47
  10   0  -8  197.35   53.96
 -10   0   8  218.51   55.49
  10   0  -8  288.04   48.88
  10   0  -7  307.64   65.34
 -10   0   7  299.63   61.83
  10   0  -7  370.38   56.64
  10   0  -6  839.04  101.66
  10   0  -6  777.89   85.83
 -10   0   6  895.76  108.71
  10   0  -5 1389.08  127.21
  10   0  -5 1324.24  115.82
 -10   0   5 1413.79  140.00
  10   0  -4 1863.76  141.76
  10   0  -4 1626.41  130.20
 -10   0   4 1889.08  161.76
 -10   0   4 1655.11  116.45
  10   0  -3 1478.07  121.24
  10   0  -3 1432.20  116.98
 -10   0   3 1426.32  137.57
 -10   0   3 1211.74  102.67
 -10   0   2  307.45   51.73
 -10   0   2  399.58   68.42
  10   0  -2  226.83   46.30
 -10   0   1    2.90   13.49
 -10   0   1   12.99   20.55
  10   0  -1   -5.22   19.43
 -10   0   0   92.10   31.67
 -10   0   0  201.46   47.18
 -10   0  -1  280.42   55.75
 -10   0  -1  273.15   53.83
 -10   0  -2  512.88   71.18
 -10   0  -2  636.97   85.23
 -10   0  -3  685.24   89.65
 -10   0  -3  621.28   75.62
 -10   0  -4  509.47   78.29
  10   0   4  303.49   59.21
 -10   0  -5  359.84   67.32
  10   0   5  385.80   68.84
  10   1  -9 1065.04  129.65
 -10  -1   9 1003.08  111.72
  10   1  -8 1394.13  143.59
  10   1  -8 1268.66  107.09
 -10  -1   8 1205.06  125.70
  10   1  -7 1860.09  160.62
  10   1  -7 1617.40  127.13
 -10  -1   7 1909.93  161.45
  10   1  -6 1759.24  148.34
  10   1  -6 1567.83  127.00
 -10  -1   6 1711.86  154.75
  10   1  -5  393.90   65.20
 -10  -1   5  486.98   80.54
  10   1  -5  374.01   59.01
 -10  -1   4  119.61   31.49
  10   1  -4  179.74   41.16
 -10  -1   4  265.52   59.31
  10   1  -4  210.82   44.33
 -10  -1   3   18.40   17.03
  10   1  -3   21.45   14.71
 -10  -1   3   71.14   36.34
  10   1  -3   -4.11   17.64
 -10  -1   2  139.73   36.96
 -10  -1   2  163.72   44.47
 -10  -1   1  749.43   92.13
 -10  -1   1  636.56   80.73
 -10  -1   0 1362.00  122.12
 -10  -1   0 1059.29  109.06
 -10  -1  -1  897.02  103.20
 -10  -1  -1  988.87  100.92
 -10  -1  -2  496.72   78.32
 -10  -1  -2  638.37   78.51
 -10  -1  -3   58.08   32.01
 -10  -1  -4  106.91   37.28
  10   1   4   19.78   14.70
 -10  -2   9 1309.75  130.08
  10   2  -9 1320.01  145.07
 -10  -2   8  903.01  107.40
  10   2  -8  727.36  102.71
  10   2  -7  477.55   77.91
  10   2  -7  465.14   67.46
 -10  -2   7  460.37   77.10
  10   2  -6   96.21   34.93
 -10  -2   6   25.10   22.68
  10   2  -6   35.86   23.14
  10   2  -5  261.92   51.63
 -10  -2   5  373.68   70.90
  10   2  -5  272.47   50.34
  10   2  -4  825.80   88.46
 -10  -2   4  925.76   90.46
 -10  -2   4  988.72  114.86
 -10  -2   3 1410.99  117.64
 -10  -2   3 1409.46  139.09
 -10  -2   2  827.73   92.62
 -10  -2   2 1062.62  113.75
 -10  -2   1  516.11   76.35
 -10  -2   1  578.44   78.35
 -10  -2   0  133.52   41.33
 -10  -2   0  217.56   48.75
 -10  -2  -1   -2.61   16.03
 -10  -2  -1   26.43   19.29
 -10  -2  -2   76.02   32.96
 -10  -2  -2   42.20   22.14
 -10  -2  -3  596.72   87.94
  10   2   3  609.64   82.96
 -10  -3   9   20.02   20.43
  10   3  -9  -10.13   18.69
 -10  -3   8  174.36   47.58
  10   3  -8  324.33   66.63
 -10  -3   7  434.20   76.56
  10   3  -7  298.35   51.92
  10   3  -7  330.19   63.96
 -10  -3   6  941.03  113.82
  10   3  -6 1031.57  109.60
  10   3  -6 1107.02  105.10
  10   3  -5  948.74   99.76
 -10  -3   5  942.35  113.64
 -10  -3   4 1018.54  100.21
 -10  -3   4 1490.00  139.31
 -10  -3   3  739.61   86.76
 -10  -3   3  754.76   99.63
 -10  -3   2   95.89   34.41
 -10  -3   2  129.43   42.18
 -10  -3   1  147.78   41.95
 -10  -3   1   59.94   24.97
 -10  -3   0  336.65   64.13
 -10  -3   0  512.24   73.71
 -10  -3  -1  423.19   72.89
 -10  -3  -1  481.34   69.11
 -10  -3  -2  775.50   99.62
  10   3   3  683.08   88.13
 -10  -3  -3  783.84  101.60
 -10  -4   9  546.93   84.82
  10   4  -9  734.45  104.82
 -10  -4   9  669.58   89.29
 -10  -4   8 1123.74  124.26
  10   4  -8 1221.91  131.56
 -10  -4   7 1453.04  142.55
  10   4  -7 1676.50  146.48
  10   4  -7 1288.37  116.89
 -10  -4   6  955.20  115.34
  10   4  -6 1054.25  109.78
 -10  -4   5  106.78   41.96
  10   4  -5  155.39   40.26
 -10  -4   4  -38.77   21.31
 -10  -4   4    3.52   16.30
 -10  -4   3   51.60   26.58
 -10  -4   3  177.80   48.29
 -10  -4   2  359.52   63.82
 -10  -4   2  550.68   81.85
 -10  -4   1  711.39   89.92
 -10  -4   1  667.27   89.80
 -10  -4   0  920.54   99.54
 -10  -4   0  764.05   98.27
 -10  -4  -1  901.93   94.69
 -10  -4  -1  780.11  100.67
 -10  -4  -2  153.35   46.34
 -10  -4  -2  147.41   39.71
 -10  -5   8  304.58   62.98
 -10  -5   8  416.97   75.71
  10   5  -8  469.03   79.54
 -10  -5   7  142.32   41.77
 -10  -5   7   84.96   38.52
  10   5  -7  154.87   43.53
 -10  -5   6   29.94   23.08
 -10  -5   6    3.79   18.55
  10   5  -6   10.70   13.35
 -10  -5   5  210.60   52.52
 -10  -5   5  292.37   61.60
 -10  -5   4  831.47  105.00
 -10  -5   4  805.21  102.25
 -10  -5   4  844.47   95.37
 -10  -5   3  720.57   96.05
 -10  -5   3  705.56   95.17
 -10  -5   3  677.27   87.61
 -10  -5   2  259.19   55.18
 -10  -5   2  280.05   60.52
 -10  -5   2  375.69   67.52
 -10  -5   1  132.26   42.28
 -10  -5   1  185.17   47.93
 -10  -5   1  199.91   48.45
 -10  -5   0  108.54   39.20
 -10  -5   0   25.04   22.16
 -10  -5   0   98.02   32.54
 -10  -6   7  318.65   64.59
  10   6  -7  316.46   63.02
 -10  -6   7  134.15   45.00
 -10  -6   6  310.93   63.89
 -10  -6   6  419.80   74.61
 -10  -6   5  562.00   87.14
 -10  -6   5  763.52  101.10
 -10  -6   4  379.56   64.70
 -10  -6   4  290.53   62.61
 -10  -6   4  318.31   64.09
 -10  -6   3  122.23   40.07
 -10  -6   3  169.44   48.79
 -10  -6   3  179.00   48.28
 -10  -6   2   31.24   22.76
 -10  -6   2  -11.45   15.19
 -10  -6   2   -4.56   13.49
 -10  -6   1  135.81   45.47
 -10  -6   1  195.58   49.91
 -10  -6   1  178.76   44.93
 -11   6   1  505.58   85.22
  11  -6  -1  573.86   83.31
 -11   6   0  112.07   42.02
  11  -6   0   96.13   36.65
 -11   5   3  324.25   66.88
  11  -5  -3  358.77   65.30
 -11   5   2   12.66   20.47
  11  -5  -2   36.36   21.46
 -11   5   1   40.50   29.85
  11  -5  -1   65.46   24.50
  11  -5   0  611.24   84.66
 -11   5   0  779.72  102.23
 -11   5  -1  577.41   86.79
  11  -5   1  836.29   96.70
 -11   5  -2  729.22   95.61
  11  -5   2  643.88   84.15
  11  -4  -5   75.04   33.13
 -11   4   5   27.83   24.13
  11  -4  -5  111.36   35.35
 -11   4   4   51.88   29.54
  11  -4  -4   14.93   16.04
  11  -4  -4   13.70   14.30
 -11   4   3  464.15   79.53
  11  -4  -3  365.68   64.87
  11  -4  -3  349.00   63.83
 -11   4   2  515.23   83.54
  11  -4  -2  463.75   69.38
  11  -4  -2  560.18   78.89
  11  -4  -1 1121.36  113.93
 -11   4   1 1345.00  135.11
  11  -4   0 1259.81  119.68
 -11   4   0 1242.15  128.95
  11  -4   1 1006.45  105.45
 -11   4  -1 1100.18  118.76
 -11   4  -2  627.03   87.82
  11  -4   2  607.04   80.65
 -11   4  -3   81.23   31.06
 -11   4  -3  104.75   38.46
  11  -4   3   14.50   15.34
 -11   3   6   70.71   33.62
  11  -3  -6  132.04   39.78
  11  -3  -6  123.34   43.12
 -11   3   5  494.10   84.31
  11  -3  -5  669.59   84.73
  11  -3  -5  474.20   80.39
  11  -3  -4 1324.70  124.63
 -11   3   4 1591.98  150.97
  11  -3  -4 1389.33  132.64
  11  -3  -3 1624.43  137.02
  11  -3  -3 1370.72  127.05
 -11   3   3 1594.31  149.65
  11  -3  -2  967.79   97.69
  11  -3  -2  830.81   96.28
 -11   3   2  976.25  114.00
 -11   3   1  518.13   81.21
  11  -3  -1  500.46   73.67
 -11   3   0  200.85   51.00
  11  -3   0  190.81   45.67
 -11   3  -1   17.72   16.82
 -11   3  -1   61.18   31.21
  11  -3   1   -2.66   20.83
 -11   3  -2   19.58   26.07
 -11   3  -2   85.44   35.29
  11  -3   2   29.89   20.21
 -11   3  -3  559.56   79.20
  11  -3   3  561.29   76.25
 -11   3  -3  670.37   87.47
  11  -2  -7  943.55   98.92
  11  -2  -7  902.43  118.70
 -11   2   7  825.53  109.84
  11  -2  -6  796.24   91.64
  11  -2  -6  756.82  104.08
 -11   2   6  767.04  105.77
  11  -2  -5  767.43   91.60
  11  -2  -5  871.12  105.72
 -11   2   5  744.49  103.89
  11  -2  -4  944.13  102.77
 -11   2   4 1072.32  123.00
  11  -2  -4 1073.79  112.45
 -11   2   3  433.08   77.06
  11  -2  -3  411.71   65.78
  11  -2  -3  454.19   68.63
 -11   2   2   14.06   21.39
  11  -2  -2   99.26   35.65
 -11   2   1  172.11   39.42
 -11   2   1  233.38   53.31
  11  -2  -1  180.31   43.85
  11  -2   0  556.23   77.28
 -11   2   0  759.59   95.79
 -11   2   0  874.74   93.05
  11  -2   1 1008.44  103.14
 -11   2  -1  890.06  103.50
 -11   2  -1 1043.65  105.76
  11  -2   2 1069.87  108.22
 -11   2  -2 1394.44  127.16
 -11   2  -2 1435.97  128.56
  11  -2   3 1086.13  107.42
 -11   2  -3 1194.76  115.04
 -11   2  -3 1194.28  118.99
 -11   1   7  669.67   98.25
  11  -1  -7  845.15   92.77
  11  -1  -7  914.85  116.20
 -11   1   6  398.57   76.38
  11  -1  -6  381.86   62.89
  11  -1  -6  379.27   72.11
  11  -1  -5   49.52   29.77
 -11   1   5   -5.97   17.15
  11  -1  -5  -33.14   22.51
  11  -1  -4  133.93   40.65
 -11   1   4   46.18   31.16
  11  -1  -4   54.93   28.25
 -11   1   3  392.37   72.59
  11  -1  -3  223.09   48.48
  11  -1  -2 1145.81  111.52
 -11   1   2 1126.23  121.29
 -11   1   2 1003.39   97.83
  11  -1  -1 1554.88  131.76
 -11   1   1 1883.09  155.53
 -11   1   1 1462.07  125.05
  11  -1   0 1415.78  127.71
 -11   1   0 1820.55  150.51
 -11   1   0 1705.63  138.05
  11  -1   1 1207.80  114.76
 -11   1  -1 1316.94  125.04
 -11   1  -1 1405.24  127.04
 -11   1  -2  509.80   76.93
 -11   1  -2  427.13   67.86
  11  -1   2  415.19   65.71
 -11   1  -3   12.83   21.60
 -11   1  -3    5.10   16.48
  11  -1   3   -4.72   16.21
 -11   0   8  108.24   41.03
  11   0  -8   26.27   26.44
  11   0  -8   39.27   18.55
 -11   0   7    4.37   22.72
  11   0  -7   38.39   28.21
  11   0  -7  -15.66   19.89
 -11   0   6  275.04   62.51
  11   0  -6  163.50   46.80
  11   0  -6  151.77   41.01
  11   0  -5  755.48   94.39
  11   0  -5  782.97   90.92
 -11   0   5  862.56  111.84
  11   0  -4 1674.74  139.59
  11   0  -4 2087.34  153.50
 -11   0   4 1836.81  166.38
 -11   0   4 1942.69  134.54
  11   0  -3 1675.63  137.15
 -11   0   3 1884.88  162.36
 -11   0   3 1418.54  119.29
  11   0  -2 1157.77  112.70
 -11   0   2 1178.23  124.28
 -11   0   2 1083.30  104.95
 -11   0   1  285.27   55.52
 -11   0   1  281.93   58.00
  11   0  -1  379.31   62.65
 -11   0   0  120.54   37.48
 -11   0   0  181.73   47.04
  11   0   0  125.71   37.65
 -11   0  -1   19.32   21.68
 -11   0  -1    1.27   18.03
  11   0   1   41.76   20.78
 -11   0  -2  145.17   42.42
 -11   0  -2  102.62   33.11
 -11   0  -3  605.74   85.82
  11   1  -8  699.07  101.68
 -11  -1   8  568.64   89.77
  11   1  -7 1154.05  124.75
  11   1  -7  681.23   84.99
 -11  -1   7 1152.77  128.44
  11   1  -6 1001.97  111.99
  11   1  -6  821.37   94.22
 -11  -1   6 1168.66  130.40
  11   1  -5 1298.85  122.18
  11   1  -5 1196.36  114.59
 -11  -1   5 1297.38  139.46
  11   1  -4  800.18   92.64
 -11  -1   4  773.13  107.11
 -11  -1   4  890.12   90.11
 -11  -1   3  489.01   69.49
 -11  -1   3  605.50   91.41
  11   1  -3  476.19   72.29
 -11  -1   2   77.26   27.95
 -11  -1   2   53.86   28.80
  11   1  -2   19.54   20.35
 -11  -1   1  199.54   45.83
 -11  -1   1  209.89   50.67
 -11  -1   0  604.92   85.05
 -11  -1   0  732.40   91.78
 -11  -1  -1  673.04   90.94
 -11  -1  -1  877.44   97.17
 -11  -1  -2  678.25   92.81
 -11  -1  -2  636.05   80.54
 -11  -2   8 1343.49  140.85
  11   2  -8 1605.85  153.88
  11   2  -7 1268.30  128.92
  11   2  -7  858.26   97.58
 -11  -2   7  974.68  119.94
  11   2  -6  383.36   67.69
 -11  -2   6  397.93   76.38
  11   2  -6  424.22   66.30
  11   2  -5   13.81   15.09
 -11  -2   5   15.35   16.00
  11   2  -5   11.14   15.56
 -11  -2   4   84.75   30.95
  11   2  -4  103.98   32.24
 -11  -2   4  105.16   40.06
 -11  -2   3  195.86   45.33
 -11  -2   3  207.31   53.80
 -11  -2   2  726.95   91.15
 -11  -2   2 1061.28  116.54
 -11  -2   1 1405.62  130.17
 -11  -2   1 1190.58  122.47
 -11  -2   0 1113.76  117.71
 -11  -2   0 1042.40  109.86
 -11  -2  -1  600.40   87.35
 -11  -2  -1  759.06   89.75
  11   3  -7  -54.02   27.76
 -11  -3   7  -15.66   30.29
  11   3  -7   26.73   18.80
  11   3  -6  126.50   36.21
 -11  -3   6  201.24   56.25
  11   3  -6  190.72   45.64
 -11  -3   5  999.69  122.74
 -11  -3   4 1168.03  113.58
 -11  -3   4 1416.90  144.23
 -11  -3   3 1548.58  134.99
 -11  -3   3 1544.56  149.16
 -11  -3   2  751.82   97.77
 -11  -3   2  781.64   96.07
 -11  -3   1  244.15   56.18
 -11  -3   1  286.50   58.89
 -11  -3   0  124.81   44.56
 -11  -3   0   60.64   25.58
 -11  -4   7  900.27  118.43
  11   4  -7 1159.23  122.35
  11   4  -7  930.48  100.84
 -11  -4   6 1188.68  134.17
 -11  -4   5 1481.54  150.58
 -11  -4   4 1190.85  131.37
 -11  -4   4  901.23  101.61
 -11  -4   3  164.70   42.81
 -11  -4   3  317.51   65.21
 -11  -4   2  -11.46   16.82
 -11  -4   2  -16.80   23.68
 -11  -4   1  146.70   44.68
 -11  -4   1  155.14   45.48
 -11  -5   5  -19.26   23.32
 -11  -5   5   -5.16   22.72
 -11  -5   4  124.98   40.14
 -11  -5   4   93.91   39.00
 -11  -5   4  125.47   42.99
 -11  -5   3  317.66   62.84
 -11  -5   3  358.78   70.70
 -11  -5   3  401.49   74.23
 -12   3   3  270.28   62.90
  12  -3  -3  128.34   42.57
 -12   3   2  386.99   73.95
  12  -3  -2  489.35   75.72
  12  -3  -1  617.63   85.16
 -12   3   1  742.60   98.84
 -12   3   0  461.62   77.81
  12  -3   0  592.45   80.69
 -12   2   4  722.75  101.09
  12  -2  -4  721.93   91.22
  12  -2  -4  655.31   88.11
 -12   2   3  659.24   96.30
  12  -2  -3  674.01   87.01
 -12   2   2  407.67   74.91
  12  -2  -2  351.62   62.98
 -12   2   1   74.17   35.11
  12  -2  -1   22.82   16.27
 -12   2   0    2.43   19.17
  12  -2   0    2.40   20.23
  12  -1  -5  410.17   73.64
 -12   1   5  590.14   93.96
  12  -1  -5  480.56   74.69
 -12   1   4  398.72   76.22
  12  -1  -4  291.61   58.57
 -12   1   3  111.46   42.16
  12  -1  -3  110.43   35.33
 -12   1   2   39.39   29.88
  12  -1  -2   36.34   24.65
  12  -1  -1  741.66   92.62
 -12   1   1  793.79  100.96
 -12   1   1  756.57   89.29
  12  -1   0  852.49   98.64
 -12   1   0  923.55  108.80
 -12   1   0  926.36  102.17
 -12   0   5   21.52   23.64
  12   0  -5   17.53   19.13
 -12   0   4  340.58   72.09
  12   0  -4  320.20   60.25
 -12   0   3  681.46   97.29
  12   0  -3  651.78   86.28
 -12   0   3  559.60   75.20
  12   0  -2  652.10   87.03
 -12   0   2  726.97   99.63
 -12   0   2  731.52   88.58
  12   0  -1 1242.81  119.71
 -12   0   1 1297.12  130.77
 -12   0   1  978.83  107.42
  12   0   0  694.00   90.00
 -12   0   0  982.72  109.80
 -12   0   0  960.53  106.83
  12   1  -5  743.45   91.84
 -12  -1   5  817.04  111.79
  12   1  -4 1077.02  111.94
 -12  -1   4 1199.48  134.64
 -12  -1   4  949.57  100.33
 -12  -1   3  648.07   97.05
  12   1  -3  470.92   73.29
 -12  -1   3  632.71   83.16
 -12  -1   2  391.63   67.24
 -12  -1   2  489.04   81.23
  12   1  -2  400.22   67.65
 -12  -1   1   32.73   25.04
  12   1  -1   62.22   30.15
 -12  -1   1   20.68   20.23
 -12  -2   4  205.83   46.66
 -12  -2   4  144.76   50.98
  12   2  -4  207.07   50.41
 -12  -2   3   -3.53   16.09
  12   2  -3   -6.27   18.16
 -12  -2   3   36.83   26.63
 -12  -2   2  142.24   41.40
 -12  -2   2  150.58   48.66
   0   0   0    0.00    0.00

TITL LBX-015ABS in P-1
REM P-1 (#2 in standard setting)
CELL 0.71073   8.769489   8.894692   9.544539 109.6931 100.7515  92.2058
ZERR    1.00   0.000327   0.000372   0.000347   0.0036   0.0032   0.0032
LATT  1
SFAC C H Cl Ir
UNIT 26.00 42.00 4.00 2.00
TREF
HKLF 4
END
_computing_structure_solution     'SHELXT 2014/5 (Sheldrick, 2014)'
;
_shelx_hkl_checksum              43510
_shelx_shelxl_version_number     2014/7
_olex2_submission_special_instructions 'No special instructions were received'
loop_
_space_group_symop_operation_xyz
'x, y, z'
'-x, -y, -z'
loop_
_atom_site_label
_atom_site_type_symbol
_atom_site_fract_x
_atom_site_fract_y
_atom_site_fract_z
_atom_site_U_iso_or_equiv
_atom_site_adp_type
_atom_site_occupancy
_atom_site_site_symmetry_order
_atom_site_calc_flag
_atom_site_refinement_flags_posn
Ir1 Ir 0.38242(2) 0.17404(2) 0.56740(2) 0.00817(5) Uani 1 1 d .
Cl1 Cl 0.29580(13) 0.15494(13) 0.30853(12) 0.0167(2) Uani 1 1 d .
Cl2 Cl 0.64338(12) 0.12119(12) 0.51831(11) 0.01189(19) Uani 1 1 d .
C1 C 0.4095(5) 0.2434(5) 0.8100(5) 0.0129(8) Uani 1 1 d .
C2 C 0.4666(5) 0.3773(5) 0.7732(5) 0.0128(8) Uani 1 1 d .
C3 C 0.3373(5) 0.4164(5) 0.6756(5) 0.0125(8) Uani 1 1 d .
C4 C 0.2013(5) 0.3090(5) 0.6545(5) 0.0116(8) Uani 1 1 d .
C5 C 0.2456(5) 0.2013(5) 0.7378(5) 0.0133(8) Uani 1 1 d .
C6 C 0.5030(6) 0.1660(6) 0.9102(5) 0.0195(10) Uani 1 1 d .
H6A H 0.4597 0.0565 0.8817 0.029 Uiso 1 1 calc GR
H6B H 0.4998 0.2233 1.0145 0.029 Uiso 1 1 calc GR
H6C H 0.6093 0.1688 0.8983 0.029 Uiso 1 1 calc GR
C7 C 0.6279(5) 0.4614(6) 0.8253(5) 0.0189(9) Uani 1 1 d .
H7A H 0.7019 0.3836 0.8152 0.028 Uiso 1 1 calc GR
H7B H 0.6433 0.5299 0.9301 0.028 Uiso 1 1 calc GR
H7C H 0.6427 0.5251 0.7643 0.028 Uiso 1 1 calc GR
C8 C 0.3388(5) 0.5520(5) 0.6161(5) 0.0161(9) Uani 1 1 d .
H8A H 0.4445 0.5874 0.6191 0.024 Uiso 1 1 calc GR
H8B H 0.2925 0.6393 0.6780 0.024 Uiso 1 1 calc GR
H8C H 0.2802 0.5161 0.5129 0.024 Uiso 1 1 calc GR
C9 C 0.0429(5) 0.3134(5) 0.5663(5) 0.0149(9) Uani 1 1 d .
H9A H 0.0514 0.3189 0.4692 0.022 Uiso 1 1 calc GR
H9B H -0.0017 0.4062 0.6217 0.022 Uiso 1 1 calc GR
H9C H -0.0229 0.2181 0.5512 0.022 Uiso 1 1 calc GR
C10 C 0.1408(6) 0.0710(5) 0.7478(5) 0.0174(9) Uani 1 1 d .
H10A H 0.1948 -0.0243 0.7350 0.021 Uiso 1 1 calc R
H10B H 0.0491 0.0445 0.6659 0.021 Uiso 1 1 calc R
C11 C 0.0897(6) 0.1204(6) 0.9009(5) 0.0189(10) Uani 1 1 d .
H11A H 0.0317 0.0282 0.9063 0.023 Uiso 1 1 calc R
H11B H 0.1822 0.1505 0.9823 0.023 Uiso 1 1 calc R
C12 C -0.0103(6) 0.2587(6) 0.9272(5) 0.0173(9) Uani 1 1 d .
H12A H -0.1024 0.2299 0.8456 0.021 Uiso 1 1 calc R
H12B H 0.0481 0.3521 0.9243 0.021 Uiso 1 1 calc R
C13 C -0.0605(6) 0.3017(6) 1.0794(5) 0.0200(10) Uani 1 1 d .
H13A H -0.1178 0.2094 1.0831 0.030 Uiso 1 1 calc GR
H13B H -0.1256 0.3875 1.0900 0.030 Uiso 1 1 calc GR
H13C H 0.0302 0.3353 1.1609 0.030 Uiso 1 1 calc GR
loop_
_atom_site_aniso_label
_atom_site_aniso_U_11
_atom_site_aniso_U_22
_atom_site_aniso_U_33
_atom_site_aniso_U_23
_atom_site_aniso_U_13
_atom_site_aniso_U_12
Ir1 0.00915(8) 0.00801(8) 0.00781(8) 0.00270(6) 0.00279(6) 0.00237(5)
Cl1 0.0201(5) 0.0194(5) 0.0107(5) 0.0057(4) 0.0020(4) 0.0057(4)
Cl2 0.0107(4) 0.0096(4) 0.0151(5) 0.0027(4) 0.0051(4) 0.0011(3)
C1 0.017(2) 0.013(2) 0.0092(19) 0.0025(16) 0.0050(16) 0.0069(16)
C2 0.016(2) 0.0085(19) 0.0113(19) -0.0004(16) 0.0038(16) 0.0028(15)
C3 0.013(2) 0.013(2) 0.0110(19) 0.0027(16) 0.0047(16) 0.0021(16)
C4 0.013(2) 0.0091(19) 0.013(2) 0.0018(16) 0.0075(16) 0.0035(15)
C5 0.018(2) 0.0102(19) 0.013(2) 0.0018(16) 0.0096(17) 0.0035(16)
C6 0.025(3) 0.024(2) 0.013(2) 0.0089(19) 0.0059(18) 0.011(2)
C7 0.013(2) 0.021(2) 0.016(2) -0.0015(18) 0.0020(17) 0.0026(17)
C8 0.019(2) 0.014(2) 0.019(2) 0.0075(18) 0.0056(18) 0.0053(17)
C9 0.010(2) 0.016(2) 0.017(2) 0.0031(17) 0.0030(16) 0.0018(16)
C10 0.023(2) 0.013(2) 0.020(2) 0.0061(18) 0.0130(19) 0.0046(18)
C11 0.024(2) 0.019(2) 0.022(2) 0.0120(19) 0.016(2) 0.0048(19)
C12 0.019(2) 0.016(2) 0.019(2) 0.0074(18) 0.0075(18) 0.0043(17)
C13 0.023(2) 0.019(2) 0.021(2) 0.0078(19) 0.009(2) 0.0082(19)
loop_
_atom_type_symbol
_atom_type_description
_atom_type_scat_dispersion_real
_atom_type_scat_dispersion_imag
_atom_type_scat_source
C C 0.0033 0.0016 'International Tables Vol C Tables 4.2.6.8 and 6.1.1.4'
H H 0.0000 0.0000 'International Tables Vol C Tables 4.2.6.8 and 6.1.1.4'
Cl Cl 0.1484 0.1585 'International Tables Vol C Tables 4.2.6.8 and 6.1.1.4'
Ir Ir -1.4442 7.9887 'International Tables Vol C Tables 4.2.6.8 and 6.1.1.4'
loop_
_exptl_crystal_face_index_h
_exptl_crystal_face_index_k
_exptl_crystal_face_index_l
_exptl_crystal_face_perp_dist
_exptl_oxdiff_crystal_face_indexfrac_h
_exptl_oxdiff_crystal_face_indexfrac_k
_exptl_oxdiff_crystal_face_indexfrac_l
_exptl_oxdiff_crystal_face_x
_exptl_oxdiff_crystal_face_y
_exptl_oxdiff_crystal_face_z
-5 1 -5 0.0738 -5.0033 0.9995 -4.9901 0.1673 0.5935 -0.0136
-2 0 -5 0.0815 -2.0021 -0.0034 -4.9908 0.0410 0.4420 0.1462
-3 -5 2 0.1365 -3.0055 -5.0004 2.0109 0.4389 0.0330 0.1838
-2 5 5 0.1580 -1.9968 5.0105 4.9839 -0.0455 -0.2504 -0.6194
4 -1 5 0.1118 4.0027 -0.9988 4.9911 -0.1095 -0.5421 -0.0160
-5 1 0 0.1250 -5.0026 1.0042 0.0027 0.2419 0.2545 -0.2190
-4 2 5 0.1468 -4.0005 2.0092 4.9924 0.2115 -0.1389 -0.4658
0 -5 3 0.1479 -0.0034 -5.0015 3.0066 0.2804 -0.1892 0.2315
0 5 -2 0.1913 0.0035 5.0025 -2.0080 -0.2655 0.1214 -0.2726
2 5 -1 0.1505 2.0050 5.0021 -1.0114 -0.3662 -0.0493 -0.2545
0 3 -5 0.1361 0.0016 2.9979 -4.9993 -0.2160 0.3306 -0.0075
5 -1 0 0.0734 5.0026 -1.0042 -0.0027 -0.2419 -0.2545 0.2190
-5 -4 -3 0.0950 -5.0068 -4.0030 -2.9821 0.4328 0.4721 0.2590
5 -1 1 0.0638 5.0028 -1.0033 0.9958 -0.2270 -0.3223 0.1779
1 -1 -5 0.1033 0.9992 -1.0063 -4.9916 -0.0853 0.2905 0.3060
-5 -1 -1 0.0951 -5.0043 -0.9985 -0.9915 0.3212 0.3280 -0.0360
-5 -1 2 0.1466 -5.0038 -0.9956 2.0042 0.3660 0.1245 -0.1593
1 -5 1 0.1150 0.9970 -5.0041 1.0085 0.1928 -0.1051 0.3433
-2 5 0 0.1856 -1.9976 5.0057 -0.0089 -0.1200 0.0887 -0.4140
5 3 -2 0.1328 5.0054 2.9974 -2.0085 -0.4602 -0.1302 0.0173
5 -1 2 0.0586 5.0029 -1.0023 1.9944 -0.2120 -0.3901 0.1368
3 0 -5 0.1124 3.0013 -0.0068 -4.9957 -0.2480 0.1847 0.2943
5 -4 1 0.0834 5.0005 -4.0059 1.0024 -0.0856 -0.3137 0.3908
loop_
_geom_angle_atom_site_label_1
_geom_angle_atom_site_label_2
_geom_angle_atom_site_label_3
_geom_angle
_geom_angle_site_symmetry_3
Cl1 Ir1 Cl2 89.31(4) .
Cl1 Ir1 Cl2 88.95(4) 2_656
Cl2 Ir1 Cl2 79.37(4) 2_656
C1 Ir1 Cl1 162.56(12) .
C1 Ir1 Cl2 105.25(12) .
C1 Ir1 Cl2 102.95(12) 2_656
C1 Ir1 C2 39.33(16) .
C1 Ir1 C4 66.33(16) .
C1 Ir1 C5 39.33(17) .
C2 Ir1 Cl1 131.74(12) .
C2 Ir1 Cl2 94.39(12) .
C2 Ir1 Cl2 139.03(12) 2_656
C3 Ir1 Cl1 98.29(12) .
C3 Ir1 Cl2 159.80(12) 2_656
C3 Ir1 Cl2 119.32(12) .
C3 Ir1 C1 66.37(16) .
C3 Ir1 C2 39.72(16) .
C3 Ir1 C4 39.16(16) .
C3 Ir1 C5 66.13(16) .
C4 Ir1 Cl1 96.63(12) .
C4 Ir1 Cl2 158.24(12) .
C4 Ir1 Cl2 121.50(11) 2_656
C4 Ir1 C2 66.12(16) .
C4 Ir1 C5 39.66(16) .
C5 Ir1 Cl1 128.14(13) .
C5 Ir1 Cl2 142.19(13) .
C5 Ir1 Cl2 94.58(12) 2_656
C5 Ir1 C2 65.95(16) .
Ir1 Cl2 Ir1 100.63(4) 2_656
C2 C1 Ir1 70.5(2) .
C2 C1 C6 125.7(4) .
C5 C1 Ir1 70.4(2) .
C5 C1 C2 108.0(4) .
C5 C1 C6 126.2(4) .
C6 C1 Ir1 126.3(3) .
C1 C2 Ir1 70.2(2) .
C1 C2 C3 107.8(4) .
C1 C2 C7 126.5(4) .
C3 C2 Ir1 69.7(2) .
C3 C2 C7 125.7(4) .
C7 C2 Ir1 125.7(3) .
C2 C3 Ir1 70.5(2) .
C2 C3 C8 127.0(4) .
C4 C3 Ir1 70.7(2) .
C4 C3 C2 108.2(4) .
C4 C3 C8 124.7(4) .
C8 C3 Ir1 128.0(3) .
C3 C4 Ir1 70.1(2) .
C3 C4 C5 107.9(4) .
C3 C4 C9 125.0(4) .
C5 C4 Ir1 70.2(2) .
C5 C4 C9 127.1(4) .
C9 C4 Ir1 126.7(3) .
C1 C5 Ir1 70.3(2) .
C1 C5 C4 108.0(4) .
C1 C5 C10 125.8(4) .
C4 C5 Ir1 70.1(2) .
C4 C5 C10 126.2(4) .
C10 C5 Ir1 125.5(3) .
C1 C6 H6A 109.5 .
C1 C6 H6B 109.5 .
C1 C6 H6C 109.5 .
H6A C6 H6B 109.5 .
H6A C6 H6C 109.5 .
H6B C6 H6C 109.5 .
C2 C7 H7A 109.5 .
C2 C7 H7B 109.5 .
C2 C7 H7C 109.5 .
H7A C7 H7B 109.5 .
H7A C7 H7C 109.5 .
H7B C7 H7C 109.5 .
C3 C8 H8A 109.5 .
C3 C8 H8B 109.5 .
C3 C8 H8C 109.5 .
H8A C8 H8B 109.5 .
H8A C8 H8C 109.5 .
H8B C8 H8C 109.5 .
C4 C9 H9A 109.5 .
C4 C9 H9B 109.5 .
C4 C9 H9C 109.5 .
H9A C9 H9B 109.5 .
H9A C9 H9C 109.5 .
H9B C9 H9C 109.5 .
C5 C10 H10A 109.2 .
C5 C10 H10B 109.2 .
C5 C10 C11 111.9(4) .
H10A C10 H10B 107.9 .
C11 C10 H10A 109.2 .
C11 C10 H10B 109.2 .
C10 C11 H11A 108.7 .
C10 C11 H11B 108.7 .
H11A C11 H11B 107.6 .
C12 C11 C10 114.2(4) .
C12 C11 H11A 108.7 .
C12 C11 H11B 108.7 .
C11 C12 H12A 109.1 .
C11 C12 H12B 109.1 .
C11 C12 C13 112.3(4) .
H12A C12 H12B 107.9 .
C13 C12 H12A 109.1 .
C13 C12 H12B 109.1 .
C12 C13 H13A 109.5 .
C12 C13 H13B 109.5 .
C12 C13 H13C 109.5 .
H13A C13 H13B 109.5 .
H13A C13 H13C 109.5 .
H13B C13 H13C 109.5 .
loop_
_geom_bond_atom_site_label_1
_geom_bond_atom_site_label_2
_geom_bond_distance
_geom_bond_site_symmetry_2
Ir1 Cl1 2.3911(10) .
Ir1 Cl2 2.4519(10) .
Ir1 Cl2 2.4604(10) 2_656
Ir1 C1 2.149(4) .
Ir1 C2 2.153(4) .
Ir1 C3 2.142(4) .
Ir1 C4 2.150(4) .
Ir1 C5 2.151(4) .
Cl2 Ir1 2.4604(10) 2_656
C1 C2 1.448(6) .
C1 C5 1.447(6) .
C1 C6 1.501(6) .
C2 C3 1.459(6) .
C2 C7 1.488(6) .
C3 C4 1.438(6) .
C3 C8 1.497(6) .
C4 C5 1.459(6) .
C4 C9 1.494(6) .
C5 C10 1.490(6) .
C6 H6A 0.9600 .
C6 H6B 0.9600 .
C6 H6C 0.9600 .
C7 H7A 0.9600 .
C7 H7B 0.9600 .
C7 H7C 0.9600 .
C8 H8A 0.9600 .
C8 H8B 0.9600 .
C8 H8C 0.9600 .
C9 H9A 0.9600 .
C9 H9B 0.9600 .
C9 H9C 0.9600 .
C10 H10A 0.9700 .
C10 H10B 0.9700 .
C10 C11 1.534(6) .
C11 H11A 0.9700 .
C11 H11B 0.9700 .
C11 C12 1.517(6) .
C12 H12A 0.9700 .
C12 H12B 0.9700 .
C12 C13 1.526(6) .
C13 H13A 0.9600 .
C13 H13B 0.9600 .
C13 H13C 0.9600 .
loop_
_geom_torsion_atom_site_label_1
_geom_torsion_atom_site_label_2
_geom_torsion_atom_site_label_3
_geom_torsion_atom_site_label_4
_geom_torsion
Ir1 C1 C2 C3 59.8(3)
Ir1 C1 C2 C7 -120.3(4)
Ir1 C1 C5 C4 -60.2(3)
Ir1 C1 C5 C10 120.1(4)
Ir1 C2 C3 C4 61.0(3)
Ir1 C2 C3 C8 -123.4(4)
Ir1 C3 C4 C5 60.4(3)
Ir1 C3 C4 C9 -121.5(4)
Ir1 C4 C5 C1 60.3(3)
Ir1 C4 C5 C10 -120.0(4)
Ir1 C5 C10 C11 167.2(3)
C1 C2 C3 Ir1 -60.1(3)
C1 C2 C3 C4 0.8(5)
C1 C2 C3 C8 176.4(4)
C1 C5 C10 C11 77.1(5)
C2 C1 C5 Ir1 60.7(3)
C2 C1 C5 C4 0.5(5)
C2 C1 C5 C10 -179.2(4)
C2 C3 C4 Ir1 -60.9(3)
C2 C3 C4 C5 -0.5(5)
C2 C3 C4 C9 177.7(4)
C3 C4 C5 Ir1 -60.3(3)
C3 C4 C5 C1 0.0(5)
C3 C4 C5 C10 179.7(4)
C4 C5 C10 C11 -102.6(5)
C5 C1 C2 Ir1 -60.7(3)
C5 C1 C2 C3 -0.8(5)
C5 C1 C2 C7 179.0(4)
C5 C10 C11 C12 64.7(6)
C6 C1 C2 Ir1 121.3(4)
C6 C1 C2 C3 -178.9(4)
C6 C1 C2 C7 1.0(7)
C6 C1 C5 Ir1 -121.3(4)
C6 C1 C5 C4 178.5(4)
C6 C1 C5 C10 -1.2(7)
C7 C2 C3 Ir1 120.0(4)
C7 C2 C3 C4 -179.0(4)
C7 C2 C3 C8 -3.4(7)
C8 C3 C4 Ir1 123.4(4)
C8 C3 C4 C5 -176.2(4)
C8 C3 C4 C9 2.0(7)
C9 C4 C5 Ir1 121.6(4)
C9 C4 C5 C1 -178.1(4)
C9 C4 C5 C10 1.6(7)
C10 C11 C12 C13 179.0(4)
