#------------------------------------------------------------------------------
#$Date: 2019-11-24 09:59:11 +0200 (Sun, 24 Nov 2019) $
#$Revision: 237551 $
#$URL: file:///home/coder/svn-repositories/cod/cif/4/08/84/4088418.cif $
#------------------------------------------------------------------------------
#
# This file is available in the Crystallography Open Database (COD),
# http://www.crystallography.net/
#
# All data on this site have been placed in the public domain by the
# contributors.
#
data_4088418
loop_
_publ_author_name
'Chambers, Geoffrey M.'
'Rauchfuss, Thomas B.'
'Arrigoni, Federica'
'Zampella, Giuseppe'
_publ_section_title
;
 Effect of Pyramidalization of the M2(SR)2Center: The Case of
 (C5H5)2Ni2(SR)2
;
_journal_issue                   5
_journal_name_full               Organometallics
_journal_page_first              836
_journal_paper_doi               10.1021/acs.organomet.6b00068
_journal_volume                  35
_journal_year                    2016
_chemical_formula_moiety         '2(C7 H10 Ni S)'
_chemical_formula_sum            'C14 H20 Ni2 S2'
_chemical_formula_weight         369.84
_space_group_crystal_system      triclinic
_space_group_IT_number           2
_space_group_name_Hall           '-P 1'
_space_group_name_H-M_alt        'P -1'
_atom_sites_solution_hydrogens   geom
_atom_sites_solution_primary     direct
_audit_creation_date             2015-10-28
_audit_creation_method
;
Olex2 1.2
(compiled 2015.01.26 svn.r3150 for OlexSys, GUI svn.r4998)
;
_cell_angle_alpha                88.053(11)
_cell_angle_beta                 69.956(9)
_cell_angle_gamma                88.644(10)
_cell_formula_units_Z            2
_cell_length_a                   8.106(2)
_cell_length_b                   9.644(3)
_cell_length_c                   10.354(3)
_cell_measurement_reflns_used    4834
_cell_measurement_temperature    102(2)
_cell_measurement_theta_max      27.145
_cell_measurement_theta_min      2.782
_cell_volume                     759.9(4)
_computing_cell_refinement       'SAINT v8.34A (Bruker, 2013)'
_computing_data_reduction        'SAINT v8.34A (Bruker, 2013)'
_computing_molecular_graphics    'Olex2 (Dolomanov et al., 2009)'
_computing_publication_material  'Olex2 (Dolomanov et al., 2009)'
_computing_structure_refinement  'XL (Sheldrick, 2008)'
_computing_structure_solution    'XT (Sheldrick, 2015)'
_diffrn_ambient_temperature      102.28
_diffrn_measured_fraction_theta_full 0.997
_diffrn_measured_fraction_theta_max 0.993
_diffrn_measurement_device_type  'Bruker APEX-II CCD'
_diffrn_measurement_method       '\f and \w scans'
_diffrn_radiation_type           MoK\a
_diffrn_radiation_wavelength     0.71073
_diffrn_reflns_av_unetI/netI     0.0196
_diffrn_reflns_Laue_measured_fraction_full 0.997
_diffrn_reflns_Laue_measured_fraction_max 0.993
_diffrn_reflns_limit_h_max       10
_diffrn_reflns_limit_h_min       -9
_diffrn_reflns_limit_k_max       12
_diffrn_reflns_limit_k_min       -12
_diffrn_reflns_limit_l_max       13
_diffrn_reflns_limit_l_min       0
_diffrn_reflns_number            3340
_diffrn_reflns_point_group_measured_fraction_full 0.997
_diffrn_reflns_point_group_measured_fraction_max 0.993
_diffrn_reflns_theta_full        25.242
_diffrn_reflns_theta_max         27.106
_diffrn_reflns_theta_min         2.776
_diffrn_standards_number         0
_exptl_absorpt_coefficient_mu    2.731
_exptl_absorpt_correction_T_max  1
_exptl_absorpt_correction_T_min  0.492187
_exptl_absorpt_correction_type   multi-scan
_exptl_absorpt_process_details
;
 TWINABS-2012/1 (Bruker,2012) was used for absorption correction.
 
For component 1:
 wR2(int) was 0.1072 before and 0.0401 after correction.
 The Ratio of minimum to maximum transmission not present.
 The \l/2 correction factor is Not present
 
For component 2:
 wR2(int) was 0.1011 before and 0.0407 after correction.
 The Ratio of minimum to maximum transmission is 0.66.
 The \l/2 correction factor is Not present

Final HKLF 4 output contains 42076 reflections, Rint = 0.0332
 (31918 with I > 3sig(I), Rint = 0.0286)
;
_exptl_crystal_colour            black
_exptl_crystal_colour_primary    black
_exptl_crystal_density_diffrn    1.616
_exptl_crystal_description       plate
_exptl_crystal_F_000             384
_exptl_crystal_size_max          0.498
_exptl_crystal_size_mid          0.212
_exptl_crystal_size_min          0.088
_refine_diff_density_max         0.554
_refine_diff_density_min         -0.513
_refine_diff_density_rms         0.094
_refine_ls_extinction_method     none
_refine_ls_goodness_of_fit_ref   1.133
_refine_ls_hydrogen_treatment    constr
_refine_ls_matrix_type           full
_refine_ls_number_parameters     280
_refine_ls_number_reflns         3340
_refine_ls_number_restraints     418
_refine_ls_restrained_S_all      1.114
_refine_ls_R_factor_all          0.0383
_refine_ls_R_factor_gt           0.0322
_refine_ls_shift/su_max          0.001
_refine_ls_shift/su_mean         0.000
_refine_ls_structure_factor_coef Fsqd
_refine_ls_weighting_details
'w=1/[\s^2^(Fo^2^)+(0.0172P)^2^+1.5401P] where P=(Fo^2^+2Fc^2^)/3'
_refine_ls_weighting_scheme      calc
_refine_ls_wR_factor_gt          0.0688
_refine_ls_wR_factor_ref         0.0734
_reflns_Friedel_coverage         0.000
_reflns_number_gt                3142
_reflns_number_total             3340
_reflns_threshold_expression     'I > 2\s(I)'
_iucr_refine_instructions_details
;
TITL cd89lt4 in P-1 #2
REM Solution 1 R1 0.117 Rweak 0.007, Alpha = 0.0776 in P-1
CELL 0.71073 8.1063 9.6436 10.3544 88.053 69.956 88.644
ZERR 2 0.0021 0.0028 0.0025 0.0106 0.0087 0.0104
LATT 1
SFAC C H S Ni
UNIT 28 40 4 4
SADI S1 C6 S1A C6A
SADI C7A C6A C7 C6
SADI C14A C13A C14 C13
SADI S2 C13 S2A C13A
SADI 0.01 C7 C6 C7A C6A C14A C13A C14 C13
SADI 0.005 Ni1 S1 Ni1 S1A Ni2 S2 Ni2 S2A
SIMU 0.01 0.02 1.7 C7 C7A C6 C6A
SIMU 0.01 0.02 2 C10A C10 C9 C8 C12 C11 C9A C8A C12A C11A
SIMU 0.01 0.02 2 C13 C14 C14A C13A
SIMU 0.01 0.02 1.7 C4 C5A C1 C1A C5 C2A C2 C3A C3 C4A
RIGU 0.001 0.001 S2 S1 S1A S2A
ISOR 0.005 0.01 C13 C13A C14 C14A
ISOR 0.005 0.01 S2 S1 S1A S2A
 
L.S. 24
PLAN  20
TEMP -170.87
CONN 24 Ni2
CONN 24 Ni1
BOND
LIST 6
MORE -1
CONF
BOND $H
fmap 2
acta
REM <olex2.extras>
REM <HklSrc "%.\\cd89lt5.hkl">
REM </olex2.extras>
 
WGHT    0.017200    1.540100
BASF   0.47945
FVAR       0.82649   0.81076   0.56505   0.71746   0.84815
NI2   4    0.665332    1.066329    0.388804    11.00000    0.01395    0.02006 =
         0.01623    0.00116    0.00061   -0.00316
NI1   4    0.340251    0.566872    0.115966    11.00000    0.01595    0.02189 =
         0.01747   -0.00454    0.00095    0.00329
PART 1
S2    3    0.383121    1.063512    0.425820    51.00000    0.01822    0.02684 =
         0.01760    0.00197   -0.00645   -0.00447
 
S1    3    0.375226    0.453060   -0.069355    21.00000    0.01783    0.02848 =
         0.01768   -0.00645   -0.00572    0.00241
C13   1    0.298288    1.241831    0.478679    51.00000    0.01982    0.02482 =
         0.03318    0.00694   -0.00732    0.00266
AFIX  23
H13A  2    0.335130    1.304612    0.396437    51.00000   -1.20000
H13B  2    0.168332    1.240144    0.513722    51.00000   -1.20000
AFIX   0
C14   1    0.357705    1.298912    0.583873    51.00000    0.03636    0.02679 =
         0.03239    0.00114    0.00315    0.00461
AFIX 137
H14A  2    0.483974    1.316684    0.544888    51.00000   -1.50000
H14B  2    0.334730    1.232375    0.661495    51.00000   -1.50000
H14C  2    0.294269    1.385965    0.615800    51.00000   -1.50000
AFIX  56
 
C3    1    0.167846    0.741502    0.173433    31.00000    0.02713    0.02338 =
         0.01848   -0.01263   -0.00118    0.00747
AFIX  43
H3    2    0.167077    0.819701    0.115306    31.00000   -1.20000
AFIX  55
C2    1    0.262032    0.729163    0.266438    31.00000    0.02808    0.02668 =
         0.01664   -0.00805   -0.00489    0.00320
AFIX  43
H2    2    0.335336    0.797657    0.281457    31.00000   -1.20000
AFIX  55
C1    1    0.227408    0.596467    0.333053    31.00000    0.03099    0.01629 =
         0.02157   -0.00916    0.00020   -0.00248
AFIX  43
H1    2    0.273482    0.560599    0.400462    31.00000   -1.20000
AFIX  55
C5    1    0.111824    0.526796    0.281218    31.00000    0.02002    0.03312 =
         0.03054   -0.00284    0.00161   -0.00668
AFIX  43
H5    2    0.066995    0.436134    0.307860    31.00000   -1.20000
AFIX  55
C4    1    0.075013    0.616432    0.182567    31.00000    0.01267    0.03554 =
         0.02457   -0.00556    0.00453   -0.00521
AFIX  43
H4    2    0.001232    0.596268    0.131624    31.00000   -1.20000
AFIX   0
C7    1    0.355112    0.197205    0.077781    21.00000    0.02870    0.04056 =
         0.03773    0.00537   -0.00772   -0.00550
AFIX 137
H7A   2    0.483512    0.200317    0.038262    21.00000   -1.50000
H7B   2    0.316944    0.100772    0.084131    21.00000   -1.50000
H7C   2    0.315921    0.235991    0.169836    21.00000   -1.50000
AFIX  56
 
C11   1    0.794213    1.259545    0.307535    41.00000    0.02001    0.01781 =
         0.02553    0.00116    0.00095   -0.00524
AFIX  43
H11   2    0.748760    1.349574    0.335576    41.00000   -1.20000
AFIX  55
C10   1    0.768920    1.184531    0.200280    41.00000    0.02755    0.02954 =
         0.02233    0.00769   -0.00232   -0.00775
AFIX  43
H10   2    0.703574    1.215564    0.143968    41.00000   -1.20000
AFIX  55
C9    1    0.858451    1.054987    0.191975    41.00000    0.02923    0.03082 =
         0.02032    0.00222    0.00319   -0.00682
AFIX  43
H9    2    0.863518    0.984137    0.129131    41.00000   -1.20000
AFIX  55
C8    1    0.939076    1.049939    0.294097    41.00000    0.01155    0.01836 =
         0.03630    0.00127    0.00432   -0.00832
AFIX  43
H8    2    1.007554    0.975119    0.311569    41.00000   -1.20000
AFIX  55
C12   1    0.899376    1.176363    0.365517    41.00000    0.01709    0.02277 =
         0.03129    0.00208   -0.00155   -0.00352
AFIX  43
H12   2    0.936630    1.200971    0.439160    41.00000   -1.20000
AFIX   0
 
C6    1    0.279007    0.278521   -0.010021    21.00000    0.03234    0.03331 =
         0.02337   -0.00262   -0.00566   -0.01095
AFIX  23
H6A   2    0.151850    0.291003    0.040690    21.00000   -1.20000
H6B   2    0.291096    0.223980   -0.092142    21.00000   -1.20000
AFIX   0
PART 0
PART 2
S1A   3    0.459664    0.361808    0.081951   -21.00000    0.02865    0.02769 =
         0.03183    0.00863    0.00781    0.00165
C6A   1    0.312853    0.227804    0.057850   -21.00000    0.02726    0.04169 =
         0.02626   -0.00522   -0.00223   -0.01157
AFIX  23
H6AA  2    0.374533    0.138314    0.028583   -21.00000   -1.20000
H6AB  2    0.207300    0.213073    0.140489   -21.00000   -1.20000
AFIX   0
C7A   1    0.273443    0.301889   -0.052500   -21.00000    0.04596    0.05101 =
         0.03470    0.00471   -0.01394   -0.00308
AFIX 137
H7AA  2    0.150516    0.333221   -0.019465   -21.00000   -1.50000
H7AB  2    0.293055    0.240120   -0.129735   -21.00000   -1.50000
H7AC  2    0.350119    0.382404   -0.082890   -21.00000   -1.50000
AFIX  56
C5A   1    0.053183    0.573479    0.200757   -31.00000    0.01599    0.02417 =
         0.02593    0.00599    0.00287   -0.00390
AFIX  43
H5A   2   -0.023258    0.527403    0.164795   -31.00000   -1.20000
AFIX  55
C1A   1    0.116201    0.520355    0.304997   -31.00000    0.01579    0.03083 =
         0.01054    0.00036    0.00348   -0.00370
AFIX  43
H1A   2    0.089322    0.432499    0.351017   -31.00000   -1.20000
AFIX  55
C2A   1    0.226449    0.621610    0.328373   -31.00000    0.02933    0.03386 =
         0.02576   -0.00968   -0.00326   -0.00271
AFIX  43
H2A   2    0.286277    0.613387    0.392777   -31.00000   -1.20000
AFIX  55
C3A   1    0.231568    0.737312    0.238580   -31.00000    0.02853    0.02161 =
         0.02025   -0.01256   -0.00308   -0.00363
AFIX  43
H3A   2    0.295423    0.820086    0.232364   -31.00000   -1.20000
AFIX  55
C4A   1    0.124484    0.707566    0.159709   -31.00000    0.01671    0.02971 =
         0.03044    0.00604    0.00315    0.00559
AFIX  43
H4A   2    0.104120    0.766945    0.091463   -31.00000   -1.20000
AFIX  56
 
C10A  1    0.774665    1.136517    0.182116   -41.00000    0.02033    0.02807 =
         0.01881    0.00936    0.00005   -0.00962
AFIX  43
H10A  2    0.713491    1.134355    0.118679   -41.00000   -1.20000
AFIX  55
C9A   1    0.887229    1.030427    0.204375   -41.00000    0.00762    0.02632 =
         0.02771    0.00107    0.00531    0.00226
AFIX  43
H9A   2    0.914585    0.944828    0.158443   -41.00000   -1.20000
AFIX  55
C8A   1    0.951725    1.074747    0.307343   -41.00000    0.01791    0.02499 =
         0.02912   -0.00344    0.00007   -0.00295
AFIX  43
H8A   2    1.029805    1.024006    0.342393   -41.00000   -1.20000
AFIX  55
C12A  1    0.879022    1.208230    0.348722   -41.00000    0.01481    0.01835 =
         0.02871    0.00192   -0.00012   -0.01229
AFIX  43
H12A  2    0.899922    1.262468    0.416316   -41.00000   -1.20000
AFIX  55
C11A  1    0.769593    1.246405    0.271328   -41.00000    0.02444    0.02197 =
         0.02678    0.00979    0.00424    0.00050
AFIX  43
H11A  2    0.704430    1.330667    0.278054   -41.00000   -1.20000
AFIX   0
S2A   3    0.489373    1.106911    0.599435   -51.00000    0.02810    0.01607 =
         0.02720   -0.01101    0.00591   -0.00598
C13A  1    0.351827    1.266444    0.616654   -51.00000    0.02649    0.02889 =
         0.02877   -0.00059   -0.00807   -0.00005
AFIX  23
H13C  2    0.233651    1.231802    0.627645   -51.00000   -1.20000
H13D  2    0.342471    1.301683    0.707626   -51.00000   -1.20000
AFIX   0
C14A  1    0.369534    1.391490    0.529454   -51.00000    0.04347    0.03361 =
         0.04720    0.00116    0.00085    0.00029
AFIX 137
H14D  2    0.263115    1.405485    0.505715   -51.00000   -1.50000
H14E  2    0.471236    1.381044    0.445161   -51.00000   -1.50000
H14F  2    0.386124    1.471801    0.579005   -51.00000   -1.50000
AFIX   0
HKLF 5
 
REM  cd89lt4 in P-1 #2
REM R1 =  0.0322 for    3142 Fo > 4sig(Fo)  and  0.0383 for all    3340 data
REM    280 parameters refined using    418 restraints
 
END  
     
WGHT      0.0172      1.5400 

REM Highest difference peak  0.554,  deepest hole -0.513,  1-sigma level  0.094
Q1    1   0.2878  0.5714  0.0577  11.00000  0.05    0.55
Q2    1   0.8963  1.0332  0.1721  11.00000  0.05    0.49
Q3    1   0.3648  0.3722 -0.0020  11.00000  0.05    0.45
Q4    1   0.1311  0.7580  0.1771  11.00000  0.05    0.42
Q5    1   0.3193  0.4664  0.0963  11.00000  0.05    0.41
Q6    1   0.6809  0.9541  0.4032  11.00000  0.05    0.40
Q7    1   0.0694  0.6750  0.1138  11.00000  0.05    0.40
Q8    1   0.7634  1.0570  0.4244  11.00000  0.05    0.36
Q9    1   0.4229  0.4859  0.1410  11.00000  0.05    0.36
Q10   1   0.9267  1.0348  0.3287  11.00000  0.05    0.35
Q11   1   0.1564  0.4393  0.2946  11.00000  0.05    0.35
Q12   1   0.1534  0.5680  0.3257  11.00000  0.05    0.35
Q13   1   0.7002  1.2416  0.2427  11.00000  0.05    0.34
Q14   1   0.3565  0.6601  0.1237  11.00000  0.05    0.34
Q15   1   0.7816  1.0660  0.1588  11.00000  0.05    0.33
Q16   1   0.2619  1.2059  0.7387  11.00000  0.05    0.33
Q17   1   0.1513  0.3195  0.1485  11.00000  0.05    0.33
Q18   1   0.4719  0.3785 -0.0479  11.00000  0.05    0.32
Q19   1   0.8595  1.0745  0.2809  11.00000  0.05    0.32
Q20   1   0.2880  1.2562  0.5370  11.00000  0.05    0.31

REM The information below was added by Olex2.
REM
REM R1 = 0.0322 for 3142 Fo > 4sig(Fo) and 0.0383 for all 3340 data
REM n/a parameters refined using n/a restraints
REM Highest difference peak 0.55, deepest hole -0.51
REM Mean Shift 0, Max Shift 0.001.

REM +++ Tabular Listing of Refinement Information +++
REM R1_all = 0.0383
REM R1_gt = 0.0322
REM wR_ref = 0.0734
REM GOOF = 1.133
REM Shift_max = 0.001
REM Shift_mean = 0
REM Reflections_all = 3340
REM Reflections_gt = 3142
REM Parameters = n/a
REM Hole = -0.51
REM Peak = 0.55
REM Flack = n/a

;
_cod_data_source_file            om6b00068_si_002.cif
_cod_data_source_block           cd89lt4
_cod_database_code               4088418
_shelx_space_group_comment
;
The symmetry employed for this shelxl refinement is uniquely defined
by the following loop, which should always be used as a source of
symmetry information in preference to the above space-group names.
They are only intended as comments.
;
_olex2_refinement_description
;
1. Twinned data refinement
 Scales: 0.5206(13) 0.4794(13)
2. Fixed Uiso
 At 1.2 times of:
  All C(H) groups, All C(H,H) groups
 At 1.5 times of:
  All C(H,H,H) groups
3. Restrained distances
 S1-C6 \\sim S1A-C6A
 with sigma of 0.02
 C7A-C6A \\sim C7-C6
 with sigma of 0.02
 C14A-C13A \\sim C14-C13
 with sigma of 0.02
 S2-C13 \\sim S2A-C13A
 with sigma of 0.02
 C7-C6 \\sim C7A-C6A \\sim C14A-C13A \\sim C14-C13
 with sigma of 0.01
 Ni1-S1 \\sim Ni1-S1A \\sim Ni2-S2 \\sim Ni2-S2A
 with sigma of 0.005
4. Uiso/Uaniso restraints and constraints
C7 \\sim C7A \\sim C6 \\sim C6A: within 1.7A with sigma of 0.01 and sigma for
terminal atoms of 0.02
C10A \\sim C10 \\sim C9 \\sim C8 \\sim C12 \\sim C11 \\sim C9A \\sim C8A \\sim
C12A \\sim C11A: within 2A with sigma of 0.01 and sigma for terminal atoms of
0.02
C13 \\sim C14 \\sim C14A \\sim C13A: within 2A with sigma of 0.01 and sigma for
terminal atoms of 0.02
C4 \\sim C5A \\sim C1 \\sim C1A \\sim C5 \\sim C2A \\sim C2 \\sim C3A \\sim C3
\\sim C4A: within 1.7A with sigma of 0.01 and sigma for terminal atoms of 0.02
Uanis(C13) \\sim Ueq, Uanis(C13A) \\sim Ueq, Uanis(C14) \\sim Ueq, Uanis(C14A)
\\sim Ueq: with sigma of 0.005 and sigma for terminal atoms of 0.01
Uanis(S2) \\sim Ueq, Uanis(S1) \\sim Ueq, Uanis(S1A) \\sim Ueq, Uanis(S2A)
\\sim Ueq: with sigma of 0.005 and sigma for terminal atoms of 0.01
5. Rigid body (RIGU) restrains
 S2, S1, S1A, S2A
 with sigma for 1-2 distances of 0.001 and sigma for 1-3 distances of 0.001
6. Others
 Sof(S1A)=Sof(C6A)=Sof(H6AA)=Sof(H6AB)=Sof(C7A)=Sof(H7AA)=Sof(H7AB)=Sof(H7AC)=
 1-FVAR(1)
 Sof(S1)=Sof(C7)=Sof(H7A)=Sof(H7B)=Sof(H7C)=Sof(C6)=Sof(H6A)=Sof(H6B)=FVAR(1)
 Sof(C5A)=Sof(H5A)=Sof(C1A)=Sof(H1A)=Sof(C2A)=Sof(H2A)=Sof(C3A)=Sof(H3A)=
 Sof(C4A)=Sof(H4A)=1-FVAR(2)
 Sof(C3)=Sof(H3)=Sof(C2)=Sof(H2)=Sof(C1)=Sof(H1)=Sof(C5)=Sof(H5)=Sof(C4)=
 Sof(H4)=FVAR(2)
 Sof(C10A)=Sof(H10A)=Sof(C9A)=Sof(H9A)=Sof(C8A)=Sof(H8A)=Sof(C12A)=Sof(H12A)=
 Sof(C11A)=Sof(H11A)=1-FVAR(3)
 Sof(C11)=Sof(H11)=Sof(C10)=Sof(H10)=Sof(C9)=Sof(H9)=Sof(C8)=Sof(H8)=Sof(C12)=
 Sof(H12)=FVAR(3)
 Sof(S2A)=Sof(C13A)=Sof(H13C)=Sof(H13D)=Sof(C14A)=Sof(H14D)=Sof(H14E)=
 Sof(H14F)=1-FVAR(4)
 Sof(S2)=Sof(C13)=Sof(H13A)=Sof(H13B)=Sof(C14)=Sof(H14A)=Sof(H14B)=Sof(H14C)=
 FVAR(4)
7.a Secondary CH2 refined with riding coordinates:
 C13(H13A,H13B), C6(H6A,H6B), C6A(H6AA,H6AB), C13A(H13C,H13D)
7.b Aromatic/amide H refined with riding coordinates:
 C3(H3), C2(H2), C1(H1), C5(H5), C4(H4), C11(H11), C10(H10), C9(H9), C8(H8),
 C12(H12), C5A(H5A), C1A(H1A), C2A(H2A), C3A(H3A), C4A(H4A), C10A(H10A),
 C9A(H9A), C8A(H8A), C12A(H12A), C11A(H11A)
7.c Fitted pentagon refined as free rotating group:
 C3(C2,C1,C5,C4), C11(C10,C9,C8,C12), C5A(C1A,C2A,C3A,C4A), C10A(C9A,C8A,C12A,
 C11A)
7.d Idealised Me refined as rotating group:
 C14(H14A,H14B,H14C), C7(H7A,H7B,H7C), C7A(H7AA,H7AB,H7AC), C14A(H14D,H14E,H14F)
;
_olex2_submission_special_instructions 'No special instructions were received'
loop_
_space_group_symop_operation_xyz
'x, y, z'
'-x, -y, -z'
loop_
_atom_site_label
_atom_site_type_symbol
_atom_site_fract_x
_atom_site_fract_y
_atom_site_fract_z
_atom_site_U_iso_or_equiv
_atom_site_adp_type
_atom_site_occupancy
_atom_site_site_symmetry_order
_atom_site_calc_flag
_atom_site_refinement_flags_posn
_atom_site_refinement_flags_adp
_atom_site_refinement_flags_occupancy
_atom_site_disorder_assembly
_atom_site_disorder_group
Ni2 Ni 0.66533(6) 1.06633(5) 0.38880(5) 0.01823(11) Uani 1 1 d D . . . .
Ni1 Ni 0.34025(6) 0.56687(6) 0.11597(5) 0.02013(12) Uani 1 1 d D . . . .
S2 S 0.38312(14) 1.06351(13) 0.42582(11) 0.0208(3) Uani 0.848(3) 1 d D U P A 1
S1 S 0.37523(15) 0.45306(13) -0.06935(11) 0.0213(3) Uani 0.811(4) 1 d D U P B 1
C13 C 0.2983(7) 1.2418(5) 0.4787(5) 0.0266(10) Uani 0.848(3) 1 d D U P A 1
H13A H 0.3351 1.3046 0.3964 0.032 Uiso 0.848(3) 1 calc R . P A 1
H13B H 0.1683 1.2401 0.5137 0.032 Uiso 0.848(3) 1 calc R . P A 1
C14 C 0.3577(9) 1.2989(7) 0.5839(6) 0.0358(14) Uani 0.848(3) 1 d D U P A 1
H14A H 0.4840 1.3167 0.5449 0.054 Uiso 0.848(3) 1 calc GR . P A 1
H14B H 0.3347 1.2324 0.6615 0.054 Uiso 0.848(3) 1 calc GR . P A 1
H14C H 0.2943 1.3860 0.6158 0.054 Uiso 0.848(3) 1 calc GR . P A 1
C3 C 0.1678(15) 0.7415(9) 0.1734(7) 0.0246(19) Uani 0.57(2) 1 d . U P B 1
H3 H 0.1671 0.8197 0.1153 0.029 Uiso 0.57(2) 1 calc R . P B 1
C2 C 0.2620(13) 0.7292(8) 0.2664(10) 0.0244(18) Uani 0.57(2) 1 d G U P B 1
H2 H 0.3353 0.7977 0.2815 0.029 Uiso 0.57(2) 1 calc R . P B 1
C1 C 0.2274(16) 0.5965(9) 0.3331(9) 0.0251(17) Uani 0.57(2) 1 d G U P B 1
H1 H 0.2735 0.5606 0.4005 0.030 Uiso 0.57(2) 1 calc R . P B 1
C5 C 0.1118(16) 0.5268(8) 0.2812(12) 0.0304(19) Uani 0.57(2) 1 d G U P B 1
H5 H 0.0670 0.4361 0.3079 0.036 Uiso 0.57(2) 1 calc R . P B 1
C4 C 0.0750(12) 0.6164(13) 0.1826(10) 0.0269(18) Uani 0.57(2) 1 d G U P B 1
H4 H 0.0012 0.5963 0.1316 0.032 Uiso 0.57(2) 1 calc R . P B 1
C7 C 0.3551(9) 0.1972(8) 0.0778(8) 0.0367(17) Uani 0.811(4) 1 d D U P B 1
H7A H 0.4835 0.2003 0.0383 0.055 Uiso 0.811(4) 1 calc GR . P B 1
H7B H 0.3169 0.1008 0.0841 0.055 Uiso 0.811(4) 1 calc GR . P B 1
H7C H 0.3159 0.2360 0.1698 0.055 Uiso 0.811(4) 1 calc GR . P B 1
C11 C 0.7942(9) 1.2595(4) 0.3075(9) 0.0233(15) Uani 0.72(2) 1 d . U P A 1
H11 H 0.7488 1.3496 0.3356 0.028 Uiso 0.72(2) 1 calc R . P A 1
C10 C 0.7689(8) 1.1845(11) 0.2003(7) 0.0282(15) Uani 0.72(2) 1 d G U P A 1
H10 H 0.7036 1.2156 0.1440 0.034 Uiso 0.72(2) 1 calc R . P A 1
C9 C 0.8585(11) 1.0550(8) 0.1920(6) 0.0298(16) Uani 0.72(2) 1 d G U P A 1
H9 H 0.8635 0.9841 0.1291 0.036 Uiso 0.72(2) 1 calc R . P A 1
C8 C 0.9391(9) 1.0499(6) 0.2941(8) 0.0252(14) Uani 0.72(2) 1 d G U P A 1
H8 H 1.0076 0.9751 0.3116 0.030 Uiso 0.72(2) 1 calc R . P A 1
C12 C 0.8994(9) 1.1764(9) 0.3655(6) 0.0255(14) Uani 0.72(2) 1 d G U P A 1
H12 H 0.9366 1.2010 0.4392 0.031 Uiso 0.72(2) 1 calc R . P A 1
C6 C 0.2790(12) 0.2785(8) -0.0100(7) 0.0305(18) Uani 0.811(4) 1 d D U P B 1
H6A H 0.1519 0.2910 0.0407 0.037 Uiso 0.811(4) 1 calc R . P B 1
H6B H 0.2911 0.2240 -0.0921 0.037 Uiso 0.811(4) 1 calc R . P B 1
S1A S 0.4597(7) 0.3618(4) 0.0820(6) 0.0344(17) Uani 0.189(4) 1 d D U P B 2
C6A C 0.313(4) 0.228(3) 0.058(4) 0.033(5) Uani 0.189(4) 1 d D U P B 2
H6AA H 0.3745 0.1383 0.0286 0.040 Uiso 0.189(4) 1 calc R . P B 2
H6AB H 0.2073 0.2131 0.1405 0.040 Uiso 0.189(4) 1 calc R . P B 2
C7A C 0.273(7) 0.302(5) -0.052(4) 0.044(8) Uani 0.189(4) 1 d D U P B 2
H7AA H 0.1505 0.3332 -0.0195 0.066 Uiso 0.189(4) 1 calc GR . P B 2
H7AB H 0.2931 0.2401 -0.1297 0.066 Uiso 0.189(4) 1 calc GR . P B 2
H7AC H 0.3501 0.3824 -0.0829 0.066 Uiso 0.189(4) 1 calc GR . P B 2
C5A C 0.0532(16) 0.5735(16) 0.2008(12) 0.025(2) Uani 0.43(2) 1 d . U P B 2
H5A H -0.0233 0.5274 0.1648 0.030 Uiso 0.43(2) 1 calc R . P B 2
C1A C 0.116(2) 0.5204(10) 0.3050(13) 0.0211(19) Uani 0.43(2) 1 d G U P B 2
H1A H 0.0893 0.4325 0.3510 0.025 Uiso 0.43(2) 1 calc R . P B 2
C2A C 0.226(2) 0.6216(16) 0.3284(13) 0.031(2) Uani 0.43(2) 1 d G U P B 2
H2A H 0.2863 0.6134 0.3928 0.037 Uiso 0.43(2) 1 calc R . P B 2
C3A C 0.2316(19) 0.7373(10) 0.2386(16) 0.024(2) Uani 0.43(2) 1 d G U P B 2
H3A H 0.2954 0.8201 0.2324 0.029 Uiso 0.43(2) 1 calc R . P B 2
C4A C 0.1245(18) 0.7076(15) 0.1597(12) 0.029(2) Uani 0.43(2) 1 d G U P B 2
H4A H 0.1041 0.7669 0.0915 0.035 Uiso 0.43(2) 1 calc R . P B 2
C10A C 0.775(2) 1.137(3) 0.1821(16) 0.024(2) Uani 0.28(2) 1 d . U P A 2
H10A H 0.7135 1.1344 0.1187 0.029 Uiso 0.28(2) 1 calc R . P A 2
C9A C 0.887(3) 1.0304(15) 0.2044(19) 0.024(3) Uani 0.28(2) 1 d G U P A 2
H9A H 0.9146 0.9448 0.1584 0.028 Uiso 0.28(2) 1 calc R . P A 2
C8A C 0.952(2) 1.075(2) 0.307(2) 0.026(3) Uani 0.28(2) 1 d G U P A 2
H8A H 1.0298 1.0240 0.3424 0.031 Uiso 0.28(2) 1 calc R . P A 2
C12A C 0.879(3) 1.208(2) 0.3487(19) 0.022(3) Uani 0.28(2) 1 d G U P A 2
H12A H 0.8999 1.2625 0.4163 0.027 Uiso 0.28(2) 1 calc R . P A 2
C11A C 0.770(2) 1.2464(15) 0.271(2) 0.028(3) Uani 0.28(2) 1 d G U P A 2
H11A H 0.7044 1.3307 0.2781 0.034 Uiso 0.28(2) 1 calc R . P A 2
S2A S 0.4894(8) 1.1069(6) 0.5994(5) 0.0274(18) Uani 0.152(3) 1 d D U P A 2
C13A C 0.352(5) 1.266(3) 0.617(3) 0.028(4) Uani 0.152(3) 1 d D U P A 2
H13C H 0.2337 1.2318 0.6276 0.034 Uiso 0.152(3) 1 calc R . P A 2
H13D H 0.3425 1.3017 0.7076 0.034 Uiso 0.152(3) 1 calc R . P A 2
C14A C 0.370(4) 1.391(3) 0.529(3) 0.046(5) Uani 0.152(3) 1 d D U P A 2
H14D H 0.2631 1.4055 0.5057 0.069 Uiso 0.152(3) 1 calc GR . P A 2
H14E H 0.4712 1.3810 0.4452 0.069 Uiso 0.152(3) 1 calc GR . P A 2
H14F H 0.3861 1.4718 0.5790 0.069 Uiso 0.152(3) 1 calc GR . P A 2
loop_
_atom_site_aniso_label
_atom_site_aniso_U_11
_atom_site_aniso_U_22
_atom_site_aniso_U_33
_atom_site_aniso_U_23
_atom_site_aniso_U_13
_atom_site_aniso_U_12
Ni2 0.0140(2) 0.0201(2) 0.0162(2) 0.0012(2) 0.00061(17) -0.0032(2)
Ni1 0.0160(2) 0.0219(2) 0.0175(2) -0.0045(2) 0.00095(18) 0.0033(2)
S2 0.0182(5) 0.0268(6) 0.0176(5) 0.0020(4) -0.0065(4) -0.0045(5)
S1 0.0178(6) 0.0285(7) 0.0177(6) -0.0065(4) -0.0057(4) 0.0024(4)
C13 0.020(2) 0.025(2) 0.033(2) 0.0069(17) -0.0073(17) 0.0027(16)
C14 0.036(3) 0.027(3) 0.032(3) 0.001(2) 0.003(2) 0.005(3)
C3 0.027(4) 0.023(3) 0.018(3) -0.013(3) -0.001(3) 0.007(3)
C2 0.028(4) 0.027(3) 0.017(3) -0.008(3) -0.005(3) 0.003(3)
C1 0.031(3) 0.016(3) 0.022(3) -0.009(2) 0.000(3) -0.002(3)
C5 0.020(3) 0.033(3) 0.031(4) -0.003(3) 0.002(3) -0.007(3)
C4 0.013(3) 0.036(4) 0.025(3) -0.006(3) 0.005(3) -0.005(3)
C7 0.029(3) 0.041(4) 0.038(4) 0.005(3) -0.008(3) -0.006(3)
C11 0.020(3) 0.018(2) 0.026(3) 0.001(2) 0.001(2) -0.0052(19)
C10 0.028(2) 0.030(4) 0.022(3) 0.008(3) -0.002(2) -0.008(3)
C9 0.029(3) 0.031(3) 0.020(2) 0.002(2) 0.003(2) -0.007(3)
C8 0.012(2) 0.018(3) 0.036(3) 0.001(2) 0.004(2) -0.008(2)
C12 0.017(2) 0.023(3) 0.031(3) 0.002(2) -0.002(2) -0.004(2)
C6 0.032(3) 0.033(4) 0.023(4) -0.003(3) -0.006(3) -0.011(3)
S1A 0.029(3) 0.028(3) 0.032(3) 0.009(2) 0.008(2) 0.002(2)
C6A 0.027(8) 0.042(9) 0.026(9) -0.005(8) -0.002(8) -0.012(7)
C7A 0.046(11) 0.051(13) 0.035(14) 0.005(13) -0.014(13) -0.003(11)
C5A 0.016(4) 0.024(5) 0.026(4) 0.006(4) 0.003(3) -0.004(4)
C1A 0.016(3) 0.031(4) 0.011(3) 0.000(3) 0.003(3) -0.004(3)
C2A 0.029(4) 0.034(4) 0.026(4) -0.010(3) -0.003(3) -0.003(4)
C3A 0.029(4) 0.022(3) 0.020(4) -0.013(3) -0.003(3) -0.004(3)
C4A 0.017(4) 0.030(5) 0.030(4) 0.006(4) 0.003(3) 0.006(4)
C10A 0.020(4) 0.028(5) 0.019(4) 0.009(4) 0.000(4) -0.010(4)
C9A 0.008(4) 0.026(4) 0.028(4) 0.001(4) 0.005(4) 0.002(4)
C8A 0.018(4) 0.025(4) 0.029(4) -0.003(4) 0.000(4) -0.003(4)
C12A 0.015(4) 0.018(4) 0.029(4) 0.002(4) 0.000(4) -0.012(4)
C11A 0.024(4) 0.022(4) 0.027(5) 0.010(4) 0.004(4) 0.000(4)
S2A 0.028(3) 0.016(3) 0.027(3) -0.011(2) 0.006(2) -0.006(2)
C13A 0.026(5) 0.029(6) 0.029(6) -0.001(4) -0.008(4) 0.000(4)
C14A 0.043(8) 0.034(8) 0.047(8) 0.001(7) 0.001(6) 0.000(7)
loop_
_atom_type_symbol
_atom_type_description
_atom_type_scat_dispersion_real
_atom_type_scat_dispersion_imag
_atom_type_scat_source
C C 0.0033 0.0016 'International Tables Vol C Tables 4.2.6.8 and 6.1.1.4'
H H 0.0000 0.0000 'International Tables Vol C Tables 4.2.6.8 and 6.1.1.4'
S S 0.1246 0.1234 'International Tables Vol C Tables 4.2.6.8 and 6.1.1.4'
Ni Ni 0.3393 1.1124 'International Tables Vol C Tables 4.2.6.8 and 6.1.1.4'
loop_
_geom_angle_atom_site_label_1
_geom_angle_atom_site_label_2
_geom_angle_atom_site_label_3
_geom_angle
_geom_angle_site_symmetry_1
_geom_angle_site_symmetry_3
S2 Ni2 S2 88.06(5) 2_676 .
C11 Ni2 S2 115.66(19) . .
C11 Ni2 S2 137.2(3) . 2_676
C10 Ni2 S2 103.65(14) . .
C10 Ni2 S2 168.12(15) . 2_676
C10 Ni2 C11 38.57(8) . .
C9 Ni2 S2 131.7(3) . 2_676
C9 Ni2 S2 123.6(2) . .
C9 Ni2 C11 65.20(12) . .
C9 Ni2 C10 39.05(10) . .
C9 Ni2 C12 65.64(14) . .
C8 Ni2 S2 162.5(2) . .
C8 Ni2 S2 102.58(16) . 2_676
C8 Ni2 C11 65.29(13) . .
C8 Ni2 C10 65.58(14) . .
C8 Ni2 C9 39.45(12) . .
C8 Ni2 C12 39.19(11) . .
C12 Ni2 S2 150.7(2) . .
C12 Ni2 S2 105.5(2) . 2_676
C12 Ni2 C11 38.65(9) . .
C12 Ni2 C10 65.04(11) . .
C10A Ni2 C9A 38.8(3) . .
C10A Ni2 C8A 64.7(4) . .
C10A Ni2 C12A 65.2(3) . .
C10A Ni2 S2A 148.3(7) . .
C9A Ni2 C8A 38.2(3) . .
C9A Ni2 S2A 166.0(6) . .
C8A Ni2 S2A 128.0(5) . .
C12A Ni2 C9A 64.4(4) . .
C12A Ni2 C8A 38.2(3) . .
C12A Ni2 S2A 105.6(4) . .
C11A Ni2 C10A 39.4(2) . .
C11A Ni2 C9A 65.2(3) . .
C11A Ni2 C8A 64.8(3) . .
C11A Ni2 C12A 39.0(2) . .
C11A Ni2 S2A 114.1(6) . .
S2A Ni2 C10A 109.6(6) 2_676 .
S2A Ni2 C9A 102.4(4) 2_676 .
S2A Ni2 C8A 126.9(6) 2_676 .
S2A Ni2 C12A 165.0(5) 2_676 .
S2A Ni2 C11A 144.1(8) 2_676 .
S2A Ni2 S2A 85.93(19) 2_676 .
S1 Ni1 S1 87.64(4) . 2_665
C3 Ni1 S1 131.0(4) . 2_665
C3 Ni1 S1 122.6(3) . .
C3 Ni1 C2 38.54(12) . .
C3 Ni1 C1 65.08(18) . .
C2 Ni1 S1 103.7(3) . 2_665
C2 Ni1 S1 160.5(3) . .
C1 Ni1 S1 106.3(3) . 2_665
C1 Ni1 S1 152.8(3) . .
C1 Ni1 C2 38.41(15) . .
C5 Ni1 S1 116.2(3) . .
C5 Ni1 S1 137.8(4) . 2_665
C5 Ni1 C3 66.2(2) . .
C5 Ni1 C2 65.4(2) . .
C5 Ni1 C1 39.27(18) . .
C4 Ni1 S1 169.2(3) . 2_665
C4 Ni1 S1 102.5(2) . .
C4 Ni1 C3 39.51(13) . .
C4 Ni1 C2 65.53(17) . .
C4 Ni1 C1 66.1(2) . .
C4 Ni1 C5 40.03(18) . .
S1A Ni1 S1A 88.52(17) . 2_665
S1A Ni1 C5A 115.8(4) . .
S1A Ni1 C1A 98.9(3) . .
C5A Ni1 S1A 134.6(4) . 2_665
C5A Ni1 C1A 37.7(2) . .
C1A Ni1 S1A 171.4(3) . 2_665
C2A Ni1 S1A 141.3(4) . 2_665
C2A Ni1 S1A 115.0(4) . .
C2A Ni1 C5A 63.9(3) . .
C2A Ni1 C1A 38.0(2) . .
C3A Ni1 S1A 110.1(3) . 2_665
C3A Ni1 S1A 153.0(5) . .
C3A Ni1 C5A 64.8(2) . .
C3A Ni1 C1A 64.5(3) . .
C3A Ni1 C2A 39.0(2) . .
C3A Ni1 C4A 39.36(18) . .
C4A Ni1 S1A 153.5(5) . .
C4A Ni1 S1A 107.4(3) . 2_665
C4A Ni1 C5A 38.46(18) . .
C4A Ni1 C1A 64.1(3) . .
C4A Ni1 C2A 65.1(3) . .
Ni2 S2 Ni2 91.94(5) 2_676 .
C13 S2 Ni2 106.32(16) . .
C13 S2 Ni2 108.14(16) . 2_676
Ni1 S1 Ni1 92.36(4) . 2_665
C6 S1 Ni1 107.4(3) . 2_665
C6 S1 Ni1 106.0(2) . .
S2 C13 H13A 108.6 . .
S2 C13 H13B 108.6 . .
H13A C13 H13B 107.6 . .
C14 C13 S2 114.5(4) . .
C14 C13 H13A 108.6 . .
C14 C13 H13B 108.6 . .
C13 C14 H14A 109.5 . .
C13 C14 H14B 109.5 . .
C13 C14 H14C 109.5 . .
H14A C14 H14B 109.5 . .
H14A C14 H14C 109.5 . .
H14B C14 H14C 109.5 . .
Ni1 C3 H3 125.1 . .
C2 C3 Ni1 72.4(3) . .
C2 C3 H3 126.0 . .
C4 C3 Ni1 68.0(4) . .
C4 C3 H3 126.0 . .
C4 C3 C2 108.0 . .
Ni1 C2 H2 126.9 . .
C3 C2 Ni1 69.0(3) . .
C3 C2 H2 126.0 . .
C1 C2 Ni1 69.7(4) . .
C1 C2 C3 108.0 . .
C1 C2 H2 126.0 . .
Ni1 C1 H1 125.7 . .
C2 C1 Ni1 71.9(3) . .
C2 C1 H1 126.0 . .
C2 C1 C5 108.0 . .
C5 C1 Ni1 67.9(3) . .
C5 C1 H1 126.0 . .
Ni1 C5 H5 123.2 . .
C1 C5 Ni1 72.8(3) . .
C1 C5 H5 126.0 . .
C4 C5 Ni1 69.6(3) . .
C4 C5 C1 108.0 . .
C4 C5 H5 126.0 . .
Ni1 C4 H4 122.8 . .
C3 C4 Ni1 72.5(3) . .
C3 C4 H4 126.0 . .
C5 C4 Ni1 70.3(4) . .
C5 C4 C3 108.0 . .
C5 C4 H4 126.0 . .
H7A C7 H7B 109.5 . .
H7A C7 H7C 109.5 . .
H7B C7 H7C 109.5 . .
C6 C7 H7A 109.5 . .
C6 C7 H7B 109.5 . .
C6 C7 H7C 109.5 . .
Ni2 C11 H11 125.8 . .
C10 C11 Ni2 70.1(2) . .
C10 C11 H11 126.0 . .
C10 C11 C12 108.0 . .
C12 C11 Ni2 69.7(2) . .
C12 C11 H11 126.0 . .
Ni2 C10 H10 125.1 . .
C11 C10 Ni2 71.3(2) . .
C11 C10 H10 126.0 . .
C11 C10 C9 108.0 . .
C9 C10 Ni2 69.1(2) . .
C9 C10 H10 126.0 . .
Ni2 C9 H9 123.8 . .
C10 C9 Ni2 71.8(2) . .
C10 C9 H9 126.0 . .
C10 C9 C8 108.0 . .
C8 C9 Ni2 70.1(2) . .
C8 C9 H9 126.0 . .
Ni2 C8 H8 123.5 . .
C9 C8 Ni2 70.5(2) . .
C9 C8 H8 126.0 . .
C9 C8 C12 108.0 . .
C12 C8 Ni2 71.6(2) . .
C12 C8 H8 126.0 . .
Ni2 C12 H12 124.8 . .
C11 C12 Ni2 71.6(2) . .
C11 C12 C8 108.0 . .
C11 C12 H12 126.0 . .
C8 C12 Ni2 69.2(2) . .
C8 C12 H12 126.0 . .
S1 C6 H6A 108.2 . .
S1 C6 H6B 108.2 . .
C7 C6 S1 116.2(6) . .
C7 C6 H6A 108.2 . .
C7 C6 H6B 108.2 . .
H6A C6 H6B 107.4 . .
Ni1 S1A Ni1 91.49(17) . 2_665
C6A S1A Ni1 113.6(11) . .
C6A S1A Ni1 112.6(12) . 2_665
S1A C6A H6AA 112.6 . .
S1A C6A H6AB 112.6 . .
H6AA C6A H6AB 110.1 . .
C7A C6A S1A 96(3) . .
C7A C6A H6AA 112.6 . .
C7A C6A H6AB 112.6 . .
C6A C7A H7AA 109.5 . .
C6A C7A H7AB 109.5 . .
C6A C7A H7AC 109.5 . .
H7AA C7A H7AB 109.5 . .
H7AA C7A H7AC 109.5 . .
H7AB C7A H7AC 109.5 . .
Ni1 C5A H5A 125.5 . .
C1A C5A Ni1 71.9(5) . .
C1A C5A H5A 126.0 . .
C4A C5A Ni1 68.2(4) . .
C4A C5A H5A 126.0 . .
C4A C5A C1A 108.0 . .
Ni1 C1A H1A 126.3 . .
C5A C1A Ni1 70.4(4) . .
C5A C1A H1A 126.0 . .
C2A C1A Ni1 68.9(5) . .
C2A C1A C5A 108.0 . .
C2A C1A H1A 126.0 . .
Ni1 C2A H2A 124.1 . .
C1A C2A Ni1 73.1(5) . .
C1A C2A H2A 126.0 . .
C1A C2A C3A 108.0 . .
C3A C2A Ni1 68.4(4) . .
C3A C2A H2A 126.0 . .
Ni1 C3A H3A 121.9 . .
C2A C3A Ni1 72.6(5) . .
C2A C3A H3A 126.0 . .
C2A C3A C4A 108.0 . .
C4A C3A Ni1 71.2(5) . .
C4A C3A H3A 126.0 . .
Ni1 C4A H4A 122.8 . .
C5A C4A Ni1 73.4(5) . .
C5A C4A C3A 108.0 . .
C5A C4A H4A 126.0 . .
C3A C4A Ni1 69.5(5) . .
C3A C4A H4A 126.0 . .
Ni2 C10A H10A 123.1 . .
C9A C10A Ni2 72.5(7) . .
C9A C10A H10A 126.0 . .
C11A C10A Ni2 70.1(6) . .
C11A C10A H10A 126.0 . .
C11A C10A C9A 108.0 . .
Ni2 C9A H9A 125.0 . .
C10A C9A Ni2 68.7(6) . .
C10A C9A H9A 126.0 . .
C10A C9A C8A 108.0 . .
C8A C9A Ni2 71.9(6) . .
C8A C9A H9A 126.0 . .
Ni2 C8A H8A 126.0 . .
C9A C8A Ni2 70.0(6) . .
C9A C8A H8A 126.0 . .
C12A C8A Ni2 69.6(6) . .
C12A C8A C9A 108.0 . .
C12A C8A H8A 126.0 . .
Ni2 C12A H12A 124.7 . .
C8A C12A Ni2 72.1(7) . .
C8A C12A H12A 126.0 . .
C11A C12A Ni2 68.8(6) . .
C11A C12A C8A 108.0 . .
C11A C12A H12A 126.0 . .
Ni2 C11A H11A 122.9 . .
C10A C11A Ni2 70.5(6) . .
C10A C11A H11A 126.0 . .
C12A C11A Ni2 72.3(7) . .
C12A C11A C10A 108.0 . .
C12A C11A H11A 126.0 . .
Ni2 S2A Ni2 94.07(19) 2_676 .
C13A S2A Ni2 114.8(11) . .
C13A S2A Ni2 109.3(13) . 2_676
S2A C13A H13C 104.2 . .
S2A C13A H13D 104.2 . .
H13C C13A H13D 105.5 . .
C14A C13A S2A 132(2) . .
C14A C13A H13C 104.2 . .
C14A C13A H13D 104.2 . .
C13A C14A H14D 109.5 . .
C13A C14A H14E 109.5 . .
C13A C14A H14F 109.5 . .
H14D C14A H14E 109.5 . .
H14D C14A H14F 109.5 . .
H14E C14A H14F 109.5 . .
loop_
_geom_bond_atom_site_label_1
_geom_bond_atom_site_label_2
_geom_bond_distance
_geom_bond_site_symmetry_2
Ni2 S2 2.1869(13) .
Ni2 S2 2.1793(13) 2_676
Ni2 C11 2.157(5) .
Ni2 C10 2.141(5) .
Ni2 C9 2.106(7) .
Ni2 C8 2.101(7) .
Ni2 C12 2.133(6) .
Ni2 C10A 2.110(15) .
Ni2 C9A 2.159(18) .
Ni2 C8A 2.184(19) .
Ni2 C12A 2.151(16) .
Ni2 C11A 2.105(15) .
Ni2 S2A 2.088(6) 2_676
Ni2 S2A 2.201(4) .
Ni1 S1 2.1936(14) 2_665
Ni1 S1 2.1732(12) .
Ni1 C3 2.128(7) .
Ni1 C2 2.173(8) .
Ni1 C1 2.143(10) .
Ni1 C5 2.079(11) .
Ni1 C4 2.070(9) .
Ni1 S1A 2.167(4) .
Ni1 S1A 2.232(5) 2_665
Ni1 C5A 2.188(12) .
Ni1 C1A 2.207(14) .
Ni1 C2A 2.152(14) .
Ni1 C3A 2.097(12) .
Ni1 C4A 2.119(10) .
S2 Ni2 2.1793(13) 2_676
S2 C13 1.865(5) .
S1 Ni1 2.1936(14) 2_665
S1 C6 1.866(8) .
C13 H13A 0.9900 .
C13 H13B 0.9900 .
C13 C14 1.461(7) .
C14 H14A 0.9800 .
C14 H14B 0.9800 .
C14 H14C 0.9800 .
C3 H3 0.9500 .
C3 C2 1.4200 .
C3 C4 1.4200 .
C2 H2 0.9500 .
C2 C1 1.4200 .
C1 H1 0.9500 .
C1 C5 1.4200 .
C5 H5 0.9500 .
C5 C4 1.4200 .
C4 H4 0.9500 .
C7 H7A 0.9800 .
C7 H7B 0.9800 .
C7 H7C 0.9800 .
C7 C6 1.461(7) .
C11 H11 0.9500 .
C11 C10 1.4200 .
C11 C12 1.4200 .
C10 H10 0.9500 .
C10 C9 1.4200 .
C9 H9 0.9500 .
C9 C8 1.4200 .
C8 H8 0.9500 .
C8 C12 1.4200 .
C12 H12 0.9500 .
C6 H6A 0.9900 .
C6 H6B 0.9900 .
S1A Ni1 2.232(5) 2_665
S1A C6A 1.857(18) .
C6A H6AA 0.9900 .
C6A H6AB 0.9900 .
C6A C7A 1.450(10) .
C7A H7AA 0.9800 .
C7A H7AB 0.9800 .
C7A H7AC 0.9800 .
C5A H5A 0.9500 .
C5A C1A 1.4200 .
C5A C4A 1.4200 .
C1A H1A 0.9500 .
C1A C2A 1.4200 .
C2A H2A 0.9500 .
C2A C3A 1.4200 .
C3A H3A 0.9500 .
C3A C4A 1.4200 .
C4A H4A 0.9500 .
C10A H10A 0.9500 .
C10A C9A 1.4200 .
C10A C11A 1.4200 .
C9A H9A 0.9500 .
C9A C8A 1.4200 .
C8A H8A 0.9500 .
C8A C12A 1.4200 .
C12A H12A 0.9500 .
C12A C11A 1.4200 .
C11A H11A 0.9500 .
S2A Ni2 2.088(6) 2_676
S2A C13A 1.856(19) .
C13A H13C 0.9900 .
C13A H13D 0.9900 .
C13A C14A 1.461(10) .
C14A H14D 0.9800 .
C14A H14E 0.9800 .
C14A H14F 0.9800 .
loop_
_geom_torsion_atom_site_label_1
_geom_torsion_atom_site_label_2
_geom_torsion_atom_site_label_3
_geom_torsion_atom_site_label_4
_geom_torsion
_geom_torsion_site_symmetry_1
Ni2 S2_a C13_a C14_a 50.2(4) 2_676
Ni2 S2 C13 C14 -47.5(4) .
Ni2 C11 C10 C9 -59.7(2) .
Ni2 C11 C12 C8 59.9(2) .
Ni2 C10 C9 C8 -61.0(2) .
Ni2 C9 C8 C12 -62.2(2) .
Ni2 C8 C12 C11 -61.4(2) .
Ni2 C10A C9A C8A -61.4(6) .
Ni2 C10A C11A C12A 63.0(7) .
Ni2 C9A C8A C12A -59.5(6) .
Ni2 C8A C12A C11A -59.7(6) .
Ni2 C12A C11A C10A -61.8(6) .
Ni2 S2A C13A C14A -21(5) .
Ni2 S2A C13A C14A -125(4) 2_676
Ni1 S1 C6 C7 38.9(7) 2_665
Ni1 S1 C6 C7 -58.8(7) .
Ni1 C3 C2 C1 -59.0(4) .
Ni1 C3 C4 C5 61.7(4) .
Ni1 C2 C1 C5 -58.6(3) .
Ni1 C1 C5 C4 -61.1(3) .
Ni1 C5 C4 C3 -63.1(3) .
Ni1 S1A C6A C7A 54(3) .
Ni1 S1A C6A C7A -48(3) 2_665
Ni1 C5A C1A C2A 58.8(4) .
Ni1 C5A C4A C3A -61.2(5) .
Ni1 C1A C2A C3A 59.8(4) .
Ni1 C2A C3A C4A 62.8(5) .
Ni1 C3A C4A C5A 63.7(5) .
C3 C2 C1 Ni1 58.6(3) .
C3 C2 C1 C5 0.0 .
C2 C3 C4 Ni1 -61.7(4) .
C2 C3 C4 C5 0.0 .
C2 C1 C5 Ni1 61.1(3) .
C2 C1 C5 C4 0.0 .
C1 C5 C4 Ni1 63.1(3) .
C1 C5 C4 C3 0.0 .
C4 C3 C2 Ni1 59.0(4) .
C4 C3 C2 C1 0.0 .
C11 C10 C9 Ni2 61.0(2) .
C11 C10 C9 C8 0.0 .
C10 C11 C12 Ni2 -59.9(2) .
C10 C11 C12 C8 0.0 .
C10 C9 C8 Ni2 62.2(2) .
C10 C9 C8 C12 0.0 .
C9 C8 C12 Ni2 61.4(2) .
C9 C8 C12 C11 0.0 .
C12 C11 C10 Ni2 59.7(2) .
C12 C11 C10 C9 0.0 .
C5A C1A C2A Ni1 -59.8(4) .
C5A C1A C2A C3A 0.0 .
C1A C5A C4A Ni1 61.2(5) .
C1A C5A C4A C3A 0.0 .
C1A C2A C3A Ni1 -62.8(5) .
C1A C2A C3A C4A 0.0 .
C2A C3A C4A Ni1 -63.7(5) .
C2A C3A C4A C5A 0.0 .
C4A C5A C1A Ni1 -58.8(4) .
C4A C5A C1A C2A 0.0 .
C10A C9A C8A Ni2 59.5(6) .
C10A C9A C8A C12A 0.0 .
C9A C10A C11A Ni2 -63.0(7) .
C9A C10A C11A C12A 0.0 .
C9A C8A C12A Ni2 59.7(6) .
C9A C8A C12A C11A 0.0 .
C8A C12A C11A Ni2 61.8(6) .
C8A C12A C11A C10A 0.0 .
C11A C10A C9A Ni2 61.4(6) .
C11A C10A C9A C8A 0.0 .
loop_
_refln_index_h
_refln_index_k
_refln_index_l
_refln_F_squared_meas
_refln_F_squared_sigma
_refln_scale_group_code
3 0 0 7807.7 249.492 -2
3 0 0 7807.7 249.492 1
4 0 0 3856.51 43.9727 -2
4 0 0 3856.51 43.9727 1
5 0 0 323.572 3.75541 -2
5 0 0 323.572 3.75541 1
6 0 0 1351.55 12.8659 -2
6 0 0 1351.55 12.8659 1
7 0 0 1586.28 20.2756 -2
7 0 0 1586.28 20.2756 1
8 0 0 41.2598 1.88827 -2
8 0 0 41.2598 1.88827 1
9 0 0 315.173 5.90449 -2
9 0 0 315.173 5.90449 1
9 1 0 5.12071 3.59169 -2
-9 1 0 5.12071 3.59169 1
8 1 0 247.464 3.95141 -2
-8 1 0 247.464 3.95141 1
7 1 0 84.7504 2.04467 -2
-7 1 0 84.7504 2.04467 1
6 1 0 11.6632 0.81678 -2
-6 1 0 11.6632 0.81678 1
5 1 0 52.8706 1.11449 -2
-5 1 0 52.8706 1.11449 1
4 1 0 114.655 1.37474 -2
-4 1 0 114.655 1.37474 1
3 1 0 61.2947 0.84838 -2
-3 1 0 61.2947 0.84838 1
2 1 0 1155.99 9.80475 -2
-2 1 0 1155.99 9.80475 1
1 1 0 1232.19 10.6439 -2
-1 1 0 1232.19 10.6439 1
-1 1 0 1267.71 14.4552 -2
1 1 0 1267.71 14.4552 1
-2 1 0 1181.21 11.7976 -2
2 1 0 1181.21 11.7976 1
-3 1 0 62.6195 1.03611 -2
3 1 0 62.6195 1.03611 1
-4 1 0 113.476 1.59381 -2
4 1 0 113.476 1.59381 1
-5 1 0 59.8673 1.13601 -2
5 1 0 59.8673 1.13601 1
-6 1 0 8.19398 0.91137 -2
6 1 0 8.19398 0.91137 1
-7 1 0 85.9397 2.02923 -2
7 1 0 85.9397 2.02923 1
-8 1 0 253.266 3.93449 -2
8 1 0 253.266 3.93449 1
-9 1 0 4.54555 2.27293 -2
9 1 0 4.54555 2.27293 1
9 2 0 48.8678 2.71662 -2
-9 2 0 48.8678 2.71662 1
8 2 0 -10.689 3.65195 -2
-8 2 0 -10.689 3.65195 1
7 2 0 487.052 7.49215 -2
-7 2 0 487.052 7.49215 1
6 2 0 640.637 7.99007 -2
-6 2 0 640.637 7.99007 1
5 2 0 10.6968 0.73287 -2
-5 2 0 10.6968 0.73287 1
4 2 0 2123.66 16.4115 -2
-4 2 0 2123.66 16.4115 1
3 2 0 2718.98 21.8477 -2
-3 2 0 2718.98 21.8477 1
2 2 0 282.612 2.35957 -2
-2 2 0 282.612 2.35957 1
1 2 0 748.105 6.21078 -2
-1 2 0 748.105 6.21078 1
0 2 0 1784.31 42.7673 -2
0 2 0 1784.31 42.7673 1
-1 2 0 758.514 5.79767 -2
1 2 0 758.514 5.79767 1
-2 2 0 308.872 2.60685 -2
2 2 0 308.872 2.60685 1
-3 2 0 2708.34 21.864 -2
3 2 0 2708.34 21.864 1
-4 2 0 2109.34 19.2475 -2
4 2 0 2109.34 19.2475 1
-5 2 0 7.73939 0.83623 -2
5 2 0 7.73939 0.83623 1
-6 2 0 592.46 6.31962 -2
6 2 0 592.46 6.31962 1
-7 2 0 450.167 6.79571 -2
7 2 0 450.167 6.79571 1
-8 2 0 2.14449 1.67554 -2
8 2 0 2.14449 1.67554 1
-9 2 0 76.1863 2.098 -2
9 2 0 76.1863 2.098 1
9 3 0 -1.8992 3.30114 -2
-9 3 0 -1.8992 3.30114 1
8 3 0 690.364 11.886 -2
-8 3 0 690.364 11.886 1
7 3 0 1221.92 16.4263 -2
-7 3 0 1221.92 16.4263 1
6 3 0 56.3976 1.29049 -2
-6 3 0 56.3976 1.29049 1
5 3 0 1056.95 8.65838 -2
-5 3 0 1056.95 8.65838 1
4 3 0 3696.48 27.0752 -2
-4 3 0 3696.48 27.0752 1
3 3 0 41.7223 0.68697 -2
-3 3 0 41.7223 0.68697 1
2 3 0 1498.22 11.6848 -2
-2 3 0 1498.22 11.6848 1
1 3 0 3040.05 71.0431 -2
-1 3 0 3040.05 71.0431 1
0 3 0 4.06994 0.18136 -2
0 3 0 4.06994 0.18136 1
-1 3 0 2956.68 68.4149 -2
1 3 0 2956.68 68.4149 1
-2 3 0 1508.17 12.1107 -2
2 3 0 1508.17 12.1107 1
-3 3 0 45.7331 0.65239 -2
3 3 0 45.7331 0.65239 1
-4 3 0 3771.84 30.5463 -2
4 3 0 3771.84 30.5463 1
-5 3 0 1053.69 8.96929 -2
5 3 0 1053.69 8.96929 1
-6 3 0 54.9555 1.4068 -2
6 3 0 54.9555 1.4068 1
-7 3 0 1206.86 15.7427 -2
7 3 0 1206.86 15.7427 1
-8 3 0 713.993 7.75681 -2
8 3 0 713.993 7.75681 1
-9 3 0 0.89326 2.66558 -2
9 3 0 0.89326 2.66558 1
9 4 0 18.4972 3.66575 -2
-9 4 0 18.4972 3.66575 1
8 4 0 4.08498 3.30145 -2
-8 4 0 4.08498 3.30145 1
7 4 0 114.07 2.32743 -2
-7 4 0 114.07 2.32743 1
6 4 0 16.9432 1.18028 -2
-6 4 0 16.9432 1.18028 1
5 4 0 10.1197 0.79016 -2
-5 4 0 10.1197 0.79016 1
4 4 0 40.1913 0.91087 -2
-4 4 0 40.1913 0.91087 1
3 4 0 8.91243 0.51707 -2
-3 4 0 8.91243 0.51707 1
2 4 0 224.455 2.14057 -2
-2 4 0 224.455 2.14057 1
1 4 0 116.521 1.22573 -2
-1 4 0 116.521 1.22573 1
0 4 0 333.366 2.91726 -2
0 4 0 333.366 2.91726 1
-1 4 0 99.8676 0.97169 -2
1 4 0 99.8676 0.97169 1
-2 4 0 216.637 1.79249 -2
2 4 0 216.637 1.79249 1
-3 4 0 8.00121 0.45271 -2
3 4 0 8.00121 0.45271 1
-4 4 0 37.3433 0.72811 -2
4 4 0 37.3433 0.72811 1
-5 4 0 9.44014 0.72603 -2
5 4 0 9.44014 0.72603 1
-6 4 0 15.9045 1.23516 -2
6 4 0 15.9045 1.23516 1
-7 4 0 137.44 2.49778 -2
7 4 0 137.44 2.49778 1
-8 4 0 0.60669 1.85091 -2
8 4 0 0.60669 1.85091 1
-9 4 0 5.06054 2.57541 -2
9 4 0 5.06054 2.57541 1
8 5 0 511.808 6.25574 -2
-8 5 0 511.808 6.25574 1
7 5 0 931.525 10.0883 -2
-7 5 0 931.525 10.0883 1
6 5 0 72.1547 1.87961 -2
-6 5 0 72.1547 1.87961 1
5 5 0 467.491 6.2001 -2
-5 5 0 467.491 6.2001 1
4 5 0 825.961 7.11086 -2
-4 5 0 825.961 7.11086 1
3 5 0 16.0616 0.60076 -2
-3 5 0 16.0616 0.60076 1
2 5 0 113.475 1.31305 -2
-2 5 0 113.475 1.31305 1
1 5 0 1084.29 9.10205 -2
-1 5 0 1084.29 9.10205 1
0 5 0 7.24661 0.35239 -2
0 5 0 7.24661 0.35239 1
-1 5 0 1153.83 9.55522 -2
1 5 0 1153.83 9.55522 1
-2 5 0 113.524 1.16094 -2
2 5 0 113.524 1.16094 1
-3 5 0 21.5858 0.57264 -2
3 5 0 21.5858 0.57264 1
-4 5 0 853.562 7.26726 -2
4 5 0 853.562 7.26726 1
-5 5 0 474.985 4.31443 -2
5 5 0 474.985 4.31443 1
-6 5 0 74.6049 1.59139 -2
6 5 0 74.6049 1.59139 1
-7 5 0 902.184 9.06909 -2
7 5 0 902.184 9.06909 1
-8 5 0 498.296 7.13825 -2
8 5 0 498.296 7.13825 1
8 6 0 13.2498 2.40697 -2
-8 6 0 13.2498 2.40697 1
7 6 0 342.163 4.84305 -2
-7 6 0 342.163 4.84305 1
6 6 0 662.382 8.70008 -2
-6 6 0 662.382 8.70008 1
5 6 0 21.7855 1.54175 -2
-5 6 0 21.7855 1.54175 1
4 6 0 472.263 4.95198 -2
-4 6 0 472.263 4.95198 1
3 6 0 1816.29 14.8285 -2
-3 6 0 1816.29 14.8285 1
2 6 0 638.729 5.5473 -2
-2 6 0 638.729 5.5473 1
1 6 0 760.238 6.43808 -2
-1 6 0 760.238 6.43808 1
0 6 0 3853.99 39.5556 -2
0 6 0 3853.99 39.5556 1
-1 6 0 816.301 6.64591 -2
1 6 0 816.301 6.64591 1
-2 6 0 641.527 5.33968 -2
2 6 0 641.527 5.33968 1
-3 6 0 1791.41 14.1037 -2
3 6 0 1791.41 14.1037 1
-4 6 0 512.079 4.54053 -2
4 6 0 512.079 4.54053 1
-5 6 0 21.2588 1.0237 -2
5 6 0 21.2588 1.0237 1
-6 6 0 637.166 6.44059 -2
6 6 0 637.166 6.44059 1
-7 6 0 329.988 3.67793 -2
7 6 0 329.988 3.67793 1
-8 6 0 11.6483 2.28084 -2
8 6 0 11.6483 2.28084 1
7 7 0 78.0894 2.49035 -2
-7 7 0 78.0894 2.49035 1
6 7 0 231.141 3.53169 -2
-6 7 0 231.141 3.53169 1
5 7 0 -2.819 1.88925 -2
-5 7 0 -2.819 1.88925 1
4 7 0 235.551 5.59298 -2
-4 7 0 235.551 5.59298 1
3 7 0 4.14659 1.0668 -2
-3 7 0 4.14659 1.0668 1
2 7 0 35.1237 0.87811 -2
-2 7 0 35.1237 0.87811 1
1 7 0 8.18139 0.5693 -2
-1 7 0 8.18139 0.5693 1
0 7 0 15.6219 0.54969 -2
0 7 0 15.6219 0.54969 1
-1 7 0 11.1785 0.52752 -2
1 7 0 11.1785 0.52752 1
-2 7 0 31.9147 0.7497 -2
2 7 0 31.9147 0.7497 1
-3 7 0 5.43191 0.74357 -2
3 7 0 5.43191 0.74357 1
-4 7 0 250.178 3.15515 -2
4 7 0 250.178 3.15515 1
-5 7 0 5.37638 0.96669 -2
5 7 0 5.37638 0.96669 1
-6 7 0 239.195 2.86507 -2
6 7 0 239.195 2.86507 1
-7 7 0 77.1228 1.85587 -2
7 7 0 77.1228 1.85587 1
8 7 0 4.79747 0.89756 1
7 8 0 346.159 4.35237 -2
-7 8 0 346.159 4.35237 1
6 8 0 497.438 6.00476 -2
-6 8 0 497.438 6.00476 1
5 8 0 18.2482 1.4811 -2
-5 8 0 18.2482 1.4811 1
4 8 0 1183.17 14.4632 -2
-4 8 0 1183.17 14.4632 1
3 8 0 1998.27 25.6003 -2
-3 8 0 1998.27 25.6003 1
2 8 0 136.141 2.23538 -2
-2 8 0 136.141 2.23538 1
1 8 0 605.468 6.83314 -2
-1 8 0 605.468 6.83314 1
0 8 0 2208.55 17.7611 -2
0 8 0 2208.55 17.7611 1
-1 8 0 673.983 5.77125 -2
1 8 0 673.983 5.77125 1
-2 8 0 127.234 1.60545 -2
2 8 0 127.234 1.60545 1
-3 8 0 2001.18 18.4782 -2
3 8 0 2001.18 18.4782 1
-4 8 0 1192.66 11.4042 -2
4 8 0 1192.66 11.4042 1
-5 8 0 13.2167 1.07987 -2
5 8 0 13.2167 1.07987 1
-6 8 0 452.244 4.77089 -2
6 8 0 452.244 4.77089 1
-7 8 0 342.277 4.27306 -2
7 8 0 342.277 4.27306 1
6 9 0 24.8893 2.34871 -2
-6 9 0 24.8893 2.34871 1
5 9 0 97.9243 2.3987 -2
-5 9 0 97.9243 2.3987 1
4 9 0 164.421 2.80813 -2
-4 9 0 164.421 2.80813 1
3 9 0 12.5665 1.46711 -2
-3 9 0 12.5665 1.46711 1
2 9 0 310.531 5.09341 -2
-2 9 0 310.531 5.09341 1
1 9 0 188.698 2.7342 -2
-1 9 0 188.698 2.7342 1
0 9 0 99.3575 1.51701 -2
0 9 0 99.3575 1.51701 1
-1 9 0 207.054 2.52811 -2
1 9 0 207.054 2.52811 1
-2 9 0 332.673 3.57283 -2
2 9 0 332.673 3.57283 1
-3 9 0 19.2852 1.20157 -2
3 9 0 19.2852 1.20157 1
-4 9 0 190.767 2.43294 -2
4 9 0 190.767 2.43294 1
-5 9 0 92.5056 1.77658 -2
5 9 0 92.5056 1.77658 1
-6 9 0 21.8114 1.56102 -2
6 9 0 21.8114 1.56102 1
5 10 0 6.27761 2.11118 -2
-5 10 0 6.27761 2.11118 1
4 10 0 118.241 2.48675 -2
-4 10 0 118.241 2.48675 1
3 10 0 309.289 5.02549 -2
-3 10 0 309.289 5.02549 1
2 10 0 144.829 2.46783 -2
-2 10 0 144.829 2.46783 1
1 10 0 95.2918 1.92215 -2
-1 10 0 95.2918 1.92215 1
0 10 0 515.758 4.73979 -2
0 10 0 515.758 4.73979 1
-1 10 0 106.092 1.95163 -2
1 10 0 106.092 1.95163 1
-2 10 0 132.88 1.87138 -2
2 10 0 132.88 1.87138 1
-3 10 0 276.856 3.50785 -2
3 10 0 276.856 3.50785 1
-4 10 0 135.862 2.12569 -2
4 10 0 135.862 2.12569 1
-5 10 0 8.40392 1.29102 -2
5 10 0 8.40392 1.29102 1
4 11 0 254.754 4.71882 -2
-4 11 0 254.754 4.71882 1
3 11 0 8.81642 1.52087 -2
-3 11 0 8.81642 1.52087 1
2 11 0 275.798 3.01442 -2
-2 11 0 275.798 3.01442 1
1 11 0 320.925 3.43114 -2
-1 11 0 320.925 3.43114 1
0 11 0 27.0215 1.0064 -2
0 11 0 27.0215 1.0064 1
-1 11 0 331.579 3.73086 -2
1 11 0 331.579 3.73086 1
-2 11 0 275.061 4.15904 -2
2 11 0 275.061 4.15904 1
-3 11 0 5.14757 1.17889 -2
3 11 0 5.14757 1.17889 1
-4 11 0 230.602 3.12869 -2
4 11 0 230.602 3.12869 1
2 12 0 27.7309 2.12168 -2
-2 12 0 27.7309 2.12168 1
1 12 0 -0.3636 1.46676 -2
-1 12 0 -0.3636 1.46676 1
0 12 0 2.56797 0.75491 -2
0 12 0 2.56797 0.75491 1
-1 12 0 0.30557 1.60229 -2
1 12 0 0.30557 1.60229 1
-2 12 0 27.0551 1.87621 -2
2 12 0 27.0551 1.87621 1
-1 12 1 221.151 3.26246 -2
-1 -12 1 221.151 3.26246 1
0 12 1 207.152 2.98639 -2
0 -12 1 207.152 2.98639 1
1 12 1 -3.4797 1.95555 -2
1 -12 1 -3.4797 1.95555 1
2 12 1 114.699 2.98447 -2
2 -12 1 114.699 2.98447 1
-4 11 1 26.8522 5.47957 -2
-4 -11 1 26.8522 5.47957 1
-3 11 1 34.0828 1.52089 -2
-3 -11 1 34.0828 1.52089 1
-2 11 1 11.2533 1.08408 -2
-2 -11 1 11.2533 1.08408 1
-1 11 1 47.5205 1.54118 -2
-1 -11 1 47.5205 1.54118 1
0 11 1 111.325 2.09751 -2
0 -11 1 111.325 2.09751 1
1 11 1 61.0527 1.97774 -2
1 -11 1 61.0527 1.97774 1
2 11 1 16.5956 1.65777 -2
2 -11 1 16.5956 1.65777 1
3 11 1 51.0109 1.99586 -2
3 -11 1 51.0109 1.99586 1
4 11 1 32.6068 2.6991 -2
4 -11 1 32.6068 2.6991 1
-5 10 1 50.4267 2.48293 -2
-5 -10 1 50.4267 2.48293 1
-4 10 1 427.047 4.95224 -2
-4 -10 1 427.047 4.95224 1
-3 10 1 208.997 3.35647 -2
-3 -10 1 208.997 3.35647 1
-2 10 1 70.5709 1.58099 -2
-2 -10 1 70.5709 1.58099 1
-1 10 1 645.356 6.31842 -2
-1 -10 1 645.356 6.31842 1
0 10 1 264.034 3.05636 -2
0 -10 1 264.034 3.05636 1
1 10 1 20.8844 1.60009 -2
1 -10 1 20.8844 1.60009 1
2 10 1 316.588 4.38014 -2
2 -10 1 316.588 4.38014 1
3 10 1 218.155 3.56527 -2
3 -10 1 218.155 3.56527 1
4 10 1 36.3501 2.13676 -2
4 -10 1 36.3501 2.13676 1
5 10 1 124.314 3.21532 -2
5 -10 1 124.314 3.21532 1
-6 9 1 121.003 2.23938 -2
-6 -9 1 121.003 2.23938 1
-5 9 1 78.3115 1.67546 -2
-5 -9 1 78.3115 1.67546 1
-4 9 1 44.515 1.22081 -2
-4 -9 1 44.515 1.22081 1
-3 9 1 639.834 6.20605 -2
-3 -9 1 639.834 6.20605 1
-2 9 1 320.125 3.43804 -2
-2 -9 1 320.125 3.43804 1
-1 9 1 27.3894 0.97646 -2
-1 -9 1 27.3894 0.97646 1
0 9 1 824.996 10.3292 -2
0 -9 1 824.996 10.3292 1
1 9 1 734.164 9.00926 -2
1 -9 1 734.164 9.00926 1
2 9 1 27.9843 2.08751 -2
2 -9 1 27.9843 2.08751 1
3 9 1 677.255 9.72088 -2
3 -9 1 677.255 9.72088 1
4 9 1 1144.96 10.7789 -2
4 -9 1 1144.96 10.7789 1
5 9 1 127.001 3.01336 -2
5 -9 1 127.001 3.01336 1
6 9 1 168.912 3.07393 -2
6 -9 1 168.912 3.07393 1
-7 8 1 3.15508 1.61103 -2
-7 -8 1 3.15508 1.61103 1
-6 8 1 40.3345 1.29788 -2
-6 -8 1 40.3345 1.29788 1
-5 8 1 90.8212 1.50918 -2
-5 -8 1 90.8212 1.50918 1
-4 8 1 3.53503 0.89065 -2
-4 -8 1 3.53503 0.89065 1
-3 8 1 11.7471 0.90503 -2
-3 -8 1 11.7471 0.90503 1
-2 8 1 86.7605 1.45415 -2
-2 -8 1 86.7605 1.45415 1
-1 8 1 116.983 1.53259 -2
-1 -8 1 116.983 1.53259 1
0 8 1 25.0771 1.04079 -2
0 -8 1 25.0771 1.04079 1
1 8 1 49.7279 1.26512 -2
1 -8 1 49.7279 1.26512 1
2 8 1 239.61 5.76936 -2
2 -8 1 239.61 5.76936 1
3 8 1 201.41 3.69113 -2
3 -8 1 201.41 3.69113 1
4 8 1 40.7303 1.73994 -2
4 -8 1 40.7303 1.73994 1
5 8 1 98.1922 2.32345 -2
5 -8 1 98.1922 2.32345 1
6 8 1 74.2062 2.2395 -2
6 -8 1 74.2062 2.2395 1
7 8 1 3.51179 2.74755 -2
7 -8 1 3.51179 2.74755 1
-7 7 1 -2.0821 1.32131 -2
-7 -7 1 -2.0821 1.32131 1
-6 7 1 266.98 2.88662 -2
-6 -7 1 266.98 2.88662 1
-5 7 1 352.124 3.84711 -2
-5 -7 1 352.124 3.84711 1
-4 7 1 6.5894 0.90517 -2
-4 -7 1 6.5894 0.90517 1
-3 7 1 1104.07 9.41822 -2
-3 -7 1 1104.07 9.41822 1
-2 7 1 843.22 7.07135 -2
-2 -7 1 843.22 7.07135 1
-1 7 1 6.03397 0.54884 -2
-1 -7 1 6.03397 0.54884 1
0 7 1 1893.25 15.2824 -2
0 -7 1 1893.25 15.2824 1
1 7 1 1888.06 14.6018 -2
1 -7 1 1888.06 14.6018 1
2 7 1 19.3814 0.86399 -2
2 -7 1 19.3814 0.86399 1
3 7 1 1329.16 12.5816 -2
3 -7 1 1329.16 12.5816 1
4 7 1 1957.25 25.4501 -2
4 -7 1 1957.25 25.4501 1
5 7 1 127.765 3.13812 -2
5 -7 1 127.765 3.13812 1
6 7 1 348.757 5.19551 -2
6 -7 1 348.757 5.19551 1
7 7 1 716.929 8.8711 -2
7 -7 1 716.929 8.8711 1
8 7 1 131.285 5.55022 -2
8 -7 1 131.285 5.55022 1
-8 6 1 236.763 3.38604 -2
-8 -6 1 236.763 3.38604 1
-7 6 1 595.497 6.41213 -2
-7 -6 1 595.497 6.41213 1
-6 6 1 290.467 3.15475 -2
-6 -6 1 290.467 3.15475 1
-5 6 1 6.42837 0.88536 -2
-5 -6 1 6.42837 0.88536 1
-4 6 1 1118.41 9.79895 -2
-4 -6 1 1118.41 9.79895 1
-3 6 1 550.778 4.5123 -2
-3 -6 1 550.778 4.5123 1
-2 6 1 4.54284 0.41446 -2
-2 -6 1 4.54284 0.41446 1
-1 6 1 693.659 5.56726 -2
-1 -6 1 693.659 5.56726 1
0 6 1 1735.37 14.6876 -2
0 -6 1 1735.37 14.6876 1
1 6 1 2.21724 0.55232 -2
1 -6 1 2.21724 0.55232 1
2 6 1 242.15 2.54075 -2
2 -6 1 242.15 2.54075 1
3 6 1 258.174 2.51697 -2
3 -6 1 258.174 2.51697 1
4 6 1 10.9122 0.91593 -2
4 -6 1 10.9122 0.91593 1
5 6 1 298.564 4.06846 -2
5 -6 1 298.564 4.06846 1
6 6 1 34.0984 1.88112 -2
6 -6 1 34.0984 1.88112 1
7 6 1 170.564 4.49936 -2
7 -6 1 170.564 4.49936 1
8 6 1 136.342 4.4091 -2
8 -6 1 136.342 4.4091 1
-8 5 1 82.1812 2.16979 -2
-8 -5 1 82.1812 2.16979 1
-7 5 1 11.5477 1.32867 -2
-7 -5 1 11.5477 1.32867 1
-6 5 1 509.299 5.26362 -2
-6 -5 1 509.299 5.26362 1
-5 5 1 127.317 1.79476 -2
-5 -5 1 127.317 1.79476 1
-4 5 1 29.7647 0.75234 -2
-4 -5 1 29.7647 0.75234 1
-3 5 1 550.032 4.44377 -2
-3 -5 1 550.032 4.44377 1
-2 5 1 530.645 4.24771 -2
-2 -5 1 530.645 4.24771 1
-1 5 1 54.7242 0.69516 -2
-1 -5 1 54.7242 0.69516 1
0 5 1 768.701 6.22893 -2
0 -5 1 768.701 6.22893 1
1 5 1 1253.52 10.7395 -2
1 -5 1 1253.52 10.7395 1
2 5 1 347.864 3.18823 -2
2 -5 1 347.864 3.18823 1
3 5 1 507.36 4.52486 -2
3 -5 1 507.36 4.52486 1
4 5 1 782.567 6.56795 -2
4 -5 1 782.567 6.56795 1
5 5 1 51.2545 1.38204 -2
5 -5 1 51.2545 1.38204 1
6 5 1 76.8887 1.73722 -2
6 -5 1 76.8887 1.73722 1
7 5 1 652.094 11.0859 -2
7 -5 1 652.094 11.0859 1
8 5 1 124.899 5.89886 -2
8 -5 1 124.899 5.89886 1
9 5 1 17.9814 8.47845 -2
9 -5 1 17.9814 8.47845 1
-8 4 1 183.703 2.42465 -2
-8 -4 1 183.703 2.42465 1
-7 4 1 1936.57 16.8268 -2
-7 -4 1 1936.57 16.8268 1
-6 4 1 928.449 11.2807 -2
-6 -4 1 928.449 11.2807 1
-5 4 1 71.7755 1.13541 -2
-5 -4 1 71.7755 1.13541 1
-4 4 1 3496.5 26.4047 -2
-4 -4 1 3496.5 26.4047 1
-3 4 1 3325.97 25.0903 -2
-3 -4 1 3325.97 25.0903 1
-2 4 1 56.3176 0.69341 -2
-2 -4 1 56.3176 0.69341 1
-1 4 1 1917.39 14.0208 -2
-1 -4 1 1917.39 14.0208 1
0 4 1 3123.17 35.9189 -2
0 -4 1 3123.17 35.9189 1
1 4 1 5.755 0.42608 -2
1 -4 1 5.755 0.42608 1
2 4 1 1031.81 8.49074 -2
2 -4 1 1031.81 8.49074 1
3 4 1 598.448 4.95331 -2
3 -4 1 598.448 4.95331 1
4 4 1 20.6774 0.79689 -2
4 -4 1 20.6774 0.79689 1
5 4 1 451.398 4.98188 -2
5 -4 1 451.398 4.98188 1
6 4 1 201.7 4.31769 -2
6 -4 1 201.7 4.31769 1
7 4 1 169.535 5.53753 -2
7 -4 1 169.535 5.53753 1
8 4 1 491.129 8.95596 -2
8 -4 1 491.129 8.95596 1
9 4 1 36.0181 3.82285 -2
9 -4 1 36.0181 3.82285 1
-9 3 1 5.61304 2.68006 -2
-9 -3 1 5.61304 2.68006 1
-8 3 1 4.85463 1.36453 -2
-8 -3 1 4.85463 1.36453 1
-7 3 1 6.42805 1.40925 -2
-7 -3 1 6.42805 1.40925 1
-6 3 1 61.6595 1.55445 -2
-6 -3 1 61.6595 1.55445 1
-5 3 1 20.1112 0.78135 -2
-5 -3 1 20.1112 0.78135 1
-4 3 1 39.3473 0.72763 -2
-4 -3 1 39.3473 0.72763 1
-3 3 1 1061.42 8.2962 -2
-3 -3 1 1061.42 8.2962 1
-2 3 1 365.137 3.0274 -2
-2 -3 1 365.137 3.0274 1
-1 3 1 398.787 3.17154 -2
-1 -3 1 398.787 3.17154 1
0 3 1 943.82 8.06035 -2
0 -3 1 943.82 8.06035 1
1 3 1 1209.44 10.0708 -2
1 -3 1 1209.44 10.0708 1
2 3 1 16.8005 0.48172 -2
2 -3 1 16.8005 0.48172 1
3 3 1 758.17 6.39664 -2
3 -3 1 758.17 6.39664 1
4 3 1 977.511 9.05214 -2
4 -3 1 977.511 9.05214 1
5 3 1 469.625 5.49376 -2
5 -3 1 469.625 5.49376 1
6 3 1 235.222 3.47798 -2
6 -3 1 235.222 3.47798 1
7 3 1 663.306 13.3247 -2
7 -3 1 663.306 13.3247 1
8 3 1 45.3184 4.42119 -2
8 -3 1 45.3184 4.42119 1
9 3 1 129.118 49.8839 -2
9 -3 1 129.118 49.8839 1
-9 2 1 94.1876 3.09826 -2
-9 -2 1 94.1876 3.09826 1
-8 2 1 283.806 3.63681 -2
-8 -2 1 283.806 3.63681 1
-7 2 1 1475.09 14.6987 -2
-7 -2 1 1475.09 14.6987 1
-6 2 1 247.438 2.81603 -2
-6 -2 1 247.438 2.81603 1
-5 2 1 325.779 3.09551 -2
-5 -2 1 325.779 3.09551 1
-4 2 1 3730.65 30.2168 -2
-4 -2 1 3730.65 30.2168 1
-3 2 1 1224.84 10.1667 -2
-3 -2 1 1224.84 10.1667 1
-2 2 1 5.88194 0.26707 -2
-2 -2 1 5.88194 0.26707 1
-1 2 1 1006.44 7.98655 -2
-1 -2 1 1006.44 7.98655 1
0 2 1 7074.61 160.117 -2
0 -2 1 7074.61 160.117 1
1 2 1 296.651 2.71859 -2
1 -2 1 296.651 2.71859 1
2 2 1 2011.91 17.6064 -2
2 -2 1 2011.91 17.6064 1
3 2 1 1691.86 15.1659 -2
3 -2 1 1691.86 15.1659 1
4 2 1 104.673 1.59493 -2
4 -2 1 104.673 1.59493 1
5 2 1 1033.55 11.2534 -2
5 -2 1 1033.55 11.2534 1
6 2 1 119.482 2.59895 -2
6 -2 1 119.482 2.59895 1
7 2 1 6.28435 2.58221 -2
7 -2 1 6.28435 2.58221 1
8 2 1 365.933 6.92414 -2
8 -2 1 365.933 6.92414 1
9 2 1 107.875 4.32272 -2
9 -2 1 107.875 4.32272 1
-9 1 1 78.9766 2.72184 -2
-9 -1 1 78.9766 2.72184 1
-8 1 1 366.042 5.05234 -2
-8 -1 1 366.042 5.05234 1
-7 1 1 19.8931 1.29814 -2
-7 -1 1 19.8931 1.29814 1
-6 1 1 486.532 4.73781 -2
-6 -1 1 486.532 4.73781 1
-5 1 1 448.037 4.07169 -2
-5 -1 1 448.037 4.07169 1
-4 1 1 30.8462 0.69005 -2
-4 -1 1 30.8462 0.69005 1
-3 1 1 4616.18 63.3445 -2
-3 -1 1 4616.18 63.3445 1
-2 1 1 150.761 1.44566 -2
-2 -1 1 150.761 1.44566 1
-1 1 1 65.7284 0.69617 -2
-1 -1 1 65.7284 0.69617 1
0 1 1 7424.99 175.63 -2
0 -1 1 7424.99 175.63 1
2 1 1 177.947 2.3194 -2
2 -1 1 177.947 2.3194 1
3 1 1 3229.81 69.8367 -2
3 -1 1 3229.81 69.8367 1
4 1 1 6071.51 196.438 -2
4 -1 1 6071.51 196.438 1
5 1 1 255.513 4.54286 -2
5 -1 1 255.513 4.54286 1
6 1 1 1169.79 20.997 -2
6 -1 1 1169.79 20.997 1
7 1 1 1888.08 42.7925 -2
7 -1 1 1888.08 42.7925 1
8 1 1 584.623 7.90136 -2
8 -1 1 584.623 7.90136 1
9 1 1 35.9141 3.2292 -2
9 -1 1 35.9141 3.2292 1
-9 0 1 112.977 59.5223 -2
-9 0 1 112.977 59.5223 1
-8 0 1 35.8521 1.76523 -2
-8 0 1 35.8521 1.76523 1
-7 0 1 14.5735 1.31906 -2
-7 0 1 14.5735 1.31906 1
-6 0 1 0.4055 0.95873 -2
-6 0 1 0.4055 0.95873 1
-5 0 1 6.52287 0.55531 -2
-5 0 1 6.52287 0.55531 1
-4 0 1 11.1896 0.50299 -2
-4 0 1 11.1896 0.50299 1
-3 0 1 0.65598 0.39656 -2
-3 0 1 0.65598 0.39656 1
-2 0 1 13.1957 0.2905 -2
-2 0 1 13.1957 0.2905 1
-1 0 1 0.91528 0.18334 -2
-1 0 1 0.91528 0.18334 1
1 0 1 5.74422 0.10278 1
2 0 1 20.2778 0.67606 -2
2 0 1 20.2778 0.67606 1
3 0 1 22.4157 0.83744 -2
3 0 1 22.4157 0.83744 1
4 0 1 -0.8359 0.97842 -2
4 0 1 -0.8359 0.97842 1
5 0 1 15.0884 1.51582 -2
5 0 1 15.0884 1.51582 1
6 0 1 0.24909 1.71826 -2
6 0 1 0.24909 1.71826 1
7 0 1 -1.641 1.63707 -2
7 0 1 -1.641 1.63707 1
8 0 1 39.9596 33.6153 -2
8 0 1 39.9596 33.6153 1
9 0 1 8.42398 2.51364 -2
9 0 1 8.42398 2.51364 1
-9 -1 1 77.6432 2.52102 -2
-9 1 1 77.6432 2.52102 1
-8 -1 1 373.61 4.46172 -2
-8 1 1 373.61 4.46172 1
-7 -1 1 14.055 1.66423 -2
-7 1 1 14.055 1.66423 1
-6 -1 1 499.473 5.22043 -2
-6 1 1 499.473 5.22043 1
-5 -1 1 460.238 4.26227 -2
-5 1 1 460.238 4.26227 1
-4 -1 1 31.5481 0.7174 -2
-4 1 1 31.5481 0.7174 1
-3 -1 1 4597.7 66.2016 -2
-3 1 1 4597.7 66.2016 1
-2 -1 1 156.586 1.43615 -2
-2 1 1 156.586 1.43615 1
-1 -1 1 63.9188 0.66465 -2
-1 1 1 63.9188 0.66465 1
0 -1 1 7688.01 273.946 -2
0 1 1 7688.01 273.946 1
2 -1 1 177.795 5.76544 -2
2 1 1 177.795 5.76544 1
3 -1 1 3262.75 93.9341 -2
3 1 1 3262.75 93.9341 1
4 -1 1 5994.19 128.45 -2
4 1 1 5994.19 128.45 1
5 -1 1 268.985 4.87863 -2
5 1 1 268.985 4.87863 1
6 -1 1 1080.68 16.6886 -2
6 1 1 1080.68 16.6886 1
7 -1 1 1906.08 28.0382 -2
7 1 1 1906.08 28.0382 1
8 -1 1 564.752 11.658 -2
8 1 1 564.752 11.658 1
9 -1 1 33.2012 2.42749 -2
9 1 1 33.2012 2.42749 1
-9 -2 1 125.913 3.69385 -2
-9 2 1 125.913 3.69385 1
-8 -2 1 287.12 3.65442 -2
-8 2 1 287.12 3.65442 1
-7 -2 1 1426.84 14.739 -2
-7 2 1 1426.84 14.739 1
-6 -2 1 242.862 2.73042 -2
-6 2 1 242.862 2.73042 1
-5 -2 1 312.625 3.08669 -2
-5 2 1 312.625 3.08669 1
-4 -2 1 3633.43 27.6969 -2
-4 2 1 3633.43 27.6969 1
-3 -2 1 1185.18 9.79825 -2
-3 2 1 1185.18 9.79825 1
-2 -2 1 5.78706 0.28867 -2
-2 2 1 5.78706 0.28867 1
-1 -2 1 986.6 7.81283 -2
-1 2 1 986.6 7.81283 1
0 -2 1 7543.31 246.344 -2
0 2 1 7543.31 246.344 1
1 -2 1 309.601 2.65655 -2
1 2 1 309.601 2.65655 1
2 -2 1 2061.4 24.5993 -2
2 2 1 2061.4 24.5993 1
3 -2 1 1650.87 27.6114 -2
3 2 1 1650.87 27.6114 1
4 -2 1 114.535 2.9491 -2
4 2 1 114.535 2.9491 1
5 -2 1 1018.2 13.6113 -2
5 2 1 1018.2 13.6113 1
6 -2 1 111.897 2.79987 -2
6 2 1 111.897 2.79987 1
7 -2 1 34.263 25.7535 -2
7 2 1 34.263 25.7535 1
8 -2 1 373.83 8.24934 -2
8 2 1 373.83 8.24934 1
9 -2 1 105.707 6.90024 -2
9 2 1 105.707 6.90024 1
-9 -3 1 -5.9094 2.53245 -2
-9 3 1 -5.9094 2.53245 1
-8 -3 1 2.12798 1.59428 -2
-8 3 1 2.12798 1.59428 1
-7 -3 1 8.64836 1.36799 -2
-7 3 1 8.64836 1.36799 1
-6 -3 1 71.6458 2.16756 -2
-6 3 1 71.6458 2.16756 1
-5 -3 1 18.9267 0.76914 -2
-5 3 1 18.9267 0.76914 1
-4 -3 1 40.8825 0.74916 -2
-4 3 1 40.8825 0.74916 1
-3 -3 1 1091.15 8.70629 -2
-3 3 1 1091.15 8.70629 1
-2 -3 1 349.871 3.11741 -2
-2 3 1 349.871 3.11741 1
-1 -3 1 410.214 3.40149 -2
-1 3 1 410.214 3.40149 1
0 -3 1 941.525 7.77004 -2
0 3 1 941.525 7.77004 1
1 -3 1 1174.7 10.1106 -2
1 3 1 1174.7 10.1106 1
2 -3 1 19.8281 0.37832 -2
2 3 1 19.8281 0.37832 1
3 -3 1 722.781 6.30929 -2
3 3 1 722.781 6.30929 1
4 -3 1 964.71 11.9361 -2
4 3 1 964.71 11.9361 1
5 -3 1 442.307 7.64919 -2
5 3 1 442.307 7.64919 1
6 -3 1 212.622 3.65743 -2
6 3 1 212.622 3.65743 1
7 -3 1 568.454 9.66646 -2
7 3 1 568.454 9.66646 1
8 -3 1 50.1155 2.56887 -2
8 3 1 50.1155 2.56887 1
9 -3 1 22.5485 3.05377 -2
9 3 1 22.5485 3.05377 1
-8 -4 1 165.658 2.50226 -2
-8 4 1 165.658 2.50226 1
-7 -4 1 1934.1 21.7549 -2
-7 4 1 1934.1 21.7549 1
-6 -4 1 951.056 9.84084 -2
-6 4 1 951.056 9.84084 1
-5 -4 1 73.8741 1.26827 -2
-5 4 1 73.8741 1.26827 1
-4 -4 1 3456.67 26.5728 -2
-4 4 1 3456.67 26.5728 1
-3 -4 1 3249.54 25.8628 -2
-3 4 1 3249.54 25.8628 1
-2 -4 1 53.7821 0.73015 -2
-2 4 1 53.7821 0.73015 1
-1 -4 1 1832.91 15.4273 -2
-1 4 1 1832.91 15.4273 1
0 -4 1 3092.71 35.6012 -2
0 4 1 3092.71 35.6012 1
1 -4 1 7.43912 0.34066 -2
1 4 1 7.43912 0.34066 1
2 -4 1 1001.25 7.81171 -2
2 4 1 1001.25 7.81171 1
3 -4 1 587.334 4.69511 -2
3 4 1 587.334 4.69511 1
4 -4 1 22.4333 0.71852 -2
4 4 1 22.4333 0.71852 1
5 -4 1 470.2 5.47721 -2
5 4 1 470.2 5.47721 1
6 -4 1 189.788 3.4188 -2
6 4 1 189.788 3.4188 1
7 -4 1 153.814 6.81645 -2
7 4 1 153.814 6.81645 1
8 -4 1 508.592 15.7509 -2
8 4 1 508.592 15.7509 1
9 -4 1 161.051 52.102 -2
9 4 1 161.051 52.102 1
-8 -5 1 77.5524 2.54325 -2
-8 5 1 77.5524 2.54325 1
-7 -5 1 -1.8793 1.53709 -2
-7 5 1 -1.8793 1.53709 1
-6 -5 1 522.62 5.81222 -2
-6 5 1 522.62 5.81222 1
-5 -5 1 128.087 2.21623 -2
-5 5 1 128.087 2.21623 1
-4 -5 1 22.8344 0.85309 -2
-4 5 1 22.8344 0.85309 1
-3 -5 1 532.597 4.96912 -2
-3 5 1 532.597 4.96912 1
-2 -5 1 540.697 4.71479 -2
-2 5 1 540.697 4.71479 1
-1 -5 1 56.6118 0.80568 -2
-1 5 1 56.6118 0.80568 1
0 -5 1 784.427 6.86923 -2
0 5 1 784.427 6.86923 1
1 -5 1 1273.33 10.5209 -2
1 5 1 1273.33 10.5209 1
2 -5 1 339.69 2.96949 -2
2 5 1 339.69 2.96949 1
3 -5 1 539.495 4.37124 -2
3 5 1 539.495 4.37124 1
4 -5 1 822.326 6.58528 -2
4 5 1 822.326 6.58528 1
5 -5 1 50.7179 0.97756 -2
5 5 1 50.7179 0.97756 1
6 -5 1 76.3074 1.51615 -2
6 5 1 76.3074 1.51615 1
7 -5 1 660.946 10.5866 -2
7 5 1 660.946 10.5866 1
8 -5 1 131.942 5.39559 -2
8 5 1 131.942 5.39559 1
9 -5 1 32.1695 6.6712 -2
9 5 1 32.1695 6.6712 1
-8 -6 1 271.418 5.07657 -2
-8 6 1 271.418 5.07657 1
-7 -6 1 613.215 7.14926 -2
-7 6 1 613.215 7.14926 1
-6 -6 1 290.984 4.07687 -2
-6 6 1 290.984 4.07687 1
-5 -6 1 2.0167 1.29348 -2
-5 6 1 2.0167 1.29348 1
-4 -6 1 1135.73 10.8976 -2
-4 6 1 1135.73 10.8976 1
-3 -6 1 529.72 4.78509 -2
-3 6 1 529.72 4.78509 1
-2 -6 1 3.64295 0.52328 -2
-2 6 1 3.64295 0.52328 1
-1 -6 1 600.039 5.55972 -2
-1 6 1 600.039 5.55972 1
0 -6 1 1629.91 13.1897 -2
0 6 1 1629.91 13.1897 1
1 -6 1 6.09707 0.48751 -2
1 6 1 6.09707 0.48751 1
2 -6 1 228.156 2.07127 -2
2 6 1 228.156 2.07127 1
3 -6 1 259.777 2.54783 -2
3 6 1 259.777 2.54783 1
4 -6 1 16.9627 0.70463 -2
4 6 1 16.9627 0.70463 1
5 -6 1 310.492 3.20298 -2
5 6 1 310.492 3.20298 1
6 -6 1 32.3362 1.49239 -2
6 6 1 32.3362 1.49239 1
7 -6 1 178.286 4.35023 -2
7 6 1 178.286 4.35023 1
8 -6 1 164.754 4.28223 -2
8 6 1 164.754 4.28223 1
-7 -7 1 2.03956 2.16532 -2
-7 7 1 2.03956 2.16532 1
-6 -7 1 283.217 4.25803 -2
-6 7 1 283.217 4.25803 1
-5 -7 1 368.91 5.25736 -2
-5 7 1 368.91 5.25736 1
-4 -7 1 2.72732 1.35449 -2
-4 7 1 2.72732 1.35449 1
-3 -7 1 1147.29 13.3513 -2
-3 7 1 1147.29 13.3513 1
-2 -7 1 849.557 7.27464 -2
-2 7 1 849.557 7.27464 1
-1 -7 1 6.78206 0.54457 -2
-1 7 1 6.78206 0.54457 1
0 -7 1 1787.94 14.4939 -2
0 7 1 1787.94 14.4939 1
1 -7 1 1985.88 15.5609 -2
1 7 1 1985.88 15.5609 1
2 -7 1 18.0023 0.71589 -2
2 7 1 18.0023 0.71589 1
3 -7 1 1329.08 10.3875 -2
3 7 1 1329.08 10.3875 1
4 -7 1 2092.47 17.8962 -2
4 7 1 2092.47 17.8962 1
5 -7 1 149.062 1.93701 -2
5 7 1 149.062 1.93701 1
6 -7 1 340.008 4.19275 -2
6 7 1 340.008 4.19275 1
7 -7 1 715.936 12.0353 -2
7 7 1 715.936 12.0353 1
8 -7 1 140.351 4.0006 -2
8 7 1 140.351 4.0006 1
-7 -8 1 6.17222 3.35776 -2
-7 8 1 6.17222 3.35776 1
-6 -8 1 35.9508 1.98595 -2
-6 8 1 35.9508 1.98595 1
-5 -8 1 88.7599 2.12239 -2
-5 8 1 88.7599 2.12239 1
-4 -8 1 7.93532 1.78533 -2
-4 8 1 7.93532 1.78533 1
-3 -8 1 13.9296 1.13074 -2
-3 8 1 13.9296 1.13074 1
-2 -8 1 99.611 1.9507 -2
-2 8 1 99.611 1.9507 1
-1 -8 1 105.366 1.66612 -2
-1 8 1 105.366 1.66612 1
0 -8 1 24.6132 0.94314 -2
0 8 1 24.6132 0.94314 1
1 -8 1 41.0003 0.92121 -2
1 8 1 41.0003 0.92121 1
2 -8 1 251.899 2.47467 -2
2 8 1 251.899 2.47467 1
3 -8 1 198.543 2.42521 -2
3 8 1 198.543 2.42521 1
4 -8 1 47.701 1.16248 -2
4 8 1 47.701 1.16248 1
5 -8 1 98.0362 2.0816 -2
5 8 1 98.0362 2.0816 1
6 -8 1 82.6332 1.8955 -2
6 8 1 82.6332 1.8955 1
7 -8 1 11.2966 2.17698 -2
7 8 1 11.2966 2.17698 1
-6 -9 1 155.188 3.00282 -2
-6 9 1 155.188 3.00282 1
-5 -9 1 75.6013 2.01368 -2
-5 9 1 75.6013 2.01368 1
-4 -9 1 66.8496 1.94308 -2
-4 9 1 66.8496 1.94308 1
-3 -9 1 654.813 7.17727 -2
-3 9 1 654.813 7.17727 1
-2 -9 1 345.149 4.43451 -2
-2 9 1 345.149 4.43451 1
-1 -9 1 23.6856 0.98323 -2
-1 9 1 23.6856 0.98323 1
0 -9 1 820.082 8.0994 -2
0 9 1 820.082 8.0994 1
1 -9 1 761.898 7.30641 -2
1 9 1 761.898 7.30641 1
2 -9 1 21.8537 0.97683 -2
2 9 1 21.8537 0.97683 1
3 -9 1 648.287 6.41607 -2
3 9 1 648.287 6.41607 1
4 -9 1 1186.19 14.886 -2
4 9 1 1186.19 14.886 1
5 -9 1 139.01 2.71651 -2
5 9 1 139.01 2.71651 1
6 -9 1 175.378 2.88886 -2
6 9 1 175.378 2.88886 1
7 9 1 204.379 2.66256 1
-5 -10 1 54.4507 2.03341 -2
-5 10 1 54.4507 2.03341 1
-4 -10 1 386.043 4.65995 -2
-4 10 1 386.043 4.65995 1
-3 -10 1 209.194 3.08291 -2
-3 10 1 209.194 3.08291 1
-2 -10 1 76.3965 1.8723 -2
-2 10 1 76.3965 1.8723 1
-1 -10 1 625.586 6.80213 -2
-1 10 1 625.586 6.80213 1
0 -10 1 251.442 2.82245 -2
0 10 1 251.442 2.82245 1
1 -10 1 29.8211 1.1019 -2
1 10 1 29.8211 1.1019 1
2 -10 1 341.202 3.39766 -2
2 10 1 341.202 3.39766 1
3 -10 1 234.284 2.71405 -2
3 10 1 234.284 2.71405 1
4 -10 1 25.7591 1.18947 -2
4 10 1 25.7591 1.18947 1
5 -10 1 125.696 2.61275 -2
5 10 1 125.696 2.61275 1
6 10 1 17.966 1.18143 1
-4 -11 1 -1.4572 2.92509 -2
-4 11 1 -1.4572 2.92509 1
-3 -11 1 29.7462 1.67852 -2
-3 11 1 29.7462 1.67852 1
-2 -11 1 12.9558 1.34684 -2
-2 11 1 12.9558 1.34684 1
-1 -11 1 38.2644 1.19342 -2
-1 11 1 38.2644 1.19342 1
0 -11 1 105.846 1.90623 -2
0 11 1 105.846 1.90623 1
1 -11 1 57.3824 1.71508 -2
1 11 1 57.3824 1.71508 1
2 -11 1 12.7566 1.26868 -2
2 11 1 12.7566 1.26868 1
3 -11 1 50.2192 1.52598 -2
3 11 1 50.2192 1.52598 1
4 -11 1 35.9837 1.75304 -2
4 11 1 35.9837 1.75304 1
-1 -12 1 206.728 3.23275 -2
-1 12 1 206.728 3.23275 1
0 -12 1 191.41 3.00929 -2
0 12 1 191.41 3.00929 1
1 -12 1 7.46779 1.63928 -2
1 12 1 7.46779 1.63928 1
2 -12 1 112.671 3.04641 -2
2 12 1 112.671 3.04641 1
0 12 2 6.71034 1.93238 -2
0 -12 2 6.71034 1.93238 1
1 12 2 18.8375 2.44567 -2
1 -12 2 18.8375 2.44567 1
-3 11 2 449.383 5.58911 -2
-3 -11 2 449.383 5.58911 1
-2 11 2 104.842 2.07582 -2
-2 -11 2 104.842 2.07582 1
-1 11 2 233.087 3.05221 -2
-1 -11 2 233.087 3.05221 1
0 11 2 912.549 8.87903 -2
0 -11 2 912.549 8.87903 1
1 11 2 221.055 3.03803 -2
1 -11 2 221.055 3.03803 1
2 11 2 106.922 2.66319 -2
2 -11 2 106.922 2.66319 1
3 11 2 501.574 5.76913 -2
3 -11 2 501.574 5.76913 1
4 11 2 107.697 3.41919 -2
4 -11 2 107.697 3.41919 1
-5 -10 2 4.73448 1.03278 1
-4 10 2 48.2407 1.44915 -2
-4 -10 2 48.2407 1.44915 1
-3 10 2 14.0318 1.22831 -2
-3 -10 2 14.0318 1.22831 1
-2 10 2 8.87753 1.11239 -2
-2 -10 2 8.87753 1.11239 1
-1 10 2 32.5915 1.47493 -2
-1 -10 2 32.5915 1.47493 1
0 10 2 24.63 1.43764 -2
0 -10 2 24.63 1.43764 1
1 10 2 209.743 3.0822 -2
1 -10 2 209.743 3.0822 1
2 10 2 3.77356 1.92016 -2
2 -10 2 3.77356 1.92016 1
3 10 2 172.665 2.69334 -2
3 -10 2 172.665 2.69334 1
4 10 2 160.369 3.63188 -2
4 -10 2 160.369 3.63188 1
5 10 2 7.04914 2.46736 -2
5 -10 2 7.04914 2.46736 1
-6 -9 2 103.98 2.87326 1
-5 9 2 38.5112 1.72758 -2
-5 -9 2 38.5112 1.72758 1
-4 9 2 154.138 2.00132 -2
-4 -9 2 154.138 2.00132 1
-3 9 2 233.054 3.11731 -2
-3 -9 2 233.054 3.11731 1
-2 9 2 15.1193 1.11757 -2
-2 -9 2 15.1193 1.11757 1
-1 9 2 193.381 3.28038 -2
-1 -9 2 193.381 3.28038 1
0 9 2 329.464 4.15179 -2
0 -9 2 329.464 4.15179 1
1 9 2 12.9269 2.11846 -2
1 -9 2 12.9269 2.11846 1
2 9 2 17.892 1.58615 -2
2 -9 2 17.892 1.58615 1
3 9 2 196.008 3.98798 -2
3 -9 2 196.008 3.98798 1
4 9 2 127.025 2.51811 -2
4 -9 2 127.025 2.51811 1
5 9 2 68.1917 2.72751 -2
5 -9 2 68.1917 2.72751 1
6 9 2 67.483 2.67161 -2
6 -9 2 67.483 2.67161 1
-6 8 2 -6.906 1.51808 -2
-6 -8 2 -6.906 1.51808 1
-5 8 2 209.074 2.51114 -2
-5 -8 2 209.074 2.51114 1
-4 8 2 423.923 4.05161 -2
-4 -8 2 423.923 4.05161 1
-3 8 2 89.4724 1.43824 -2
-3 -8 2 89.4724 1.43824 1
-2 8 2 722.522 9.12323 -2
-2 -8 2 722.522 9.12323 1
-1 8 2 278.694 3.46247 -2
-1 -8 2 278.694 3.46247 1
0 8 2 148.14 2.45207 -2
0 -8 2 148.14 2.45207 1
1 8 2 1106.74 12.7851 -2
1 -8 2 1106.74 12.7851 1
2 8 2 280.9 4.04203 -2
2 -8 2 280.9 4.04203 1
3 8 2 70.2153 3.51572 -2
3 -8 2 70.2153 3.51572 1
4 8 2 1537.18 20.2552 -2
4 -8 2 1537.18 20.2552 1
5 8 2 870.402 17.2202 -2
5 -8 2 870.402 17.2202 1
6 8 2 25.7892 2.56747 -2
6 -8 2 25.7892 2.56747 1
7 8 2 608.979 9.59541 -2
7 -8 2 608.979 9.59541 1
-7 7 2 105.337 2.31754 -2
-7 -7 2 105.337 2.31754 1
-6 7 2 67.1262 1.61105 -2
-6 -7 2 67.1262 1.61105 1
-5 7 2 81.8379 1.36171 -2
-5 -7 2 81.8379 1.36171 1
-4 7 2 29.3311 0.97438 -2
-4 -7 2 29.3311 0.97438 1
-3 7 2 491.021 4.86038 -2
-3 -7 2 491.021 4.86038 1
-2 7 2 19.5054 0.79389 -2
-2 -7 2 19.5054 0.79389 1
-1 7 2 171.921 1.95374 -2
-1 -7 2 171.921 1.95374 1
0 7 2 306.705 2.94607 -2
0 -7 2 306.705 2.94607 1
1 7 2 137.67 1.64554 -2
1 -7 2 137.67 1.64554 1
2 7 2 19.6359 0.99639 -2
2 -7 2 19.6359 0.99639 1
3 7 2 43.6178 1.35114 -2
3 -7 2 43.6178 1.35114 1
4 7 2 59.3634 3.3078 -2
4 -7 2 59.3634 3.3078 1
5 7 2 64.4225 23.9523 -2
5 -7 2 64.4225 23.9523 1
6 7 2 27.6222 5.527 -2
6 -7 2 27.6222 5.527 1
7 7 2 38.8761 3.56289 -2
7 -7 2 38.8761 3.56289 1
8 7 2 6.83743 7.60486 -2
8 -7 2 6.83743 7.60486 1
-7 6 2 341.012 4.54652 -2
-7 -6 2 341.012 4.54652 1
-6 6 2 44.665 1.20169 -2
-6 -6 2 44.665 1.20169 1
-5 6 2 604.154 6.46248 -2
-5 -6 2 604.154 6.46248 1
-4 6 2 228.122 2.8309 -2
-4 -6 2 228.122 2.8309 1
-3 6 2 102.7 1.24215 -2
-3 -6 2 102.7 1.24215 1
-2 6 2 753.977 6.23525 -2
-2 -6 2 753.977 6.23525 1
-1 6 2 390.719 3.67212 -2
-1 -6 2 390.719 3.67212 1
0 6 2 76.6347 1.08245 -2
0 -6 2 76.6347 1.08245 1
1 6 2 1675.46 14.2053 -2
1 -6 2 1675.46 14.2053 1
2 6 2 478.776 4.81121 -2
2 -6 2 478.776 4.81121 1
3 6 2 208.949 2.39665 -2
3 -6 2 208.949 2.39665 1
4 6 2 1155.58 12.3915 -2
4 -6 2 1155.58 12.3915 1
5 6 2 472.252 6.447 -2
5 -6 2 472.252 6.447 1
6 6 2 18.6826 2.25103 -2
6 -6 2 18.6826 2.25103 1
7 6 2 503.831 16.4333 -2
7 -6 2 503.831 16.4333 1
8 6 2 444.386 15.792 -2
8 -6 2 444.386 15.792 1
-8 5 2 12.7932 1.98252 -2
-8 -5 2 12.7932 1.98252 1
-7 5 2 795.923 9.98829 -2
-7 -5 2 795.923 9.98829 1
-6 5 2 990.758 9.12821 -2
-6 -5 2 990.758 9.12821 1
-5 5 2 29.7615 0.99054 -2
-5 -5 2 29.7615 0.99054 1
-4 5 2 812.635 7.41133 -2
-4 -5 2 812.635 7.41133 1
-3 5 2 2719.46 21.1644 -2
-3 -5 2 2719.46 21.1644 1
-2 5 2 406.968 3.58116 -2
-2 -5 2 406.968 3.58116 1
-1 5 2 472.031 3.83533 -2
-1 -5 2 472.031 3.83533 1
0 5 2 4993.08 48.493 -2
0 -5 2 4993.08 48.493 1
1 5 2 3071.17 24.2987 -2
1 -5 2 3071.17 24.2987 1
2 5 2 503.597 4.65512 -2
2 -5 2 503.597 4.65512 1
3 5 2 2093.22 17.7274 -2
3 -5 2 2093.22 17.7274 1
4 5 2 849.053 8.41302 -2
4 -5 2 849.053 8.41302 1
5 5 2 21.8254 2.95617 -2
5 -5 2 21.8254 2.95617 1
6 5 2 488.326 7.23452 -2
6 -5 2 488.326 7.23452 1
7 -5 2 199.326 2.7428 1
8 5 2 76.4028 6.53301 -2
8 -5 2 76.4028 6.53301 1
9 -5 2 35.0482 1.37601 1
-8 4 2 2.86819 2.05434 -2
-8 -4 2 2.86819 2.05434 1
-7 4 2 1.17712 1.58041 -2
-7 -4 2 1.17712 1.58041 1
-6 4 2 8.53602 0.95781 -2
-6 -4 2 8.53602 0.95781 1
-5 4 2 11.7124 0.82517 -2
-5 -4 2 11.7124 0.82517 1
-4 4 2 46.7125 0.8069 -2
-4 -4 2 46.7125 0.8069 1
-3 4 2 23.2622 0.57159 -2
-3 -4 2 23.2622 0.57159 1
-2 4 2 75.3306 0.95184 -2
-2 -4 2 75.3306 0.95184 1
-1 4 2 31.6085 0.56694 -2
-1 -4 2 31.6085 0.56694 1
0 4 2 18.8902 0.61988 -2
0 -4 2 18.8902 0.61988 1
1 4 2 16.815 0.53797 -2
1 -4 2 16.815 0.53797 1
2 4 2 284.001 2.7554 -2
2 -4 2 284.001 2.7554 1
3 4 2 441.993 4.47401 -2
3 -4 2 441.993 4.47401 1
4 4 2 125.862 2.21624 -2
4 -4 2 125.862 2.21624 1
5 4 2 14.7381 1.19936 -2
5 -4 2 14.7381 1.19936 1
6 4 2 14.0695 1.87147 -2
6 -4 2 14.0695 1.87147 1
7 -4 2 3.63302 0.57315 1
8 4 2 78.8355 6.70792 -2
8 -4 2 78.8355 6.70792 1
9 4 2 10.8282 8.27513 -2
9 -4 2 10.8282 8.27513 1
-8 3 2 5.77457 1.8364 -2
-8 -3 2 5.77457 1.8364 1
-7 3 2 1249.73 12.0126 -2
-7 -3 2 1249.73 12.0126 1
-6 3 2 1646 15.0073 -2
-6 -3 2 1646 15.0073 1
-5 3 2 21.9114 0.90184 -2
-5 -3 2 21.9114 0.90184 1
-4 3 2 2399.85 18.7542 -2
-4 -3 2 2399.85 18.7542 1
-3 3 2 9948.13 313.849 -2
-3 -3 2 9948.13 313.849 1
-2 3 2 231.575 2.19658 -2
-2 -3 2 231.575 2.19658 1
-1 3 2 3655.56 31.0914 -2
-1 -3 2 3655.56 31.0914 1
0 3 2 5595.58 178.388 -2
0 -3 2 5595.58 178.388 1
1 3 2 1444.84 12.8676 -2
1 -3 2 1444.84 12.8676 1
2 3 2 525.558 4.97489 -2
2 -3 2 525.558 4.97489 1
3 3 2 3209.69 34.1631 -2
3 -3 2 3209.69 34.1631 1
4 3 2 1822.77 19.9167 -2
4 -3 2 1822.77 19.9167 1
5 3 2 71.1908 1.6814 -2
5 -3 2 71.1908 1.6814 1
6 3 2 597.275 11.8354 -2
6 -3 2 597.275 11.8354 1
7 3 2 374.316 8.42522 -2
7 -3 2 374.316 8.42522 1
8 3 2 35.1893 4.0301 -2
8 -3 2 35.1893 4.0301 1
9 -3 2 37.5041 1.47841 1
-8 2 2 85.3597 2.08755 -2
-8 -2 2 85.3597 2.08755 1
-7 2 2 324.348 3.87193 -2
-7 -2 2 324.348 3.87193 1
-6 2 2 6.55375 1.20208 -2
-6 -2 2 6.55375 1.20208 1
-5 2 2 9.5387 0.72871 -2
-5 -2 2 9.5387 0.72871 1
-4 2 2 827.966 7.45745 -2
-4 -2 2 827.966 7.45745 1
-3 2 2 131.239 1.4052 -2
-3 -2 2 131.239 1.4052 1
-2 2 2 1922.05 15.7425 -2
-2 -2 2 1922.05 15.7425 1
-1 2 2 93.5918 1.05728 -2
-1 -2 2 93.5918 1.05728 1
0 2 2 47.6023 0.775 -2
0 -2 2 47.6023 0.775 1
1 2 2 960.613 9.61352 -2
1 -2 2 960.613 9.61352 1
2 2 2 596.132 6.52403 -2
2 -2 2 596.132 6.52403 1
3 2 2 586.818 6.82486 -2
3 -2 2 586.818 6.82486 1
4 2 2 1892.6 25.372 -2
4 -2 2 1892.6 25.372 1
5 2 2 967.189 12.636 -2
5 -2 2 967.189 12.636 1
6 2 2 67.514 2.20215 -2
6 -2 2 67.514 2.20215 1
7 2 2 1469.54 40.0037 -2
7 -2 2 1469.54 40.0037 1
8 2 2 595.349 18.165 -2
8 -2 2 595.349 18.165 1
9 2 2 -2.3677 6.19433 -2
9 -2 2 -2.3677 6.19433 1
10 -2 2 128.859 2.84599 1
-9 1 2 47.3094 3.04493 -2
-9 -1 2 47.3094 3.04493 1
-8 1 2 4.30535 1.84255 -2
-8 -1 2 4.30535 1.84255 1
-7 1 2 186.704 3.47736 -2
-7 -1 2 186.704 3.47736 1
-6 1 2 230.565 3.01564 -2
-6 -1 2 230.565 3.01564 1
-5 1 2 2.22819 0.60566 -2
-5 -1 2 2.22819 0.60566 1
-4 1 2 587.678 5.67399 -2
-4 -1 2 587.678 5.67399 1
-3 1 2 341.248 3.1031 -2
-3 -1 2 341.248 3.1031 1
-2 1 2 119.641 1.2573 -2
-2 -1 2 119.641 1.2573 1
-1 1 2 2564.05 27.6012 -2
-1 -1 2 2564.05 27.6012 1
0 1 2 1780.84 49.0909 -2
0 -1 2 1780.84 49.0909 1
1 1 2 2635.29 87.4522 -2
1 -1 2 2635.29 87.4522 1
2 1 2 53.4633 0.88063 -2
2 -1 2 53.4633 0.88063 1
3 1 2 1114 16.2279 -2
3 -1 2 1114 16.2279 1
4 1 2 708.05 9.31751 -2
4 -1 2 708.05 9.31751 1
5 1 2 158.118 5.12061 -2
5 -1 2 158.118 5.12061 1
6 1 2 116.625 3.28581 -2
6 -1 2 116.625 3.28581 1
7 1 2 25.6835 2.9044 -2
7 -1 2 25.6835 2.9044 1
8 1 2 3.94268 3.45225 -2
8 -1 2 3.94268 3.45225 1
9 1 2 32.4674 4.09536 -2
9 -1 2 32.4674 4.09536 1
10 -1 2 -0.8759 0.78028 1
-9 0 2 9.27383 2.40991 -2
-9 0 2 9.27383 2.40991 1
-8 0 2 763.13 10.1965 -2
-8 0 2 763.13 10.1965 1
-7 0 2 1303.48 14.4117 -2
-7 0 2 1303.48 14.4117 1
-6 0 2 69.1539 1.29291 -2
-6 0 2 69.1539 1.29291 1
-5 0 2 1192.74 9.96489 -2
-5 0 2 1192.74 9.96489 1
-4 0 2 1084.86 9.19461 -2
-4 0 2 1084.86 9.19461 1
-3 0 2 1767.38 14.2426 -2
-3 0 2 1767.38 14.2426 1
-2 0 2 1922.99 18.2277 -2
-2 0 2 1922.99 18.2277 1
-1 0 2 8.42665 0.52771 -2
-1 0 2 8.42665 0.52771 1
0 0 2 46.3522 0.51537 1
2 0 2 956.962 8.36291 1
3 0 2 997.566 16.4419 -2
3 0 2 997.566 16.4419 1
4 0 2 3101.15 54.0081 1
5 0 2 2030.29 55.0819 -2
5 0 2 2030.29 55.0819 1
6 0 2 408.68 11.6392 -2
6 0 2 408.68 11.6392 1
7 0 2 2321.7 44.2251 -2
7 0 2 2321.7 44.2251 1
8 0 2 835.571 7.6553 1
9 0 2 42.7859 6.10559 -2
9 0 2 42.7859 6.10559 1
10 0 2 144.55 2.04603 1
-9 -1 2 49.2287 2.60158 -2
-9 1 2 49.2287 2.60158 1
-8 -1 2 13.1737 1.66959 -2
-8 1 2 13.1737 1.66959 1
-7 -1 2 175.458 2.88266 -2
-7 1 2 175.458 2.88266 1
-6 -1 2 215.677 3.07436 -2
-6 1 2 215.677 3.07436 1
-5 -1 2 0.70868 0.58586 -2
-5 1 2 0.70868 0.58586 1
-4 -1 2 562.043 5.01238 -2
-4 1 2 562.043 5.01238 1
-3 -1 2 325.964 3.31279 -2
-3 1 2 325.964 3.31279 1
-2 -1 2 116.376 1.24488 -2
-2 1 2 116.376 1.24488 1
-1 -1 2 2563.14 29.148 -2
-1 1 2 2563.14 29.148 1
0 1 2 940.237 8.6985 1
1 1 2 1644.6 20.5016 1
2 1 2 49.9139 0.8047 1
3 1 2 734.219 6.14155 1
4 1 2 565.356 4.92684 1
5 -1 2 166.592 3.75236 -2
5 1 2 166.592 3.75236 1
6 -1 2 115.594 3.01032 -2
6 1 2 115.594 3.01032 1
7 -1 2 19.8523 1.93476 -2
7 1 2 19.8523 1.93476 1
8 -1 2 -2.262 4.63145 -2
8 1 2 -2.262 4.63145 1
9 -1 2 29.3905 5.77362 -2
9 1 2 29.3905 5.77362 1
10 1 2 1.09692 0.77839 1
-8 -2 2 87.5592 1.93391 -2
-8 2 2 87.5592 1.93391 1
-7 -2 2 328.099 3.88141 -2
-7 2 2 328.099 3.88141 1
-6 -2 2 6.29297 1.21603 -2
-6 2 2 6.29297 1.21603 1
-5 -2 2 7.40693 0.65644 -2
-5 2 2 7.40693 0.65644 1
-4 -2 2 806.362 7.02622 -2
-4 2 2 806.362 7.02622 1
-3 -2 2 122.556 1.29596 -2
-3 2 2 122.556 1.29596 1
-2 -2 2 1934.54 15.3943 -2
-2 2 2 1934.54 15.3943 1
-1 -2 2 100.333 0.98551 -2
-1 2 2 100.333 0.98551 1
0 -2 2 51.2594 0.88246 -2
0 2 2 51.2594 0.88246 1
1 -2 2 924.659 15.1651 -2
1 2 2 924.659 15.1651 1
2 -2 2 570.376 10.4158 -2
2 2 2 570.376 10.4158 1
3 2 2 233.805 2.20433 1
4 2 2 913.746 7.74112 1
5 -2 2 933.314 19.0169 -2
5 2 2 933.314 19.0169 1
6 2 2 4.72759 0.37696 1
7 -2 2 1454.03 23.7008 -2
7 2 2 1454.03 23.7008 1
8 2 2 176.664 2.63618 1
9 2 2 6.23378 0.66294 1
10 -2 2 190.236 9.77181 -2
10 2 2 190.236 9.77181 1
-8 -3 2 -2.4318 1.4287 -2
-8 3 2 -2.4318 1.4287 1
-7 -3 2 1229.99 12.8379 -2
-7 3 2 1229.99 12.8379 1
-6 -3 2 1674.01 15.8883 -2
-6 3 2 1674.01 15.8883 1
-5 -3 2 28.472 0.9482 -2
-5 3 2 28.472 0.9482 1
-4 -3 2 2344.54 18.1433 -2
-4 3 2 2344.54 18.1433 1
-3 -3 2 9999.99 225.322 -2
-3 3 2 9999.99 225.322 1
-2 -3 2 249.433 2.1951 -2
-2 3 2 249.433 2.1951 1
-1 -3 2 3587.71 28.6794 -2
-1 3 2 3587.71 28.6794 1
1 -3 2 1491.27 13.7955 -2
1 3 2 1491.27 13.7955 1
2 -3 2 514.973 4.96648 -2
2 3 2 514.973 4.96648 1
3 -3 2 3205.13 47.1749 -2
3 3 2 3205.13 47.1749 1
4 -3 2 1807.65 35.7303 -2
4 3 2 1807.65 35.7303 1
5 -3 2 70.7426 2.66012 -2
5 3 2 70.7426 2.66012 1
6 -3 2 583.117 16.6261 -2
6 3 2 583.117 16.6261 1
7 -3 2 355.74 13.0133 -2
7 3 2 355.74 13.0133 1
8 -3 2 23.1727 3.31512 -2
8 3 2 23.1727 3.31512 1
9 3 2 63.594 1.54234 1
-8 -4 2 -2.1325 1.59322 -2
-8 4 2 -2.1325 1.59322 1
-7 -4 2 4.9276 1.33788 -2
-7 4 2 4.9276 1.33788 1
-6 -4 2 13.4765 1.25803 -2
-6 4 2 13.4765 1.25803 1
-5 -4 2 13.2236 0.85065 -2
-5 4 2 13.2236 0.85065 1
-4 -4 2 46.3116 0.74937 -2
-4 4 2 46.3116 0.74937 1
-3 -4 2 21.7991 0.6162 -2
-3 4 2 21.7991 0.6162 1
-2 -4 2 70.2945 0.91293 -2
-2 4 2 70.2945 0.91293 1
-1 -4 2 31.5129 0.63325 -2
-1 4 2 31.5129 0.63325 1
0 -4 2 15.4198 0.48261 -2
0 4 2 15.4198 0.48261 1
1 -4 2 17.4704 0.40817 -2
1 4 2 17.4704 0.40817 1
2 -4 2 321.812 2.89768 -2
2 4 2 321.812 2.89768 1
3 -4 2 451.037 4.31817 -2
3 4 2 451.037 4.31817 1
4 -4 2 150.749 2.46696 -2
4 4 2 150.749 2.46696 1
5 -4 2 18.9856 3.54936 -2
5 4 2 18.9856 3.54936 1
6 -4 2 1.51575 2.88423 -2
6 4 2 1.51575 2.88423 1
7 -4 2 1.32536 3.50512 -2
7 4 2 1.32536 3.50512 1
8 4 2 87.0009 1.55819 1
9 -4 2 6.61508 5.6099 -2
9 4 2 6.61508 5.6099 1
-8 -5 2 4.59965 2.62697 -2
-8 5 2 4.59965 2.62697 1
-7 -5 2 822.289 9.11953 -2
-7 5 2 822.289 9.11953 1
-6 -5 2 1016.69 10.6078 -2
-6 5 2 1016.69 10.6078 1
-5 -5 2 38.993 1.22023 -2
-5 5 2 38.993 1.22023 1
-4 -5 2 791.722 7.66017 -2
-4 5 2 791.722 7.66017 1
-3 -5 2 2804.4 22.4752 -2
-3 5 2 2804.4 22.4752 1
-2 -5 2 409.91 3.76649 -2
-2 5 2 409.91 3.76649 1
-1 -5 2 452.998 4.00753 -2
-1 5 2 452.998 4.00753 1
0 -5 2 4828.4 44.2919 -2
0 5 2 4828.4 44.2919 1
1 -5 2 2999.92 24.0819 -2
1 5 2 2999.92 24.0819 1
2 -5 2 480.581 3.7327 -2
2 5 2 480.581 3.7327 1
3 -5 2 1997.28 16.3602 -2
3 5 2 1997.28 16.3602 1
4 -5 2 883.217 8.38027 -2
4 5 2 883.217 8.38027 1
5 -5 2 -1.0932 2.23299 -2
5 5 2 -1.0932 2.23299 1
6 -5 2 498.985 16.782 -2
6 5 2 498.985 16.782 1
7 -5 2 225.345 8.07736 -2
7 5 2 225.345 8.07736 1
8 -5 2 85.9106 6.0935 -2
8 5 2 85.9106 6.0935 1
9 -5 2 153.926 49.0507 -2
9 5 2 153.926 49.0507 1
-7 -6 2 339.939 4.89974 -2
-7 6 2 339.939 4.89974 1
-6 -6 2 46.3379 1.59373 -2
-6 6 2 46.3379 1.59373 1
-5 -6 2 593.743 7.87255 -2
-5 6 2 593.743 7.87255 1
-4 -6 2 220.759 2.69955 -2
-4 6 2 220.759 2.69955 1
-3 -6 2 96.0207 1.34379 -2
-3 6 2 96.0207 1.34379 1
-2 -6 2 812.614 6.96653 -2
-2 6 2 812.614 6.96653 1
-1 -6 2 385.519 3.56188 -2
-1 6 2 385.519 3.56188 1
0 -6 2 78.5978 0.99752 -2
0 6 2 78.5978 0.99752 1
1 -6 2 1720.24 13.3757 -2
1 6 2 1720.24 13.3757 1
2 -6 2 482.955 4.18544 -2
2 6 2 482.955 4.18544 1
3 -6 2 227.091 2.30255 -2
3 6 2 227.091 2.30255 1
4 -6 2 1210.74 10.227 -2
4 6 2 1210.74 10.227 1
5 -6 2 522.342 6.72276 -2
5 6 2 522.342 6.72276 1
6 -6 2 2.12695 2.78527 -2
6 6 2 2.12695 2.78527 1
7 -6 2 460.962 10.8833 -2
7 6 2 460.962 10.8833 1
8 -6 2 434.574 10.2983 -2
8 6 2 434.574 10.2983 1
9 6 2 4.27725 0.75387 1
-7 -7 2 124.63 2.66955 -2
-7 7 2 124.63 2.66955 1
-6 -7 2 71.9415 2.11423 -2
-6 7 2 71.9415 2.11423 1
-5 -7 2 93.8879 1.9941 -2
-5 7 2 93.8879 1.9941 1
-4 -7 2 35.997 1.17833 -2
-4 7 2 35.997 1.17833 1
-3 -7 2 507.104 6.0065 -2
-3 7 2 507.104 6.0065 1
-2 -7 2 15.6875 0.94919 -2
-2 7 2 15.6875 0.94919 1
-1 -7 2 159.037 1.90182 -2
-1 7 2 159.037 1.90182 1
0 -7 2 283.391 2.76002 -2
0 7 2 283.391 2.76002 1
1 -7 2 130.763 1.48771 -2
1 7 2 130.763 1.48771 1
2 -7 2 21.8444 0.64896 -2
2 7 2 21.8444 0.64896 1
3 -7 2 39.9883 0.78811 -2
3 7 2 39.9883 0.78811 1
4 -7 2 55.2927 1.26348 -2
4 7 2 55.2927 1.26348 1
5 -7 2 12.8169 1.59402 -2
5 7 2 12.8169 1.59402 1
6 -7 2 34.5376 3.66233 -2
6 7 2 34.5376 3.66233 1
7 -7 2 37.8654 2.92794 -2
7 7 2 37.8654 2.92794 1
8 -7 2 22.943 3.15295 -2
8 7 2 22.943 3.15295 1
-6 -8 2 3.32079 1.66972 -2
-6 8 2 3.32079 1.66972 1
-5 -8 2 196.605 2.53772 -2
-5 8 2 196.605 2.53772 1
-4 -8 2 390.597 4.6627 -2
-4 8 2 390.597 4.6627 1
-3 -8 2 108.979 2.17479 -2
-3 8 2 108.979 2.17479 1
-2 -8 2 778.227 8.6101 -2
-2 8 2 778.227 8.6101 1
-1 -8 2 261.78 4.20732 -2
-1 8 2 261.78 4.20732 1
0 -8 2 149.975 1.87566 -2
0 8 2 149.975 1.87566 1
1 -8 2 1118.21 9.18188 -2
1 8 2 1118.21 9.18188 1
2 -8 2 280.304 2.88678 -2
2 8 2 280.304 2.88678 1
3 -8 2 87.008 1.33692 -2
3 8 2 87.008 1.33692 1
4 -8 2 1645.87 13.8491 -2
4 8 2 1645.87 13.8491 1
5 -8 2 940.077 10.1069 -2
5 8 2 940.077 10.1069 1
6 -8 2 91.8983 46.3126 -2
6 8 2 91.8983 46.3126 1
7 -8 2 676.996 13.7198 -2
7 8 2 676.996 13.7198 1
-5 -9 2 40.563 1.54227 -2
-5 9 2 40.563 1.54227 1
-4 -9 2 136.156 2.21898 -2
-4 9 2 136.156 2.21898 1
-3 -9 2 231.544 3.04694 -2
-3 9 2 231.544 3.04694 1
-2 -9 2 9.74357 1.30456 -2
-2 9 2 9.74357 1.30456 1
-1 -9 2 193.765 2.67704 -2
-1 9 2 193.765 2.67704 1
0 -9 2 307.469 3.71979 -2
0 9 2 307.469 3.71979 1
1 -9 2 15.8551 1.083 -2
1 9 2 15.8551 1.083 1
2 -9 2 20.0375 1.10467 -2
2 9 2 20.0375 1.10467 1
3 -9 2 198.92 2.63081 -2
3 9 2 198.92 2.63081 1
4 -9 2 137.052 2.76797 -2
4 9 2 137.052 2.76797 1
5 -9 2 77.1585 2.31943 -2
5 9 2 77.1585 2.31943 1
6 -9 2 93.7475 4.30828 -2
6 9 2 93.7475 4.30828 1
7 9 2 13.4423 0.8575 1
-4 -10 2 37.4761 1.54036 -2
-4 10 2 37.4761 1.54036 1
-3 -10 2 14.8813 1.45963 -2
-3 10 2 14.8813 1.45963 1
-2 -10 2 19.2851 1.69399 -2
-2 10 2 19.2851 1.69399 1
-1 -10 2 30.06 1.44845 -2
-1 10 2 30.06 1.44845 1
0 -10 2 34.0622 1.11505 -2
0 10 2 34.0622 1.11505 1
1 -10 2 240.562 2.48682 -2
1 10 2 240.562 2.48682 1
2 -10 2 14.1329 1.09658 -2
2 10 2 14.1329 1.09658 1
3 -10 2 167.941 2.03387 -2
3 10 2 167.941 2.03387 1
4 -10 2 155.692 3.59904 -2
4 10 2 155.692 3.59904 1
5 -10 2 11.4926 1.96603 -2
5 10 2 11.4926 1.96603 1
6 10 2 -0.5464 0.67363 1
-3 -11 2 438.827 5.38173 -2
-3 11 2 438.827 5.38173 1
-2 -11 2 127.272 2.40058 -2
-2 11 2 127.272 2.40058 1
-1 -11 2 223.207 3.10884 -2
-1 11 2 223.207 3.10884 1
0 -11 2 913.248 9.74437 -2
0 11 2 913.248 9.74437 1
1 -11 2 208.741 2.68439 -2
1 11 2 208.741 2.68439 1
2 -11 2 103.496 1.74344 -2
2 11 2 103.496 1.74344 1
3 -11 2 498.934 4.94204 -2
3 11 2 498.934 4.94204 1
4 -11 2 117.841 2.33457 -2
4 11 2 117.841 2.33457 1
-1 12 2 74.637 1.76172 1
0 -12 2 9.23755 1.81307 -2
0 12 2 9.23755 1.81307 1
1 -12 2 21.5401 2.26917 -2
1 12 2 21.5401 2.26917 1
2 12 2 13.4039 0.82211 1
-2 11 3 9.02857 1.67712 -2
-2 -11 3 9.02857 1.67712 1
-1 11 3 42.9276 1.59515 -2
-1 -11 3 42.9276 1.59515 1
0 11 3 27.4358 1.74334 -2
0 -11 3 27.4358 1.74334 1
1 11 3 37.0155 1.94089 -2
1 -11 3 37.0155 1.94089 1
2 11 3 6.58881 1.88554 -2
2 -11 3 6.58881 1.88554 1
3 11 3 30.6903 2.50247 -2
3 -11 3 30.6903 2.50247 1
4 11 3 22.5377 2.97881 -2
4 -11 3 22.5377 2.97881 1
-4 10 3 23.1743 1.67839 -2
-4 -10 3 23.1743 1.67839 1
-3 10 3 414.123 4.79435 -2
-3 -10 3 414.123 4.79435 1
-2 10 3 257.8 3.71422 -2
-2 -10 3 257.8 3.71422 1
-1 10 3 0.66361 1.37457 -2
-1 -10 3 0.66361 1.37457 1
0 10 3 654.157 7.55476 -2
0 -10 3 654.157 7.55476 1
1 10 3 520.084 6.57533 -2
1 -10 3 520.084 6.57533 1
2 10 3 4.65689 1.99646 -2
2 -10 3 4.65689 1.99646 1
3 10 3 175.85 3.11279 -2
3 -10 3 175.85 3.11279 1
4 10 3 436.691 7.32074 -2
4 -10 3 436.691 7.32074 1
5 10 3 39.1269 52.1095 -2
5 -10 3 39.1269 52.1095 1
-5 9 3 18.8201 1.01055 -2
-5 -9 3 18.8201 1.01055 1
-4 9 3 351.615 4.30393 -2
-4 -9 3 351.615 4.30393 1
-3 9 3 488.632 6.57323 -2
-3 -9 3 488.632 6.57323 1
-2 9 3 1.29084 1.69042 -2
-2 -9 3 1.29084 1.69042 1
-1 9 3 317.328 4.2757 -2
-1 -9 3 317.328 4.2757 1
0 9 3 220.175 3.76595 -2
0 -9 3 220.175 3.76595 1
1 9 3 51.9158 1.99423 -2
1 -9 3 51.9158 1.99423 1
2 9 3 320.579 4.77941 -2
2 -9 3 320.579 4.77941 1
3 9 3 33.864 1.77859 -2
3 -9 3 33.864 1.77859 1
4 9 3 260.695 5.08549 -2
4 -9 3 260.695 5.08549 1
5 9 3 278.813 6.25369 -2
5 -9 3 278.813 6.25369 1
6 -9 3 -0.2555 0.81099 1
-6 8 3 -8.3275 2.63631 -2
-6 -8 3 -8.3275 2.63631 1
-5 8 3 49.1533 1.35731 -2
-5 -8 3 49.1533 1.35731 1
-4 8 3 8.9089 1.09917 -2
-4 -8 3 8.9089 1.09917 1
-3 8 3 75.222 1.70364 -2
-3 -8 3 75.222 1.70364 1
-2 8 3 19.6401 1.34933 -2
-2 -8 3 19.6401 1.34933 1
-1 8 3 30.0827 1.39769 -2
-1 -8 3 30.0827 1.39769 1
0 8 3 35.9278 1.25109 -2
0 -8 3 35.9278 1.25109 1
1 8 3 26.5361 1.6734 -2
1 -8 3 26.5361 1.6734 1
2 8 3 15.2858 1.87447 -2
2 -8 3 15.2858 1.87447 1
3 8 3 9.56156 1.9796 -2
3 -8 3 9.56156 1.9796 1
4 8 3 61.649 2.99072 -2
4 -8 3 61.649 2.99072 1
5 8 3 27.3258 4.36811 -2
5 -8 3 27.3258 4.36811 1
6 8 3 86.7253 6.12758 -2
6 -8 3 86.7253 6.12758 1
7 8 3 62.2669 7.77224 -2
7 -8 3 62.2669 7.77224 1
-6 7 3 247.715 3.09063 -2
-6 -7 3 247.715 3.09063 1
-5 7 3 132.863 1.74201 -2
-5 -7 3 132.863 1.74201 1
-4 7 3 982.639 9.97483 -2
-4 -7 3 982.639 9.97483 1
-3 7 3 476.228 5.63124 -2
-3 -7 3 476.228 5.63124 1
-2 7 3 131.072 1.81743 -2
-2 -7 3 131.072 1.81743 1
-1 7 3 529.496 5.139 -2
-1 -7 3 529.496 5.139 1
0 7 3 388.013 3.73119 -2
0 -7 3 388.013 3.73119 1
1 7 3 119.169 1.56144 -2
1 -7 3 119.169 1.56144 1
2 7 3 444.03 4.3568 -2
2 -7 3 444.03 4.3568 1
3 7 3 226.846 3.91391 -2
3 -7 3 226.846 3.91391 1
4 7 3 132.26 3.49588 -2
4 -7 3 132.26 3.49588 1
5 7 3 811.628 21.5618 -2
5 -7 3 811.628 21.5618 1
6 7 3 101.157 6.71154 -2
6 -7 3 101.157 6.71154 1
7 7 3 119.519 7.75624 -2
7 -7 3 119.519 7.75624 1
8 -7 3 151.496 2.26332 1
-7 6 3 77.4971 1.98095 -2
-7 -6 3 77.4971 1.98095 1
-6 6 3 330.756 3.54578 -2
-6 -6 3 330.756 3.54578 1
-5 6 3 60.6041 1.21929 -2
-5 -6 3 60.6041 1.21929 1
-4 6 3 113.61 1.63318 -2
-4 -6 3 113.61 1.63318 1
-3 6 3 907.67 8.5967 -2
-3 -6 3 907.67 8.5967 1
-2 6 3 562.637 4.654 -2
-2 -6 3 562.637 4.654 1
-1 6 3 149.335 1.56132 -2
-1 -6 3 149.335 1.56132 1
0 6 3 1708.07 14.8501 -2
0 -6 3 1708.07 14.8501 1
1 6 3 2529.94 20.2129 -2
1 -6 3 2529.94 20.2129 1
2 6 3 84.5364 1.42667 -2
2 -6 3 84.5364 1.42667 1
3 6 3 1051.9 10.072 -2
3 -6 3 1051.9 10.072 1
4 6 3 1331.03 16.8176 -2
4 -6 3 1331.03 16.8176 1
5 6 3 192.599 6.53099 -2
5 -6 3 192.599 6.53099 1
6 -6 3 198.338 2.7063 1
7 6 3 429.446 14.3733 -2
7 -6 3 429.446 14.3733 1
8 -6 3 61.1292 1.47625 1
-7 5 3 227.602 3.07562 -2
-7 -5 3 227.602 3.07562 1
-6 5 3 43.5659 1.23953 -2
-6 -5 3 43.5659 1.23953 1
-5 5 3 86.4106 1.37328 -2
-5 -5 3 86.4106 1.37328 1
-4 5 3 291.502 3.07472 -2
-4 -5 3 291.502 3.07472 1
-3 5 3 208.657 2.10233 -2
-3 -5 3 208.657 2.10233 1
-2 5 3 290.766 2.80529 -2
-2 -5 3 290.766 2.80529 1
-1 5 3 934.498 7.43898 -2
-1 -5 3 934.498 7.43898 1
0 5 3 257.318 2.62234 -2
0 -5 3 257.318 2.62234 1
1 5 3 298.068 2.93995 -2
1 -5 3 298.068 2.93995 1
2 5 3 837.211 7.81561 -2
2 -5 3 837.211 7.81561 1
3 5 3 200.525 2.54971 -2
3 -5 3 200.525 2.54971 1
4 5 3 113.565 1.99022 -2
4 -5 3 113.565 1.99022 1
5 5 3 506.94 10.7077 -2
5 -5 3 506.94 10.7077 1
6 5 3 57.6863 4.45681 -2
6 -5 3 57.6863 4.45681 1
7 5 3 35.2975 5.56046 -2
7 -5 3 35.2975 5.56046 1
8 5 3 231.318 10.2867 -2
8 -5 3 231.318 10.2867 1
9 -5 3 6.27585 0.83414 1
-8 4 3 91.9876 2.70709 -2
-8 -4 3 91.9876 2.70709 1
-7 4 3 23.5948 1.38147 -2
-7 -4 3 23.5948 1.38147 1
-6 4 3 1298.32 13.1762 -2
-6 -4 3 1298.32 13.1762 1
-5 4 3 167.761 2.12099 -2
-5 -4 3 167.761 2.12099 1
-4 4 3 89.6162 1.28005 -2
-4 -4 3 89.6162 1.28005 1
-3 4 3 2813.05 22.3683 -2
-3 -4 3 2813.05 22.3683 1
-2 4 3 3424.12 27.0011 -2
-2 -4 3 3424.12 27.0011 1
-1 4 3 378.665 3.30974 -2
-1 -4 3 378.665 3.30974 1
0 4 3 3574.28 32.918 -2
0 -4 3 3574.28 32.918 1
1 4 3 4816.54 55.4806 -2
1 -4 3 4816.54 55.4806 1
2 4 3 113.623 1.53054 -2
2 -4 3 113.623 1.53054 1
3 4 3 2551.33 23.9295 -2
3 -4 3 2551.33 23.9295 1
4 4 3 3097.5 41.4717 -2
4 -4 3 3097.5 41.4717 1
5 4 3 471.747 8.04927 -2
5 -4 3 471.747 8.04927 1
6 4 3 178.789 4.00838 -2
6 -4 3 178.789 4.00838 1
7 4 3 1323.29 36.7652 -2
7 -4 3 1323.29 36.7652 1
8 -4 3 132.594 1.90309 1
9 -4 3 60.2471 1.57183 1
-8 3 3 5.04273 1.56678 -2
-8 -3 3 5.04273 1.56678 1
-7 3 3 214.206 3.18142 -2
-7 -3 3 214.206 3.18142 1
-6 3 3 41.4448 1.2727 -2
-6 -3 3 41.4448 1.2727 1
-5 3 3 108.496 1.62446 -2
-5 -3 3 108.496 1.62446 1
-4 3 3 23.5709 0.74848 -2
-4 -3 3 23.5709 0.74848 1
-3 3 3 806.062 6.81688 -2
-3 -3 3 806.062 6.81688 1
-2 3 3 15.3444 0.61107 -2
-2 -3 3 15.3444 0.61107 1
-1 3 3 397.378 3.96046 -2
-1 -3 3 397.378 3.96046 1
0 3 3 111.644 1.54877 -2
0 -3 3 111.644 1.54877 1
1 3 3 6.6575 0.56325 -2
1 -3 3 6.6575 0.56325 1
2 3 3 909.306 8.80268 -2
2 -3 3 909.306 8.80268 1
3 3 3 65.3067 1.21992 -2
3 -3 3 65.3067 1.21992 1
4 3 3 570.502 7.80004 -2
4 -3 3 570.502 7.80004 1
5 3 3 24.0909 1.44568 -2
5 -3 3 24.0909 1.44568 1
6 3 3 23.0311 2.50513 -2
6 -3 3 23.0311 2.50513 1
7 -3 3 55.0568 0.99714 1
8 -3 3 170.835 2.0213 1
9 -3 3 11.4702 0.70844 1
-8 2 3 33.0356 2.10886 -2
-8 -2 3 33.0356 2.10886 1
-7 2 3 75.3916 1.8819 -2
-7 -2 3 75.3916 1.8819 1
-6 2 3 682.104 7.74561 -2
-6 -2 3 682.104 7.74561 1
-5 2 3 286.011 3.26685 -2
-5 -2 3 286.011 3.26685 1
-4 2 3 137.901 1.61788 -2
-4 -2 3 137.901 1.61788 1
-3 2 3 4579.62 36.9844 -2
-3 -2 3 4579.62 36.9844 1
-2 2 3 2059.47 17.2105 -2
-2 -2 3 2059.47 17.2105 1
-1 2 3 364.058 4.09624 -2
-1 -2 3 364.058 4.09624 1
0 2 3 3661.12 75.8978 -2
0 -2 3 3661.12 75.8978 1
1 2 3 3942.29 90.2044 -2
1 -2 3 3942.29 90.2044 1
2 2 3 3.67024 0.48835 -2
2 -2 3 3.67024 0.48835 1
3 2 3 1845.29 21.8635 -2
3 -2 3 1845.29 21.8635 1
4 2 3 4965.87 61.3564 -2
4 -2 3 4965.87 61.3564 1
5 2 3 403.059 8.3907 -2
5 -2 3 403.059 8.3907 1
6 2 3 559.946 16.3099 -2
6 -2 3 559.946 16.3099 1
7 -2 3 290.484 2.72179 1
8 2 3 180.606 7.76691 -2
8 -2 3 180.606 7.76691 1
9 -2 3 23.5034 0.92214 1
10 -2 3 11.7328 0.82186 1
-8 1 3 124.835 2.28366 -2
-8 -1 3 124.835 2.28366 1
-7 1 3 1736.09 18.6235 -2
-7 -1 3 1736.09 18.6235 1
-6 1 3 898.557 8.72078 -2
-6 -1 3 898.557 8.72078 1
-5 1 3 72.5527 1.13519 -2
-5 -1 3 72.5527 1.13519 1
-4 1 3 1582.79 13.8455 -2
-4 -1 3 1582.79 13.8455 1
-3 1 3 2454.86 20.0643 -2
-3 -1 3 2454.86 20.0643 1
-2 1 3 789.453 6.70879 -2
-2 -1 3 789.453 6.70879 1
-1 1 3 1112.97 16.1292 -2
-1 -1 3 1112.97 16.1292 1
0 1 3 714.751 19.6247 -2
0 -1 3 714.751 19.6247 1
1 1 3 30.7746 0.88819 -2
1 -1 3 30.7746 0.88819 1
2 1 3 727.262 8.97247 -2
2 -1 3 727.262 8.97247 1
3 1 3 414.738 7.59348 -2
3 -1 3 414.738 7.59348 1
4 1 3 526.05 8.06124 -2
4 -1 3 526.05 8.06124 1
5 -1 3 1018.72 7.65136 1
6 1 3 70.3318 3.74724 -2
6 -1 3 70.3318 3.74724 1
7 -1 3 341.139 3.40508 1
8 -1 3 685.954 6.45704 1
9 -1 3 75.643 1.30793 1
10 2 3 89.7487 8.44884 -2
10 -1 3 89.7487 8.44884 1
-8 0 3 5.84644 1.48996 -2
-8 0 3 5.84644 1.48996 1
-7 0 3 7.76589 1.13802 -2
-7 0 3 7.76589 1.13802 1
-6 0 3 -5.4529 0.83754 -2
-6 0 3 -5.4529 0.83754 1
-5 0 3 3.24911 0.33239 -2
-5 0 3 3.24911 0.33239 1
-4 0 3 5.47406 0.62095 -2
-4 0 3 5.47406 0.62095 1
-3 0 3 10.8341 0.57605 -2
-3 0 3 10.8341 0.57605 1
-2 0 3 5.61214 0.76627 -2
-2 0 3 5.61214 0.76627 1
-1 0 3 8.77685 1.21828 -2
-1 0 3 8.77685 1.21828 1
0 0 3 18.0482 0.32156 1
1 0 3 3.60362 0.49551 -2
1 0 3 3.60362 0.49551 1
2 0 3 1.97524 0.40817 -2
2 0 3 1.97524 0.40817 1
3 0 3 13.1483 5.74614 -2
3 0 3 13.1483 5.74614 1
4 0 3 267.662 8.77832 -2
4 0 3 267.662 8.77832 1
5 0 3 3.5441 1.80473 -2
5 0 3 3.5441 1.80473 1
6 0 3 54.5976 0.77818 1
7 0 3 1.1811 0.33549 1
8 0 3 2.77557 0.53069 1
9 0 3 1.65135 0.68519 1
10 1 3 74.7512 7.60623 -2
10 0 3 74.7512 7.60623 1
-8 -1 3 119.492 2.41388 -2
-8 1 3 119.492 2.41388 1
-7 -1 3 1766.07 17.1887 -2
-7 1 3 1766.07 17.1887 1
-6 -1 3 886.393 9.48975 -2
-6 1 3 886.393 9.48975 1
-5 -1 3 73.6878 1.17933 -2
-5 1 3 73.6878 1.17933 1
-4 -1 3 1574.81 13.204 -2
-4 1 3 1574.81 13.204 1
-3 -1 3 2451.04 20.1335 -2
-3 1 3 2451.04 20.1335 1
-2 -1 3 790.819 7.1084 -2
-2 1 3 790.819 7.1084 1
-1 1 3 486.344 4.40765 1
0 1 3 177.917 1.79934 1
1 1 3 9.228 0.24612 1
2 1 3 326.554 4.72252 1
3 -1 3 391.867 17.1868 -2
3 1 3 391.867 17.1868 1
4 1 3 314.682 3.16235 1
5 1 3 490.243 4.36042 1
6 1 3 48.55 0.81041 1
7 1 3 222.065 2.38369 1
8 1 3 692.994 6.39752 1
9 1 3 10.2665 0.70197 1
10 1 3 74.0121 1.63251 1
-8 -2 3 35.6353 1.52225 -2
-8 2 3 35.6353 1.52225 1
-7 -2 3 64.2137 1.59652 -2
-7 2 3 64.2137 1.59652 1
-6 -2 3 675.665 7.44028 -2
-6 2 3 675.665 7.44028 1
-5 -2 3 290.468 2.99258 -2
-5 2 3 290.468 2.99258 1
-4 -2 3 132.286 1.7201 -2
-4 2 3 132.286 1.7201 1
-3 -2 3 4546.15 35.5622 -2
-3 2 3 4546.15 35.5622 1
-2 -2 3 2080.32 18.8151 -2
-2 2 3 2080.32 18.8151 1
-1 -2 3 339.349 8.03414 -2
-1 2 3 339.349 8.03414 1
0 2 3 1687.19 14.7518 1
1 2 3 2440.85 38.6187 1
2 2 3 0.93432 0.30987 1
3 -2 3 1849.54 54.9399 -2
3 2 3 1849.54 54.9399 1
4 2 3 2633.53 33.1972 1
5 2 3 331.634 3.2885 1
6 2 3 296.13 2.86929 1
7 2 3 654.244 5.93126 1
8 2 3 169.086 2.30849 1
9 2 3 53.0228 1.34408 1
10 -1 3 -1.7062 44.7094 -2
10 2 3 -1.7062 44.7094 1
-8 -3 3 1.75458 1.60112 -2
-8 3 3 1.75458 1.60112 1
-7 -3 3 217.538 2.72924 -2
-7 3 3 217.538 2.72924 1
-6 -3 3 49.3981 1.45857 -2
-6 3 3 49.3981 1.45857 1
-5 -3 3 96.9003 1.41498 -2
-5 3 3 96.9003 1.41498 1
-4 -3 3 20.4753 0.73277 -2
-4 3 3 20.4753 0.73277 1
-3 -3 3 821.697 7.06331 -2
-3 3 3 821.697 7.06331 1
-2 -3 3 16.6038 0.61163 -2
-2 3 3 16.6038 0.61163 1
-1 -3 3 369.064 3.68643 -2
-1 3 3 369.064 3.68643 1
0 -3 3 103.283 2.46734 -2
0 3 3 103.283 2.46734 1
1 -3 3 5.25145 0.68139 -2
1 3 3 5.25145 0.68139 1
2 -3 3 886.719 17.423 -2
2 3 3 886.719 17.423 1
3 -3 3 65.5578 2.8143 -2
3 3 3 65.5578 2.8143 1
4 3 3 311.508 3.52357 1
5 3 3 8.23511 0.38634 1
6 3 3 6.94651 0.40545 1
7 -3 3 65.8855 3.77217 -2
7 3 3 65.8855 3.77217 1
8 3 3 29.3696 0.95044 1
9 3 3 0.46065 0.59888 1
10 3 3 -1.1777 0.77048 1
-8 -4 3 94.8939 2.32176 -2
-8 4 3 94.8939 2.32176 1
-7 -4 3 16.8502 1.21705 -2
-7 4 3 16.8502 1.21705 1
-6 -4 3 1290.71 12.6249 -2
-6 4 3 1290.71 12.6249 1
-5 -4 3 166.967 1.99886 -2
-5 4 3 166.967 1.99886 1
-4 -4 3 85.8674 1.25675 -2
-4 4 3 85.8674 1.25675 1
-3 -4 3 2804.88 22.74 -2
-3 4 3 2804.88 22.74 1
-2 -4 3 3557.12 30.7663 -2
-2 4 3 3557.12 30.7663 1
-1 -4 3 368.286 3.22235 -2
-1 4 3 368.286 3.22235 1
0 -4 3 3552.46 36.7704 -2
0 4 3 3552.46 36.7704 1
1 -4 3 5126.61 98.592 -2
1 4 3 5126.61 98.592 1
2 -4 3 123.896 1.86751 -2
2 4 3 123.896 1.86751 1
3 -4 3 2533.37 43.266 -2
3 4 3 2533.37 43.266 1
4 4 3 1520.11 13.3762 1
5 -4 3 489.785 15.8929 -2
5 4 3 489.785 15.8929 1
6 -4 3 137.779 5.16664 -2
6 4 3 137.779 5.16664 1
7 4 3 423.997 4.06062 1
8 4 3 139.147 1.93579 1
9 4 3 10.4668 0.64971 1
-7 -5 3 199.14 2.92734 -2
-7 5 3 199.14 2.92734 1
-6 -5 3 29.1245 1.30422 -2
-6 5 3 29.1245 1.30422 1
-5 -5 3 84.6278 1.59233 -2
-5 5 3 84.6278 1.59233 1
-4 -5 3 276.725 3.66907 -2
-4 5 3 276.725 3.66907 1
-3 -5 3 197.39 2.17027 -2
-3 5 3 197.39 2.17027 1
-2 -5 3 283.389 2.93812 -2
-2 5 3 283.389 2.93812 1
-1 -5 3 949.989 7.96268 -2
-1 5 3 949.989 7.96268 1
0 -5 3 253.111 2.4481 -2
0 5 3 253.111 2.4481 1
1 -5 3 298.446 2.69772 -2
1 5 3 298.446 2.69772 1
2 -5 3 887.153 8.94155 -2
2 5 3 887.153 8.94155 1
3 -5 3 223.997 2.51797 -2
3 5 3 223.997 2.51797 1
4 -5 3 119.395 2.39781 -2
4 5 3 119.395 2.39781 1
5 -5 3 555.366 11.6801 -2
5 5 3 555.366 11.6801 1
6 -5 3 50.6201 3.31616 -2
6 5 3 50.6201 3.31616 1
7 -5 3 17.171 3.841 -2
7 5 3 17.171 3.841 1
8 5 3 145.622 2.01372 1
9 5 3 72.4464 1.53128 1
-7 -6 3 92.6782 2.70566 -2
-7 6 3 92.6782 2.70566 1
-6 -6 3 342.173 4.09265 -2
-6 6 3 342.173 4.09265 1
-5 -6 3 63.0918 1.33951 -2
-5 6 3 63.0918 1.33951 1
-4 -6 3 107.741 2.19349 -2
-4 6 3 107.741 2.19349 1
-3 -6 3 950.197 9.07122 -2
-3 6 3 950.197 9.07122 1
-2 -6 3 588.111 5.27027 -2
-2 6 3 588.111 5.27027 1
-1 -6 3 143.294 1.66352 -2
-1 6 3 143.294 1.66352 1
0 -6 3 1670.85 13.6591 -2
0 6 3 1670.85 13.6591 1
1 -6 3 2617.04 21.0681 -2
1 6 3 2617.04 21.0681 1
2 -6 3 84.695 1.1212 -2
2 6 3 84.695 1.1212 1
3 -6 3 989.172 9.64421 -2
3 6 3 989.172 9.64421 1
4 -6 3 1299.69 18.054 -2
4 6 3 1299.69 18.054 1
5 -6 3 201.852 4.87484 -2
5 6 3 201.852 4.87484 1
6 -6 3 195.587 7.08291 -2
6 6 3 195.587 7.08291 1
7 -6 3 363.527 35.7567 -2
7 6 3 363.527 35.7567 1
8 -6 3 71.0766 5.32101 -2
8 6 3 71.0766 5.32101 1
9 6 3 -0.6986 0.65161 1
-6 -7 3 254.333 3.06131 -2
-6 7 3 254.333 3.06131 1
-5 -7 3 123.779 1.77222 -2
-5 7 3 123.779 1.77222 1
-4 -7 3 938.36 9.78617 -2
-4 7 3 938.36 9.78617 1
-3 -7 3 493.674 5.96307 -2
-3 7 3 493.674 5.96307 1
-2 -7 3 142.567 2.62678 -2
-2 7 3 142.567 2.62678 1
-1 -7 3 529.72 5.40013 -2
-1 7 3 529.72 5.40013 1
0 -7 3 366.783 3.28602 -2
0 7 3 366.783 3.28602 1
1 -7 3 130.005 1.44177 -2
1 7 3 130.005 1.44177 1
2 -7 3 447.198 3.95544 -2
2 7 3 447.198 3.95544 1
3 -7 3 195.351 2.21623 -2
3 7 3 195.351 2.21623 1
4 -7 3 128.75 2.91812 -2
4 7 3 128.75 2.91812 1
5 -7 3 849.121 15.2018 -2
5 7 3 849.121 15.2018 1
6 -7 3 113.515 4.85255 -2
6 7 3 113.515 4.85255 1
7 -7 3 119.354 6.25375 -2
7 7 3 119.354 6.25375 1
8 7 3 297.073 3.44464 1
-6 -8 3 16.484 1.47093 -2
-6 8 3 16.484 1.47093 1
-5 -8 3 60.9958 1.40153 -2
-5 8 3 60.9958 1.40153 1
-4 -8 3 13.486 1.23484 -2
-4 8 3 13.486 1.23484 1
-3 -8 3 72.3232 2.18391 -2
-3 8 3 72.3232 2.18391 1
-2 -8 3 6.67185 1.46407 -2
-2 8 3 6.67185 1.46407 1
-1 -8 3 11.1165 1.57455 -2
-1 8 3 11.1165 1.57455 1
0 -8 3 27.9836 1.02326 -2
0 8 3 27.9836 1.02326 1
1 -8 3 26.1365 1.01289 -2
1 8 3 26.1365 1.01289 1
2 -8 3 11.5596 0.79741 -2
2 8 3 11.5596 0.79741 1
3 -8 3 7.05083 1.30393 -2
3 8 3 7.05083 1.30393 1
4 -8 3 67.249 2.18627 -2
4 8 3 67.249 2.18627 1
5 -8 3 -12.756 34.182 -2
5 8 3 -12.756 34.182 1
6 -8 3 157.338 5.07382 -2
6 8 3 157.338 5.07382 1
7 -8 3 118.885 40.3674 -2
7 8 3 118.885 40.3674 1
8 8 3 15.291 0.78985 1
-5 -9 3 13.704 0.97657 -2
-5 9 3 13.704 0.97657 1
-4 -9 3 313.252 3.65064 -2
-4 9 3 313.252 3.65064 1
-3 -9 3 465.544 6.30592 -2
-3 9 3 465.544 6.30592 1
-2 -9 3 -0.7043 1.22791 -2
-2 9 3 -0.7043 1.22791 1
-1 -9 3 298.323 3.78694 -2
-1 9 3 298.323 3.78694 1
0 -9 3 213.955 2.7215 -2
0 9 3 213.955 2.7215 1
1 -9 3 59.8595 1.60256 -2
1 9 3 59.8595 1.60256 1
2 -9 3 316.397 3.44926 -2
2 9 3 316.397 3.44926 1
3 -9 3 31.8986 1.60686 -2
3 9 3 31.8986 1.60686 1
4 -9 3 283.248 3.90434 -2
4 9 3 283.248 3.90434 1
5 -9 3 320.778 6.84953 -2
5 9 3 320.778 6.84953 1
6 -9 3 -5.0097 4.42568 -2
6 9 3 -5.0097 4.42568 1
7 9 3 67.3373 1.548 1
-4 -10 3 25.911 1.63086 -2
-4 10 3 25.911 1.63086 1
-3 -10 3 390.086 4.66972 -2
-3 10 3 390.086 4.66972 1
-2 -10 3 262.066 3.80861 -2
-2 10 3 262.066 3.80861 1
-1 -10 3 5.43322 1.75902 -2
-1 10 3 5.43322 1.75902 1
0 -10 3 666.718 6.00485 -2
0 10 3 666.718 6.00485 1
1 -10 3 523.032 4.65652 -2
1 10 3 523.032 4.65652 1
2 -10 3 3.16472 1.12575 -2
2 10 3 3.16472 1.12575 1
3 -10 3 185.208 2.8255 -2
3 10 3 185.208 2.8255 1
4 -10 3 436.112 5.70421 -2
4 10 3 436.112 5.70421 1
5 -10 3 34.3697 3.92378 -2
5 10 3 34.3697 3.92378 1
6 10 3 36.1508 1.14847 1
-3 11 3 12.6452 1.14689 1
-2 -11 3 22.4435 1.82199 -2
-2 11 3 22.4435 1.82199 1
-1 -11 3 48.2093 2.08277 -2
-1 11 3 48.2093 2.08277 1
0 -11 3 26.4026 1.56868 -2
0 11 3 26.4026 1.56868 1
1 -11 3 26.8251 1.50407 -2
1 11 3 26.8251 1.50407 1
2 -11 3 -2.697 1.80766 -2
2 11 3 -2.697 1.80766 1
3 -11 3 28.5965 1.84895 -2
3 11 3 28.5965 1.84895 1
4 -11 3 19.7247 2.02094 -2
4 11 3 19.7247 2.02094 1
0 12 3 178.732 4.15505 1
1 12 3 348.174 3.50651 1
2 12 3 36.6564 1.30511 1
-2 11 4 326.47 6.07382 -2
-2 -11 4 326.47 6.07382 1
-1 11 4 57.6085 2.29467 -2
-1 -11 4 57.6085 2.29467 1
0 11 4 87.9062 2.12289 -2
0 -11 4 87.9062 2.12289 1
1 11 4 638.075 6.28185 -2
1 -11 4 638.075 6.28185 1
2 11 4 289.585 4.7024 -2
2 -11 4 289.585 4.7024 1
3 11 4 72.1899 3.52985 -2
3 -11 4 72.1899 3.52985 1
-3 10 4 220.939 3.44562 -2
-3 -10 4 220.939 3.44562 1
-2 10 4 129.885 2.36244 -2
-2 -10 4 129.885 2.36244 1
-1 10 4 21.4912 1.51562 -2
-1 -10 4 21.4912 1.51562 1
0 10 4 115.024 2.37221 -2
0 -10 4 115.024 2.37221 1
1 10 4 210.569 2.88097 -2
1 -10 4 210.569 2.88097 1
2 10 4 10.5441 2.41406 -2
2 -10 4 10.5441 2.41406 1
3 10 4 88.8554 2.57543 -2
3 -10 4 88.8554 2.57543 1
4 10 4 42.5258 3.38321 -2
4 -10 4 42.5258 3.38321 1
5 10 4 -1.2033 8.19121 -2
5 -10 4 -1.2033 8.19121 1
-4 9 4 108.023 2.08003 -2
-4 -9 4 108.023 2.08003 1
-3 9 4 35.991 1.8967 -2
-3 -9 4 35.991 1.8967 1
-2 9 4 223.323 3.38318 -2
-2 -9 4 223.323 3.38318 1
-1 9 4 113.089 2.45985 -2
-1 -9 4 113.089 2.45985 1
0 9 4 36.2052 1.74708 -2
0 -9 4 36.2052 1.74708 1
1 9 4 357.001 5.21367 -2
1 -9 4 357.001 5.21367 1
2 9 4 52.0692 2.5322 -2
2 -9 4 52.0692 2.5322 1
3 9 4 3.04197 1.79632 -2
3 -9 4 3.04197 1.79632 1
4 9 4 58.1917 3.63309 -2
4 -9 4 58.1917 3.63309 1
5 9 4 155.143 8.96351 -2
5 -9 4 155.143 8.96351 1
6 -9 4 -1.5541 0.86233 1
-5 8 4 9.90361 1.46598 -2
-5 -8 4 9.90361 1.46598 1
-4 8 4 565.26 6.01877 -2
-4 -8 4 565.26 6.01877 1
-3 8 4 1599.03 14.7698 -2
-3 -8 4 1599.03 14.7698 1
-2 8 4 345.311 5.02291 -2
-2 -8 4 345.311 5.02291 1
-1 8 4 438.681 6.2266 -2
-1 -8 4 438.681 6.2266 1
0 8 4 1370.2 16.8482 -2
0 -8 4 1370.2 16.8482 1
1 8 4 174.507 4.65959 -2
1 -8 4 174.507 4.65959 1
2 8 4 246.162 8.01941 -2
2 -8 4 246.162 8.01941 1
3 8 4 553.154 15.4203 -2
3 -8 4 553.154 15.4203 1
4 8 4 241.198 5.32891 -2
4 -8 4 241.198 5.32891 1
5 -8 4 92.4928 1.64735 1
6 8 4 200.662 9.09582 -2
6 -8 4 200.662 9.09582 1
7 -8 4 17.6245 0.88447 1
-6 7 4 24.6814 1.46849 -2
-6 -7 4 24.6814 1.46849 1
-5 7 4 6.6209 1.39909 -2
-5 -7 4 6.6209 1.39909 1
-4 7 4 3.45024 1.40981 -2
-4 -7 4 3.45024 1.40981 1
-3 7 4 18.9522 1.58093 -2
-3 -7 4 18.9522 1.58093 1
-2 7 4 32.4921 1.8049 -2
-2 -7 4 32.4921 1.8049 1
-1 7 4 11.5601 1.41092 -2
-1 -7 4 11.5601 1.41092 1
0 7 4 189.446 2.63271 -2
0 -7 4 189.446 2.63271 1
1 7 4 65.518 1.48115 -2
1 -7 4 65.518 1.48115 1
2 7 4 4.46112 1.15864 -2
2 -7 4 4.46112 1.15864 1
3 7 4 4.0845 1.92236 -2
3 -7 4 4.0845 1.92236 1
4 7 4 203.847 35.3375 -2
4 -7 4 203.847 35.3375 1
5 -7 4 48.1565 1.23027 1
6 -7 4 36.8578 1.13106 1
7 7 4 100.387 7.71126 -2
7 -7 4 100.387 7.71126 1
8 8 4 168.005 10.2534 -2
8 -7 4 168.005 10.2534 1
-6 6 4 703.898 6.507 -2
-6 -6 4 703.898 6.507 1
-5 6 4 2.67136 1.2803 -2
-5 -6 4 2.67136 1.2803 1
-4 6 4 601.285 7.03611 -2
-4 -6 4 601.285 7.03611 1
-3 6 4 1055.09 10.5094 -2
-3 -6 4 1055.09 10.5094 1
-2 6 4 50.353 1.21895 -2
-2 -6 4 50.353 1.21895 1
-1 6 4 314.512 2.95589 -2
-1 -6 4 314.512 2.95589 1
0 6 4 990.826 9.83744 -2
0 -6 4 990.826 9.83744 1
1 6 4 548.351 5.41454 -2
1 -6 4 548.351 5.41454 1
2 6 4 285.288 3.60557 -2
2 -6 4 285.288 3.60557 1
3 6 4 524.711 6.14094 -2
3 -6 4 524.711 6.14094 1
4 -6 4 71.6954 1.30088 1
5 -6 4 69.492 1.43824 1
6 6 4 351.113 11.8962 -2
6 -6 4 351.113 11.8962 1
7 -6 4 42.5363 1.15275 1
8 7 4 64.8505 7.5019 -2
8 -6 4 64.8505 7.5019 1
-7 5 4 277.867 3.29455 -2
-7 -5 4 277.867 3.29455 1
-6 5 4 61.1626 1.31924 -2
-6 -5 4 61.1626 1.31924 1
-5 5 4 557.138 5.8368 -2
-5 -5 4 557.138 5.8368 1
-4 5 4 31.2172 1.30543 -2
-4 -5 4 31.2172 1.30543 1
-3 5 4 265.12 3.07124 -2
-3 -5 4 265.12 3.07124 1
-2 5 4 1217.46 10.1054 -2
-2 -5 4 1217.46 10.1054 1
-1 5 4 54.6514 1.2772 -2
-1 -5 4 54.6514 1.2772 1
0 5 4 825.014 8.4561 -2
0 -5 4 825.014 8.4561 1
1 5 4 2970.45 27.5637 -2
1 -5 4 2970.45 27.5637 1
2 5 4 1315.58 16.1812 -2
2 -5 4 1315.58 16.1812 1
3 5 4 689.381 7.67855 -2
3 -5 4 689.381 7.67855 1
4 -5 4 1613.94 14.1584 1
5 -5 4 399.501 3.88432 1
6 -5 4 53.1429 1.13031 1
7 -5 4 525.768 4.8717 1
8 -5 4 413.623 4.1062 1
9 6 4 119.17 8.74532 -2
9 -5 4 119.17 8.74532 1
-7 4 4 59.5572 1.29407 -2
-7 -4 4 59.5572 1.29407 1
-6 4 4 15.365 1.19707 -2
-6 -4 4 15.365 1.19707 1
-5 4 4 27.6066 1.55559 -2
-5 -4 4 27.6066 1.55559 1
-4 4 4 133.72 2.09032 -2
-4 -4 4 133.72 2.09032 1
-3 4 4 57.6847 1.10067 -2
-3 -4 4 57.6847 1.10067 1
-2 4 4 6.58779 0.80986 -2
-2 -4 4 6.58779 0.80986 1
-1 4 4 224.14 2.51211 -2
-1 -4 4 224.14 2.51211 1
0 4 4 270.795 3.61675 -2
0 -4 4 270.795 3.61675 1
1 4 4 93.6088 1.61332 -2
1 -4 4 93.6088 1.61332 1
2 4 4 227.405 3.44499 -2
2 -4 4 227.405 3.44499 1
3 4 4 112.532 3.17789 -2
3 -4 4 112.532 3.17789 1
4 -4 4 12.8353 0.56405 1
5 -4 4 3.98774 0.34735 1
6 -4 4 0.00102 0.35406 1
7 -4 4 1.54915 0.45942 1
8 -4 4 0.91898 0.50806 1
9 5 4 24.5631 4.67671 -2
9 -4 4 24.5631 4.67671 1
-7 3 4 75.8953 1.51079 -2
-7 -3 4 75.8953 1.51079 1
-6 3 4 334.633 4.55944 -2
-6 -3 4 334.633 4.55944 1
-5 3 4 393.505 4.65904 -2
-5 -3 4 393.505 4.65904 1
-4 3 4 18.942 1.04962 -2
-4 -3 4 18.942 1.04962 1
-3 3 4 136.229 1.6748 -2
-3 -3 4 136.229 1.6748 1
-2 3 4 3616.01 33.402 -2
-2 -3 4 3616.01 33.402 1
-1 3 4 475.298 6.43799 -2
-1 -3 4 475.298 6.43799 1
0 3 4 1763.11 22.2234 -2
0 -3 4 1763.11 22.2234 1
1 3 4 4340.48 60.431 -2
1 -3 4 4340.48 60.431 1
2 3 4 1030.56 15.0495 -2
2 -3 4 1030.56 15.0495 1
3 3 4 448.399 8.05 -2
3 -3 4 448.399 8.05 1
4 3 4 4128.18 85.8415 -2
4 -3 4 4128.18 85.8415 1
5 -3 4 1071.45 8.79047 1
6 -3 4 9.84085 0.4365 1
7 -3 4 546.574 5.14835 1
8 -3 4 680.452 6.07155 1
9 4 4 1.16643 6.22933 -2
9 -3 4 1.16643 6.22933 1
10 -3 4 116.555 6.08658 1
-8 2 4 -0.0101 2.05166 -2
-8 -2 4 -0.0101 2.05166 1
-7 2 4 355.579 4.09425 -2
-7 -2 4 355.579 4.09425 1
-6 2 4 1170.96 11.5184 -2
-6 -2 4 1170.96 11.5184 1
-5 2 4 11.405 1.49665 -2
-5 -2 4 11.405 1.49665 1
-4 2 4 134.151 1.80698 -2
-4 -2 4 134.151 1.80698 1
-3 2 4 2511.07 22.798 -2
-3 -2 4 2511.07 22.798 1
-2 2 4 2128.16 19.9938 -2
-2 -2 4 2128.16 19.9938 1
-1 2 4 1254.46 18.2172 -2
-1 -2 4 1254.46 18.2172 1
0 2 4 2787.72 52.6682 -2
0 -2 4 2787.72 52.6682 1
1 2 4 648.445 17.7332 -2
1 -2 4 648.445 17.7332 1
2 2 4 104.183 3.72566 -2
2 -2 4 104.183 3.72566 1
3 2 4 778.207 17.838 -2
3 -2 4 778.207 17.838 1
4 2 4 64.9717 12.7574 -2
4 -2 4 64.9717 12.7574 1
5 -2 4 77.4871 0.94578 1
6 2 4 49.1328 3.72936 -2
6 -2 4 49.1328 3.72936 1
7 -2 4 2.05697 0.35747 1
8 3 4 886.033 25.3902 -2
8 -2 4 886.033 25.3902 1
9 -2 4 47.1565 1.1672 1
10 3 4 126.999 8.14421 -2
10 -2 4 126.999 8.14421 1
-8 1 4 2.38034 1.70353 -2
-8 -1 4 2.38034 1.70353 1
-7 1 4 58.4514 1.41232 -2
-7 -1 4 58.4514 1.41232 1
-6 1 4 -1.43 0.98863 -2
-6 -1 4 -1.43 0.98863 1
-5 1 4 186.118 3.05141 -2
-5 -1 4 186.118 3.05141 1
-4 1 4 223.333 2.70482 -2
-4 -1 4 223.333 2.70482 1
-3 1 4 196.867 2.13529 -2
-3 -1 4 196.867 2.13529 1
-2 1 4 585.642 6.62511 -2
-2 -1 4 585.642 6.62511 1
-1 1 4 156.822 2.96704 -2
-1 -1 4 156.822 2.96704 1
0 1 4 40.38 2.01285 -2
0 -1 4 40.38 2.01285 1
1 1 4 1307.51 35.407 -2
1 -1 4 1307.51 35.407 1
2 1 4 13.2485 1.42042 -2
2 -1 4 13.2485 1.42042 1
3 1 4 220.131 4.21501 -2
3 -1 4 220.131 4.21501 1
4 1 4 582.192 24.9717 -2
4 -1 4 582.192 24.9717 1
5 1 4 554.799 15.6231 -2
5 -1 4 554.799 15.6231 1
6 -1 4 9.99434 0.41327 1
7 -1 4 13.7609 0.52727 1
8 -1 4 36.8581 1.25295 1
9 -1 4 5.57657 0.70987 1
10 2 4 -25.444 43.3884 -2
10 -1 4 -25.444 43.3884 1
-8 0 4 79.5709 2.48487 -2
-8 0 4 79.5709 2.48487 1
-7 0 4 1173 9.87086 -2
-7 0 4 1173 9.87086 1
-6 0 4 2569.62 26.3903 -2
-6 0 4 2569.62 26.3903 1
-5 0 4 47.0287 1.31407 -2
-5 0 4 47.0287 1.31407 1
-4 0 4 2036.31 17.3625 -2
-4 0 4 2036.31 17.3625 1
-3 0 4 4334.63 37.7944 -2
-3 0 4 4334.63 37.7944 1
-2 0 4 294.484 3.95155 -2
-2 0 4 294.484 3.95155 1
-1 0 4 1115.86 10.2908 1
0 0 4 2786.45 64.86 1
1 0 4 689.959 6.34836 1
2 0 4 232.253 6.8508 -2
2 0 4 232.253 6.8508 1
3 0 4 885.083 7.89024 1
4 0 4 1471.9 51.0446 -2
4 0 4 1471.9 51.0446 1
5 0 4 395.513 11.3245 -2
5 0 4 395.513 11.3245 1
6 0 4 349.71 3.10628 1
7 0 4 67.0028 1.11553 1
8 0 4 210.061 2.48668 1
9 0 4 301.514 4.05556 1
10 1 4 86.0707 5.71327 -2
10 0 4 86.0707 5.71327 1
-8 -1 4 10.4654 1.57779 -2
-8 1 4 10.4654 1.57779 1
-7 -1 4 55.8218 1.32326 -2
-7 1 4 55.8218 1.32326 1
-6 -1 4 3.37492 1.18558 -2
-6 1 4 3.37492 1.18558 1
-5 -1 4 190.108 3.23247 -2
-5 1 4 190.108 3.23247 1
-4 -1 4 243.818 2.57811 -2
-4 1 4 243.818 2.57811 1
-3 -1 4 200.904 2.18419 -2
-3 1 4 200.904 2.18419 1
-2 -1 4 595.231 7.3887 -2
-2 1 4 595.231 7.3887 1
-1 1 4 126.647 1.39306 1
0 1 4 14.6606 0.41212 1
1 1 4 856.101 7.44651 1
2 1 4 7.95312 0.75718 1
3 1 4 192.116 2.74392 1
4 1 4 409.942 5.19603 1
5 -1 4 611.028 17.1103 -2
5 1 4 611.028 17.1103 1
6 1 4 15.0926 0.54221 1
7 1 4 180.901 1.99701 1
8 1 4 157.409 1.92291 1
9 0 4 277.786 9.20508 -2
9 1 4 277.786 9.20508 1
10 0 4 66.1711 4.14629 -2
10 1 4 66.1711 4.14629 1
-8 -2 4 -1.5845 1.47749 -2
-8 2 4 -1.5845 1.47749 1
-7 -2 4 352.786 3.7899 -2
-7 2 4 352.786 3.7899 1
-6 -2 4 1193.42 11.053 -2
-6 2 4 1193.42 11.053 1
-5 -2 4 18.943 1.34681 -2
-5 2 4 18.943 1.34681 1
-4 -2 4 136.997 1.66325 -2
-4 2 4 136.997 1.66325 1
-3 -2 4 2524.04 20.0187 -2
-3 2 4 2524.04 20.0187 1
-2 -2 4 2162.61 20.1127 -2
-2 2 4 2162.61 20.1127 1
-1 -2 4 1238.48 33.51 -2
-1 2 4 1238.48 33.51 1
0 2 4 928.707 7.61416 1
1 2 4 382.038 3.34498 1
2 2 4 20.4308 0.74673 1
3 2 4 412.112 5.56189 1
4 2 4 2.26906 0.39989 1
5 2 4 87.2733 1.21722 1
6 2 4 1.15011 0.30792 1
7 2 4 -0.4243 0.34955 1
8 2 4 59.6147 1.11233 1
9 2 4 4.3199 0.62006 1
10 -1 4 82.0512 29.23 -2
10 2 4 82.0512 29.23 1
-7 -3 4 76.0993 1.61511 -2
-7 3 4 76.0993 1.61511 1
-6 -3 4 338.165 3.39362 -2
-6 3 4 338.165 3.39362 1
-5 -3 4 414.838 5.21333 -2
-5 3 4 414.838 5.21333 1
-4 -3 4 11.2094 0.98937 -2
-4 3 4 11.2094 0.98937 1
-3 -3 4 139.143 1.74982 -2
-3 3 4 139.143 1.74982 1
-2 -3 4 3747.91 41.2784 -2
-2 3 4 3747.91 41.2784 1
-1 -3 4 471.251 11.9883 -2
-1 3 4 471.251 11.9883 1
0 -3 4 1754.24 47.5061 -2
0 3 4 1754.24 47.5061 1
1 -3 4 4472.84 160.536 -2
1 3 4 4472.84 160.536 1
2 -3 4 1110.11 39.7928 -2
2 3 4 1110.11 39.7928 1
3 -3 4 471.372 15.3332 -2
3 3 4 471.372 15.3332 1
4 3 4 2080.42 29.3703 1
5 3 4 1466.2 15.5155 1
6 3 4 -0.4566 0.37999 1
7 3 4 731.764 7.25884 1
8 3 4 896.799 8.94099 1
9 3 4 17.1326 0.85554 1
10 -2 4 125.318 7.40141 -2
10 3 4 125.318 7.40141 1
-7 -4 4 53.1458 1.5093 -2
-7 4 4 53.1458 1.5093 1
-6 -4 4 28.294 1.03924 -2
-6 4 4 28.294 1.03924 1
-5 -4 4 24.1258 1.29166 -2
-5 4 4 24.1258 1.29166 1
-4 -4 4 128.973 2.20574 -2
-4 4 4 128.973 2.20574 1
-3 -4 4 46.4651 1.15763 -2
-3 4 4 46.4651 1.15763 1
-2 -4 4 4.01252 0.79778 -2
-2 4 4 4.01252 0.79778 1
-1 -4 4 239.767 3.10033 -2
-1 4 4 239.767 3.10033 1
0 -4 4 271.926 4.10678 -2
0 4 4 271.926 4.10678 1
1 -4 4 88.4115 1.91101 -2
1 4 4 88.4115 1.91101 1
2 -4 4 223.533 4.33745 -2
2 4 4 223.533 4.33745 1
3 -4 4 106.121 4.07275 -2
3 4 4 106.121 4.07275 1
4 -4 4 71.8333 7.34233 -2
4 4 4 71.8333 7.34233 1
5 -4 4 55.5654 8.12155 -2
5 4 4 55.5654 8.12155 1
6 4 4 74.2652 1.3394 1
7 4 4 1.68347 0.53669 1
8 4 4 8.60303 0.64726 1
9 4 4 15.333 0.88465 1
-7 -5 4 267.175 3.24433 -2
-7 5 4 267.175 3.24433 1
-6 -5 4 64.1257 1.56309 -2
-6 5 4 64.1257 1.56309 1
-5 -5 4 570.595 7.70911 -2
-5 5 4 570.595 7.70911 1
-4 -5 4 23.1511 1.75803 -2
-4 5 4 23.1511 1.75803 1
-3 -5 4 256.55 2.88324 -2
-3 5 4 256.55 2.88324 1
-2 -5 4 1249.95 10.5256 -2
-2 5 4 1249.95 10.5256 1
-1 -5 4 58.7098 1.21997 -2
-1 5 4 58.7098 1.21997 1
0 -5 4 812.825 7.05213 -2
0 5 4 812.825 7.05213 1
1 -5 4 3172.72 30.8104 -2
1 5 4 3172.72 30.8104 1
2 -5 4 1394.94 18.98 -2
2 5 4 1394.94 18.98 1
3 -5 4 711.471 11.6846 -2
3 5 4 711.471 11.6846 1
4 -5 4 2873.19 70.3784 -2
4 5 4 2873.19 70.3784 1
5 5 4 481.65 5.60821 1
6 5 4 24.0436 0.8471 1
7 5 4 375.319 5.30489 1
8 5 4 317.7 4.04893 1
9 -4 4 55.0736 33.3067 -2
9 5 4 55.0736 33.3067 1
-6 -6 4 699.569 7.89169 -2
-6 6 4 699.569 7.89169 1
-5 -6 4 -1.7047 1.33163 -2
-5 6 4 -1.7047 1.33163 1
-4 -6 4 583.792 7.72011 -2
-4 6 4 583.792 7.72011 1
-3 -6 4 1003.53 11.0144 -2
-3 6 4 1003.53 11.0144 1
-2 -6 4 60.262 1.53227 -2
-2 6 4 60.262 1.53227 1
-1 -6 4 309.05 3.05883 -2
-1 6 4 309.05 3.05883 1
0 -6 4 996.427 10.1085 -2
0 6 4 996.427 10.1085 1
1 -6 4 567.147 5.34999 -2
1 6 4 567.147 5.34999 1
2 -6 4 304.655 3.26804 -2
2 6 4 304.655 3.26804 1
3 -6 4 513.615 7.14667 -2
3 6 4 513.615 7.14667 1
4 -6 4 162.239 16.9684 -2
4 6 4 162.239 16.9684 1
5 6 4 49.2532 1.09285 1
6 6 4 245.198 3.61758 1
7 6 4 16.2123 0.95782 1
8 -5 4 435.842 31.9145 -2
8 6 4 435.842 31.9145 1
9 -5 4 203.072 36.3886 -2
9 6 4 203.072 36.3886 1
-6 -7 4 18.5142 1.66206 -2
-6 7 4 18.5142 1.66206 1
-5 -7 4 1.76247 1.61856 -2
-5 7 4 1.76247 1.61856 1
-4 -7 4 11.7157 1.31862 -2
-4 7 4 11.7157 1.31862 1
-3 -7 4 9.20182 1.82636 -2
-3 7 4 9.20182 1.82636 1
-2 -7 4 43.5934 1.47001 -2
-2 7 4 43.5934 1.47001 1
-1 -7 4 10.3442 1.16429 -2
-1 7 4 10.3442 1.16429 1
0 -7 4 205.54 2.45093 -2
0 7 4 205.54 2.45093 1
1 -7 4 69.9512 1.20843 -2
1 7 4 69.9512 1.20843 1
2 -7 4 5.86788 0.96101 -2
2 7 4 5.86788 0.96101 1
3 -7 4 11.3679 1.30943 -2
3 7 4 11.3679 1.30943 1
4 7 4 52.1343 0.87406 1
5 -7 4 87.2759 22.7384 -2
5 7 4 87.2759 22.7384 1
6 -7 4 34.1305 3.53972 -2
6 7 4 34.1305 3.53972 1
7 7 4 0.28544 0.58295 1
8 -6 4 123.655 30.3049 -2
8 7 4 123.655 30.3049 1
-5 -8 4 31.5102 1.58663 -2
-5 8 4 31.5102 1.58663 1
-4 -8 4 546.073 5.90535 -2
-4 8 4 546.073 5.90535 1
-3 -8 4 1563.56 15.5943 -2
-3 8 4 1563.56 15.5943 1
-2 -8 4 353.819 4.35681 -2
-2 8 4 353.819 4.35681 1
-1 -8 4 430.07 5.91555 -2
-1 8 4 430.07 5.91555 1
0 -8 4 1345.81 15.4018 -2
0 8 4 1345.81 15.4018 1
1 -8 4 199.775 2.48385 -2
1 8 4 199.775 2.48385 1
2 -8 4 222.647 3.60283 -2
2 8 4 222.647 3.60283 1
3 -8 4 515.246 7.00291 -2
3 8 4 515.246 7.00291 1
4 -8 4 205.53 20.9326 -2
4 8 4 205.53 20.9326 1
5 -8 4 251.049 30.4227 -2
5 8 4 251.049 30.4227 1
6 8 4 118.818 1.90228 1
7 8 4 1.15991 1.01642 1
8 -7 4 151.736 35.4686 -2
8 8 4 151.736 35.4686 1
-4 -9 4 112.65 2.10165 -2
-4 9 4 112.65 2.10165 1
-3 -9 4 36.7799 1.8132 -2
-3 9 4 36.7799 1.8132 1
-2 -9 4 232.488 3.62466 -2
-2 9 4 232.488 3.62466 1
-1 -9 4 119.246 2.08152 -2
-1 9 4 119.246 2.08152 1
0 -9 4 27.3472 1.56435 -2
0 9 4 27.3472 1.56435 1
1 -9 4 387.026 4.49502 -2
1 9 4 387.026 4.49502 1
2 -9 4 58.0744 1.80598 -2
2 9 4 58.0744 1.80598 1
3 -9 4 6.16415 1.55364 -2
3 9 4 6.16415 1.55364 1
4 -9 4 54.4892 5.04813 -2
4 9 4 54.4892 5.04813 1
5 -9 4 111.411 36.8288 -2
5 9 4 111.411 36.8288 1
6 -9 4 71.2156 38.9925 -2
6 9 4 71.2156 38.9925 1
7 9 4 34.6316 1.39089 1
-3 -10 4 231.908 4.40293 -2
-3 10 4 231.908 4.40293 1
-2 -10 4 125.353 2.63651 -2
-2 10 4 125.353 2.63651 1
-1 -10 4 29.2769 2.2785 -2
-1 10 4 29.2769 2.2785 1
0 -10 4 114.204 2.13272 -2
0 10 4 114.204 2.13272 1
1 -10 4 199.422 2.69382 -2
1 10 4 199.422 2.69382 1
2 -10 4 25.6507 1.9408 -2
2 10 4 25.6507 1.9408 1
3 -10 4 75.7491 2.10079 -2
3 10 4 75.7491 2.10079 1
4 -10 4 21.8367 26.5703 -2
4 10 4 21.8367 26.5703 1
5 -10 4 12.0488 45.6301 -2
5 10 4 12.0488 45.6301 1
6 10 4 6.76886 0.74911 1
-2 -11 4 318.011 5.99055 -2
-2 11 4 318.011 5.99055 1
-1 -11 4 71.7464 2.94056 -2
-1 11 4 71.7464 2.94056 1
0 -11 4 80.3677 1.93502 -2
0 11 4 80.3677 1.93502 1
1 -11 4 654.167 6.10482 -2
1 11 4 654.167 6.10482 1
2 -11 4 295.203 4.08104 -2
2 11 4 295.203 4.08104 1
3 -11 4 61.5237 2.48614 -2
3 11 4 61.5237 2.48614 1
4 11 4 323.278 3.39952 1
0 11 5 28.2072 2.45765 -2
0 -11 5 28.2072 2.45765 1
1 11 5 50.7729 2.62081 -2
1 -11 5 50.7729 2.62081 1
2 11 5 26.6447 3.49616 -2
2 -11 5 26.6447 3.49616 1
3 11 5 36.1622 6.63527 -2
3 -11 5 36.1622 6.63527 1
-2 10 5 74.5575 2.33685 -2
-2 -10 5 74.5575 2.33685 1
-1 10 5 198.407 3.17526 -2
-1 -10 5 198.407 3.17526 1
0 10 5 57.7663 1.94937 -2
0 -10 5 57.7663 1.94937 1
1 10 5 126.639 2.80267 -2
1 -10 5 126.639 2.80267 1
2 10 5 452.182 7.56237 -2
2 -10 5 452.182 7.56237 1
3 10 5 117.134 7.4618 -2
3 -10 5 117.134 7.4618 1
4 -10 5 48.4542 1.51405 1
5 -10 5 100.816 2.00411 1
-4 9 5 98.8791 2.69713 -2
-4 -9 5 98.8791 2.69713 1
-3 9 5 675.525 6.50586 -2
-3 -9 5 675.525 6.50586 1
-2 9 5 650.896 8.01791 -2
-2 -9 5 650.896 8.01791 1
-1 9 5 24.2226 1.66452 -2
-1 -9 5 24.2226 1.66452 1
0 9 5 676.145 7.78227 -2
0 -9 5 676.145 7.78227 1
1 9 5 708.468 7.51361 -2
1 -9 5 708.468 7.51361 1
2 9 5 78.3978 2.35415 -2
2 -9 5 78.3978 2.35415 1
3 9 5 320.706 7.92206 -2
3 -9 5 320.706 7.92206 1
4 9 5 586.436 18.6396 -2
4 -9 5 586.436 18.6396 1
5 -9 5 35.9327 1.31565 1
6 -9 5 29.6875 1.11718 1
-5 8 5 37.959 2.40848 -2
-5 -8 5 37.959 2.40848 1
-4 8 5 57.8148 1.86302 -2
-4 -8 5 57.8148 1.86302 1
-3 8 5 22.9421 1.62031 -2
-3 -8 5 22.9421 1.62031 1
-2 8 5 186.336 3.26755 -2
-2 -8 5 186.336 3.26755 1
-1 8 5 82.6593 2.80375 -2
-1 -8 5 82.6593 2.80375 1
0 8 5 67.9407 1.95704 -2
0 -8 5 67.9407 1.95704 1
1 8 5 75.3518 2.25909 -2
1 -8 5 75.3518 2.25909 1
2 8 5 203.754 4.50918 -2
2 -8 5 203.754 4.50918 1
3 8 5 -46.464 45.2148 -2
3 -8 5 -46.464 45.2148 1
4 8 5 6.52948 4.06086 -2
4 -8 5 6.52948 4.06086 1
5 -8 5 2.47399 0.53536 1
6 -8 5 19.4297 0.77886 1
7 -8 5 7.89796 0.76498 1
-5 7 5 279.234 3.42831 -2
-5 -7 5 279.234 3.42831 1
-4 7 5 94.1427 1.84934 -2
-4 -7 5 94.1427 1.84934 1
-3 7 5 1323.65 14.6556 -2
-3 -7 5 1323.65 14.6556 1
-2 7 5 1135.46 12.6027 -2
-2 -7 5 1135.46 12.6027 1
-1 7 5 13.6228 1.84089 -2
-1 -7 5 13.6228 1.84089 1
0 7 5 1007.01 15.2455 -2
0 -7 5 1007.01 15.2455 1
1 7 5 1594.25 27.2706 -2
1 -7 5 1594.25 27.2706 1
2 -7 5 2.68445 0.52458 1
3 -7 5 186.596 2.17407 1
4 -7 5 669.275 7.0416 1
5 -7 5 65.9912 1.36897 1
6 -7 5 167.287 2.11498 1
7 8 5 221.488 9.96817 -2
7 -7 5 221.488 9.96817 1
8 -7 5 7.91723 0.80553 1
-6 6 5 263.02 3.97396 -2
-6 -6 5 263.02 3.97396 1
-5 6 5 -0.0951 1.44316 -2
-5 -6 5 -0.0951 1.44316 1
-4 6 5 248.196 3.86214 -2
-4 -6 5 248.196 3.86214 1
-3 6 5 26.1192 1.81387 -2
-3 -6 5 26.1192 1.81387 1
-2 6 5 71.1569 2.74481 -2
-2 -6 5 71.1569 2.74481 1
-1 6 5 219.727 3.18271 -2
-1 -6 5 219.727 3.18271 1
0 6 5 40.9211 1.61713 -2
0 -6 5 40.9211 1.61713 1
1 6 5 558.546 6.52819 -2
1 -6 5 558.546 6.52819 1
2 6 5 252.471 5.71718 -2
2 -6 5 252.471 5.71718 1
3 -6 5 1.13629 0.36839 1
4 -6 5 58.9213 1.17271 1
5 -6 5 333.92 3.15845 1
6 -6 5 2.2682 0.54283 1
7 -6 5 172.807 2.20635 1
8 -6 5 278.452 3.03462 1
-6 5 5 475.535 4.57492 -2
-6 -5 5 475.535 4.57492 1
-5 5 5 52.0731 1.67674 -2
-5 -5 5 52.0731 1.67674 1
-4 5 5 46.5062 2.07943 -2
-4 -5 5 46.5062 2.07943 1
-3 5 5 328.345 5.31421 -2
-3 -5 5 328.345 5.31421 1
-2 5 5 277.079 3.73815 -2
-2 -5 5 277.079 3.73815 1
-1 5 5 141.919 2.3065 -2
-1 -5 5 141.919 2.3065 1
0 5 5 713.411 11.1403 -2
0 -5 5 713.411 11.1403 1
1 5 5 876.625 14.0607 -2
1 -5 5 876.625 14.0607 1
2 5 5 40.1653 18.0626 -2
2 -5 5 40.1653 18.0626 1
3 -5 5 174.277 1.83037 1
4 -5 5 33.7432 0.72412 1
5 -5 5 11.8791 0.49276 1
6 -5 5 9.77593 0.63077 1
7 -5 5 22.2294 0.83926 1
8 6 5 169.03 8.26414 -2
8 -5 5 169.03 8.26414 1
9 6 5 76.7765 7.23551 -2
9 -5 5 76.7765 7.23551 1
-7 4 5 532.492 6.33012 -2
-7 -4 5 532.492 6.33012 1
-6 4 5 447.168 5.13865 -2
-6 -4 5 447.168 5.13865 1
-5 4 5 285.904 4.13722 -2
-5 -4 5 285.904 4.13722 1
-4 4 5 345.757 4.28698 -2
-4 -4 5 345.757 4.28698 1
-3 4 5 314.489 4.10254 -2
-3 -4 5 314.489 4.10254 1
-2 4 5 81.8234 1.53385 -2
-2 -4 5 81.8234 1.53385 1
-1 4 5 764.448 11.3471 -2
-1 -4 5 764.448 11.3471 1
0 4 5 143.525 3.61151 -2
0 -4 5 143.525 3.61151 1
1 4 5 400.277 10.6017 -2
1 -4 5 400.277 10.6017 1
2 4 5 1542.39 34.095 -2
2 -4 5 1542.39 34.095 1
3 -4 5 13.4547 0.45221 1
4 -4 5 585.472 5.34795 1
5 -4 5 836.847 7.47626 1
6 -4 5 8.2366 0.44696 1
7 5 5 321.734 10.7834 -2
7 -4 5 321.734 10.7834 1
8 5 5 585.445 17.7205 -2
8 -4 5 585.445 17.7205 1
9 5 5 83.404 3.76557 -2
9 -4 5 83.404 3.76557 1
-7 3 5 4.69746 1.69847 -2
-7 -3 5 4.69746 1.69847 1
-6 3 5 234.558 3.3011 -2
-6 -3 5 234.558 3.3011 1
-5 3 5 86.5159 2.02158 -2
-5 -3 5 86.5159 2.02158 1
-4 3 5 339.725 5.53364 -2
-4 -3 5 339.725 5.53364 1
-3 3 5 449.292 4.48242 -2
-3 -3 5 449.292 4.48242 1
-2 3 5 502.382 6.22217 -2
-2 -3 5 502.382 6.22217 1
-1 3 5 20.2019 1.79304 -2
-1 -3 5 20.2019 1.79304 1
0 3 5 658.54 12.9115 -2
0 -3 5 658.54 12.9115 1
1 3 5 369.005 10.9101 -2
1 -3 5 369.005 10.9101 1
2 3 5 77.0562 2.789 -2
2 -3 5 77.0562 2.789 1
3 -3 5 335.849 3.62374 1
4 -3 5 322.183 3.081 1
5 -3 5 16.7764 0.58321 1
6 -3 5 14.5756 0.51161 1
7 -3 5 100.983 1.3761 1
8 -3 5 43.518 0.96308 1
9 4 5 111.23 5.32016 -2
9 -3 5 111.23 5.32016 1
-7 2 5 230.324 2.84374 -2
-7 -2 5 230.324 2.84374 1
-6 2 5 54.6652 1.95785 -2
-6 -2 5 54.6652 1.95785 1
-5 2 5 177.781 3.75756 -2
-5 -2 5 177.781 3.75756 1
-4 2 5 443.628 5.14138 -2
-4 -2 5 443.628 5.14138 1
-3 2 5 187.953 2.27406 -2
-3 -2 5 187.953 2.27406 1
-2 2 5 289.61 5.09069 -2
-2 -2 5 289.61 5.09069 1
-1 2 5 1115.42 17.5781 -2
-1 -2 5 1115.42 17.5781 1
0 2 5 110.101 3.9968 -2
0 -2 5 110.101 3.9968 1
1 -2 5 796.364 6.63176 1
2 -2 5 288.811 2.66342 1
3 -2 5 31.6745 0.59233 1
4 -2 5 195.23 1.98325 1
5 -2 5 754.586 6.34716 1
6 -2 5 4.44189 0.30558 1
7 -2 5 77.9421 1.2149 1
8 3 5 221.025 31.8453 -2
8 -2 5 221.025 31.8453 1
9 3 5 90.2028 5.80458 -2
9 -2 5 90.2028 5.80458 1
10 3 5 25.0925 3.65958 -2
10 -2 5 25.0925 3.65958 1
-7 1 5 213.922 2.70855 -2
-7 -1 5 213.922 2.70855 1
-6 1 5 1416.24 13.6775 -2
-6 -1 5 1416.24 13.6775 1
-5 1 5 726.614 8.40328 -2
-5 -1 5 726.614 8.40328 1
-4 1 5 345.789 5.59292 -2
-4 -1 5 345.789 5.59292 1
-3 1 5 2453.02 24.1336 -2
-3 -1 5 2453.02 24.1336 1
-2 1 5 3001.54 49.916 -2
-2 -1 5 3001.54 49.916 1
-1 1 5 8.33583 1.87955 -2
-1 -1 5 8.33583 1.87955 1
0 1 5 5129.7 136.492 -2
0 -1 5 5129.7 136.492 1
1 -1 5 3318.92 57.712 1
2 -1 5 31.9941 0.48586 1
3 -1 5 422.231 3.75524 1
4 -1 5 1746.16 16.4237 1
5 -1 5 234.218 2.59943 1
6 -1 5 300.756 2.78031 1
7 -1 5 271.228 2.74602 1
8 2 5 700.732 41.332 -2
8 -1 5 700.732 41.332 1
9 2 5 255.896 6.31534 -2
9 -1 5 255.896 6.31534 1
10 2 5 98.3759 4.14614 -2
10 -1 5 98.3759 4.14614 1
-7 0 5 -2.7696 1.19455 -2
-7 0 5 -2.7696 1.19455 1
-6 0 5 17.66 1.26882 -2
-6 0 5 17.66 1.26882 1
-5 0 5 -1.1949 1.39891 -2
-5 0 5 -1.1949 1.39891 1
-4 0 5 9.24916 1.28787 -2
-4 0 5 9.24916 1.28787 1
-3 0 5 0.41099 1.71172 -2
-3 0 5 0.41099 1.71172 1
-2 0 5 -11.117 18.0374 -2
-2 0 5 -11.117 18.0374 1
-1 0 5 7.50893 1.81792 -2
-1 0 5 7.50893 1.81792 1
0 0 5 26.0719 1.89708 -2
0 0 5 26.0719 1.89708 1
1 0 5 7.8597 1.30989 -2
1 0 5 7.8597 1.30989 1
2 0 5 4.26061 0.24126 1
3 0 5 1.29886 0.16675 1
4 0 5 5.13751 0.27866 1
5 0 5 34.4629 0.62983 1
6 0 5 33.568 0.61382 1
7 0 5 11.57 0.46148 1
8 1 5 62.2341 24.5006 -2
8 0 5 62.2341 24.5006 1
9 1 5 44.4145 4.21029 -2
9 0 5 44.4145 4.21029 1
10 1 5 1.32098 2.3231 -2
10 0 5 1.32098 2.3231 1
-7 -1 5 224.282 2.78189 -2
-7 1 5 224.282 2.78189 1
-6 -1 5 1430.59 12.8771 -2
-6 1 5 1430.59 12.8771 1
-5 -1 5 734.578 9.37858 -2
-5 1 5 734.578 9.37858 1
-4 -1 5 345.466 4.52199 -2
-4 1 5 345.466 4.52199 1
-3 -1 5 2426.36 20.048 -2
-3 1 5 2426.36 20.048 1
-2 -1 5 3020.05 40.5845 -2
-2 1 5 3020.05 40.5845 1
-1 1 5 1.2809 0.2787 1
0 1 5 2365.09 20.9964 1
1 1 5 2846.23 37.1132 1
2 1 5 107.898 1.30454 1
3 1 5 409.587 7.38276 1
4 1 5 1125.83 14.8888 1
5 1 5 124.177 1.83301 1
6 1 5 26.5914 0.85614 1
7 1 5 115.655 1.58623 1
8 0 5 156.717 23.0785 -2
8 1 5 156.717 23.0785 1
9 1 5 47.9416 1.22871 1
10 0 5 9.15902 2.02558 -2
10 1 5 9.15902 2.02558 1
-7 -2 5 215.407 3.19081 -2
-7 2 5 215.407 3.19081 1
-6 -2 5 68.8427 1.7519 -2
-6 2 5 68.8427 1.7519 1
-5 -2 5 189.406 2.89736 -2
-5 2 5 189.406 2.89736 1
-4 -2 5 447.218 5.71724 -2
-4 2 5 447.218 5.71724 1
-3 -2 5 193.582 2.24204 -2
-3 2 5 193.582 2.24204 1
-2 -2 5 326.442 5.92465 -2
-2 2 5 326.442 5.92465 1
-1 2 5 938.65 7.88092 1
0 -2 5 105.15 3.51188 -2
0 2 5 105.15 3.51188 1
1 2 5 1108.73 9.682 1
2 2 5 1136.61 12.8006 1
3 2 5 55.3476 1.40596 1
4 2 5 657.617 8.7316 1
5 2 5 959.681 13.3851 1
6 2 5 109.031 1.64479 1
7 2 5 142.588 2.19184 1
8 -1 5 821.7 37.6458 -2
8 2 5 821.7 37.6458 1
9 -1 5 271.593 28.3391 -2
9 2 5 271.593 28.3391 1
10 -1 5 113.026 3.57497 -2
10 2 5 113.026 3.57497 1
-7 -3 5 -0.1966 1.47397 -2
-7 3 5 -0.1966 1.47397 1
-6 -3 5 255.656 3.02506 -2
-6 3 5 255.656 3.02506 1
-5 -3 5 94.991 2.0762 -2
-5 3 5 94.991 2.0762 1
-4 -3 5 362.012 4.74703 -2
-4 3 5 362.012 4.74703 1
-3 -3 5 467.889 6.3411 -2
-3 3 5 467.889 6.3411 1
-2 -3 5 502.17 6.59118 -2
-2 3 5 502.17 6.59118 1
-1 -3 5 26.3277 1.6895 -2
-1 3 5 26.3277 1.6895 1
0 -3 5 589.61 16.2586 -2
0 3 5 589.61 16.2586 1
1 -3 5 365.106 14.3664 -2
1 3 5 365.106 14.3664 1
2 3 5 62.5232 0.99694 1
3 3 5 82.116 1.85391 1
4 3 5 281.93 4.1215 1
5 3 5 -0.3359 0.46416 1
6 3 5 9.77573 0.54826 1
7 3 5 2.83982 0.58173 1
8 3 5 2.04847 0.64165 1
9 -2 5 93.5594 23.4721 -2
9 3 5 93.5594 23.4721 1
10 -2 5 25.1696 3.61839 -2
10 3 5 25.1696 3.61839 1
-7 -4 5 509.743 5.89531 -2
-7 4 5 509.743 5.89531 1
-6 -4 5 455.359 5.22916 -2
-6 4 5 455.359 5.22916 1
-5 -4 5 299.485 3.75224 -2
-5 4 5 299.485 3.75224 1
-4 -4 5 328.09 4.15382 -2
-4 4 5 328.09 4.15382 1
-3 -4 5 288.385 3.42373 -2
-3 4 5 288.385 3.42373 1
-2 -4 5 79.3966 2.12032 -2
-2 4 5 79.3966 2.12032 1
-1 -4 5 777.896 14.8921 -2
-1 4 5 777.896 14.8921 1
0 -4 5 113.611 3.82318 -2
0 4 5 113.611 3.82318 1
1 -4 5 406.647 13.1708 -2
1 4 5 406.647 13.1708 1
2 4 5 917.99 8.89625 1
3 -4 5 105.505 6.13732 -2
3 4 5 105.505 6.13732 1
4 4 5 618.388 8.39649 1
5 4 5 1160.56 16.8394 1
6 4 5 44.9371 1.02433 1
7 4 5 364.178 5.19357 1
8 -3 5 601.861 19.6289 -2
8 4 5 601.861 19.6289 1
9 -3 5 131.699 23.5211 -2
9 4 5 131.699 23.5211 1
-6 -5 5 442.006 4.98502 -2
-6 5 5 442.006 4.98502 1
-5 -5 5 53.1236 1.80682 -2
-5 5 5 53.1236 1.80682 1
-4 -5 5 51.1033 1.9574 -2
-4 5 5 51.1033 1.9574 1
-3 -5 5 312.826 4.33541 -2
-3 5 5 312.826 4.33541 1
-2 -5 5 283.551 3.8834 -2
-2 5 5 283.551 3.8834 1
-1 -5 5 144.518 2.50589 -2
-1 5 5 144.518 2.50589 1
0 -5 5 720.104 14.169 -2
0 5 5 720.104 14.169 1
1 -5 5 865.46 17.229 -2
1 5 5 865.46 17.229 1
2 -5 5 0.19702 4.39791 -2
2 5 5 0.19702 4.39791 1
3 5 5 449.08 5.48129 1
4 5 5 231.949 3.40851 1
5 5 5 19.7673 0.89643 1
6 5 5 182.89 2.60194 1
7 5 5 136.171 2.62086 1
8 -4 5 283.681 18.2981 -2
8 5 5 283.681 18.2981 1
9 -4 5 76.0463 21.759 -2
9 5 5 76.0463 21.759 1
-6 -6 5 258.815 3.50594 -2
-6 6 5 258.815 3.50594 1
-5 -6 5 8.77438 1.55563 -2
-5 6 5 8.77438 1.55563 1
-4 -6 5 237.361 3.73357 -2
-4 6 5 237.361 3.73357 1
-3 -6 5 26.1257 1.84335 -2
-3 6 5 26.1257 1.84335 1
-2 -6 5 76.657 1.97993 -2
-2 6 5 76.657 1.97993 1
-1 -6 5 208.151 2.94694 -2
-1 6 5 208.151 2.94694 1
0 -6 5 41.9324 1.3006 -2
0 6 5 41.9324 1.3006 1
1 -6 5 597.046 10.1575 -2
1 6 5 597.046 10.1575 1
2 -6 5 296.685 9.67971 -2
2 6 5 296.685 9.67971 1
3 -6 5 14.756 15.1733 -2
3 6 5 14.756 15.1733 1
4 6 5 274.459 3.37375 1
5 6 5 237.057 3.22257 1
6 6 5 -0.3558 0.45559 1
7 6 5 88.8316 1.78183 1
8 -5 5 193.651 6.91166 -2
8 6 5 193.651 6.91166 1
9 -5 5 53.582 19.1363 -2
9 6 5 53.582 19.1363 1
-5 -7 5 309.43 4.09461 -2
-5 7 5 309.43 4.09461 1
-4 -7 5 94.2056 2.4352 -2
-4 7 5 94.2056 2.4352 1
-3 -7 5 1315.38 14.4029 -2
-3 7 5 1315.38 14.4029 1
-2 -7 5 1198.21 13.2889 -2
-2 7 5 1198.21 13.2889 1
-1 -7 5 21.4621 1.5683 -2
-1 7 5 21.4621 1.5683 1
0 -7 5 989.404 11.9712 -2
0 7 5 989.404 11.9712 1
1 -7 5 1670.3 19.4584 -2
1 7 5 1670.3 19.4584 1
2 -7 5 79.2198 4.19848 -2
2 7 5 79.2198 4.19848 1
3 -7 5 502.819 28.6979 -2
3 7 5 502.819 28.6979 1
4 7 5 341.639 4.31052 1
5 7 5 133.994 2.09327 1
6 7 5 98.1074 1.82113 1
7 7 5 109.151 2.06905 1
8 -6 5 248.951 16.7121 -2
8 7 5 248.951 16.7121 1
-5 -8 5 51.0774 2.45713 -2
-5 8 5 51.0774 2.45713 1
-4 -8 5 79.4118 2.1812 -2
-4 8 5 79.4118 2.1812 1
-3 -8 5 24.2385 1.71273 -2
-3 8 5 24.2385 1.71273 1
-2 -8 5 195.182 3.27165 -2
-2 8 5 195.182 3.27165 1
-1 -8 5 116.394 2.5177 -2
-1 8 5 116.394 2.5177 1
0 -8 5 71.8387 1.8491 -2
0 8 5 71.8387 1.8491 1
1 -8 5 71.4062 1.98171 -2
1 8 5 71.4062 1.98171 1
2 -8 5 235.639 8.50739 -2
2 8 5 235.639 8.50739 1
3 8 5 -0.5447 0.36669 1
4 8 5 1.07716 0.38342 1
5 8 5 3.11987 0.56744 1
6 8 5 22.3057 1.01773 1
7 8 5 9.06885 0.83983 1
8 8 5 3.50854 1.5487 1
-4 -9 5 97.8124 3.01226 -2
-4 9 5 97.8124 3.01226 1
-3 -9 5 672.839 7.61123 -2
-3 9 5 672.839 7.61123 1
-2 -9 5 698.754 7.32312 -2
-2 9 5 698.754 7.32312 1
-1 -9 5 22.5235 1.53972 -2
-1 9 5 22.5235 1.53972 1
0 -9 5 667.909 6.30487 -2
0 9 5 667.909 6.30487 1
1 -9 5 702.118 8.44421 -2
1 9 5 702.118 8.44421 1
2 -9 5 -4.276 14.1115 -2
2 9 5 -4.276 14.1115 1
3 -9 5 307.751 10.8126 -2
3 9 5 307.751 10.8126 1
4 -9 5 591.342 40.4754 -2
4 9 5 591.342 40.4754 1
5 -9 5 92.1745 32.3192 -2
5 9 5 92.1745 32.3192 1
6 9 5 11.9321 0.91828 1
7 9 5 4.40565 0.88557 1
-3 10 5 10.1239 1.00685 1
-2 -10 5 112.042 2.98698 -2
-2 10 5 112.042 2.98698 1
-1 -10 5 207.867 3.20978 -2
-1 10 5 207.867 3.20978 1
0 -10 5 62.1825 1.92532 -2
0 10 5 62.1825 1.92532 1
1 -10 5 131.197 3.59959 -2
1 10 5 131.197 3.59959 1
2 -10 5 452.294 8.41806 -2
2 10 5 452.294 8.41806 1
3 -10 5 85.0483 5.32015 -2
3 10 5 85.0483 5.32015 1
4 -10 5 136.548 43.1228 -2
4 10 5 136.548 43.1228 1
5 10 5 260.103 3.14706 1
6 -9 5 130.638 36.9064 -2
6 10 5 130.638 36.9064 1
-1 11 5 -1.0852 0.80022 1
0 -11 5 13.7482 2.06182 -2
0 11 5 13.7482 2.06182 1
1 -11 5 45.9921 2.55909 -2
1 11 5 45.9921 2.55909 1
2 -11 5 33.2417 3.08167 -2
2 11 5 33.2417 3.08167 1
3 -11 5 36.9339 3.88065 -2
3 11 5 36.9339 3.88065 1
4 11 5 1.8344 0.65657 1
-1 10 6 44.439 2.8071 -2
-1 -10 6 44.439 2.8071 1
0 10 6 78.117 2.8513 -2
0 -10 6 78.117 2.8513 1
1 10 6 230.397 6.15227 -2
1 -10 6 230.397 6.15227 1
2 10 6 134.974 5.68027 -2
2 -10 6 134.974 5.68027 1
3 -10 6 52.6476 1.47954 1
4 -10 6 151.216 2.33088 1
-3 9 6 91.446 2.65612 -2
-3 -9 6 91.446 2.65612 1
-2 9 6 15.4949 2.30909 -2
-2 -9 6 15.4949 2.30909 1
-1 9 6 136.219 3.06538 -2
-1 -9 6 136.219 3.06538 1
0 9 6 174.493 4.0451 -2
0 -9 6 174.493 4.0451 1
1 9 6 42.9762 4.08708 -2
1 -9 6 42.9762 4.08708 1
2 9 6 160.191 4.66076 -2
2 -9 6 160.191 4.66076 1
3 -9 6 25.9284 1.0604 1
4 -9 6 7.68447 0.68417 1
5 -9 6 22.5326 0.96679 1
6 -9 6 14.1015 0.8086 1
-4 8 6 -0.1912 2.34415 -2
-4 -8 6 -0.1912 2.34415 1
-3 8 6 359.836 4.82463 -2
-3 -8 6 359.836 4.82463 1
-2 8 6 926.41 9.93841 -2
-2 -8 6 926.41 9.93841 1
-1 8 6 202.41 3.8368 -2
-1 -8 6 202.41 3.8368 1
0 8 6 474.72 8.20921 -2
0 -8 6 474.72 8.20921 1
1 8 6 1577.18 33.5027 -2
1 -8 6 1577.18 33.5027 1
2 -8 6 49.4411 1.25695 1
3 -8 6 164.41 2.14114 1
4 -8 6 495.392 4.68593 1
5 -8 6 322.953 3.53871 1
6 -8 6 13.4997 0.7255 1
7 -8 6 189.746 2.81019 1
-5 7 6 93.6802 2.94002 -2
-5 -7 6 93.6802 2.94002 1
-4 7 6 -12.175 1.9234 -2
-4 -7 6 -12.175 1.9234 1
-3 7 6 41.1218 1.96237 -2
-3 -7 6 41.1218 1.96237 1
-2 7 6 199.545 3.51903 -2
-2 -7 6 199.545 3.51903 1
-1 7 6 38.979 2.67796 -2
-1 -7 6 38.979 2.67796 1
0 7 6 199.694 5.75747 -2
0 -7 6 199.694 5.75747 1
1 7 6 96.0414 30.5314 -2
1 -7 6 96.0414 30.5314 1
2 -7 6 -0.1158 0.47417 1
3 -7 6 0.78907 0.52769 1
4 -7 6 11.8222 0.69298 1
5 -7 6 2.03036 0.54421 1
6 -7 6 5.38868 0.7294 1
7 8 6 121.115 5.24573 -2
7 -7 6 121.115 5.24573 1
8 -7 6 17.7406 1.06333 1
-5 6 6 458.495 5.87899 -2
-5 -6 6 458.495 5.87899 1
-4 6 6 34.2423 2.0534 -2
-4 -6 6 34.2423 2.0534 1
-3 6 6 274.979 4.16001 -2
-3 -6 6 274.979 4.16001 1
-2 6 6 1138.46 21.2237 -2
-2 -6 6 1138.46 21.2237 1
-1 6 6 81.2869 5.02553 -2
-1 -6 6 81.2869 5.02553 1
0 6 6 235.886 29.8361 -2
0 -6 6 235.886 29.8361 1
1 6 6 1167.36 32.5992 -2
1 -6 6 1167.36 32.5992 1
2 -6 6 233.261 2.53746 1
3 -6 6 75.7647 1.23295 1
4 -6 6 363.114 3.85546 1
5 -6 6 150.509 2.24286 1
6 -6 6 14.9894 0.8097 1
7 7 6 181.47 5.62725 -2
7 -6 6 181.47 5.62725 1
8 7 6 115.539 4.98197 -2
8 -6 6 115.539 4.98197 1
-6 5 6 825.04 8.77655 -2
-6 -5 6 825.04 8.77655 1
-5 5 6 240.78 3.71352 -2
-5 -5 6 240.78 3.71352 1
-4 5 6 540.679 6.38596 -2
-4 -5 6 540.679 6.38596 1
-3 5 6 1100.81 17.2958 -2
-3 -5 6 1100.81 17.2958 1
-2 5 6 77.5763 3.7597 -2
-2 -5 6 77.5763 3.7597 1
-1 5 6 337.239 7.54328 -2
-1 -5 6 337.239 7.54328 1
0 -5 6 405.709 4.16996 1
1 5 6 62.8347 22.0217 -2
1 -5 6 62.8347 22.0217 1
2 5 6 234.855 8.31139 -2
2 -5 6 234.855 8.31139 1
3 -5 6 92.2154 1.18237 1
4 -5 6 11.0304 0.59538 1
5 -5 6 72.9309 1.26222 1
6 6 6 91.0106 5.57038 -2
6 -5 6 91.0106 5.57038 1
7 6 6 287.084 7.20016 -2
7 -5 6 287.084 7.20016 1
8 6 6 262.205 4.0468 -2
8 -5 6 262.205 4.0468 1
9 6 6 129.533 3.07985 -2
9 -5 6 129.533 3.07985 1
-6 4 6 105.127 2.49045 -2
-6 -4 6 105.127 2.49045 1
-5 4 6 27.7198 1.65788 -2
-5 -4 6 27.7198 1.65788 1
-4 4 6 28.1785 1.75695 -2
-4 -4 6 28.1785 1.75695 1
-3 4 6 55.5853 2.71887 -2
-3 -4 6 55.5853 2.71887 1
-2 4 6 1.42113 1.50431 -2
-2 -4 6 1.42113 1.50431 1
-1 4 6 20.593 2.34808 -2
-1 -4 6 20.593 2.34808 1
0 4 6 37.6899 18.9838 -2
0 -4 6 37.6899 18.9838 1
1 -4 6 0.11804 0.28201 1
2 -4 6 1.18399 0.2923 1
3 -4 6 7.86822 0.4601 1
4 -4 6 39.095 0.89995 1
5 -4 6 20.0172 0.75493 1
6 5 6 82.0882 4.75873 -2
6 -4 6 82.0882 4.75873 1
7 5 6 101.374 6.06725 -2
7 -4 6 101.374 6.06725 1
8 5 6 188.221 3.11693 -2
8 -4 6 188.221 3.11693 1
9 5 6 111.006 2.19869 -2
9 -4 6 111.006 2.19869 1
-6 3 6 837.896 8.22909 -2
-6 -3 6 837.896 8.22909 1
-5 3 6 -0.9096 1.83587 -2
-5 -3 6 -0.9096 1.83587 1
-4 3 6 706.755 9.2902 -2
-4 -3 6 706.755 9.2902 1
-3 3 6 1064.42 16.884 -2
-3 -3 6 1064.42 16.884 1
-2 3 6 396.564 8.34296 -2
-2 -3 6 396.564 8.34296 1
-1 3 6 356.526 7.61698 -2
-1 -3 6 356.526 7.61698 1
0 3 6 1340.66 36.7358 -2
0 -3 6 1340.66 36.7358 1
1 3 6 331.462 9.7381 -2
1 -3 6 331.462 9.7381 1
2 -3 6 545.371 4.614 1
3 -3 6 300.447 3.06408 1
4 -3 6 12.8717 0.55842 1
5 -3 6 430.357 3.8855 1
6 -3 6 230.489 2.42924 1
7 4 6 53.3908 24.5889 -2
7 -3 6 53.3908 24.5889 1
8 4 6 169.027 2.91873 -2
8 -3 6 169.027 2.91873 1
9 4 6 173.22 2.72119 -2
9 -3 6 173.22 2.72119 1
-6 2 6 126.765 2.4937 -2
-6 -2 6 126.765 2.4937 1
-5 2 6 528.146 5.82838 -2
-5 -2 6 528.146 5.82838 1
-4 2 6 3.97454 1.67797 -2
-4 -2 6 3.97454 1.67797 1
-3 2 6 472.98 8.42375 -2
-3 -2 6 472.98 8.42375 1
-2 2 6 1237.58 17.0426 -2
-2 -2 6 1237.58 17.0426 1
-1 2 6 217.959 6.9979 -2
-1 -2 6 217.959 6.9979 1
0 -2 6 275.832 2.59072 1
1 -2 6 1390.21 11.8584 1
2 -2 6 374.167 3.48134 1
3 -2 6 81.4488 1.05935 1
4 -2 6 682.966 6.06154 1
5 -2 6 656.564 6.34938 1
6 -2 6 9.33765 0.47682 1
7 3 6 307.961 10.2139 -2
7 -2 6 307.961 10.2139 1
8 3 6 717.907 18.3477 -2
8 -2 6 717.907 18.3477 1
9 3 6 314.684 4.49291 -2
9 -2 6 314.684 4.49291 1
10 3 6 37.4832 2.69975 -2
10 -2 6 37.4832 2.69975 1
-7 1 6 64.7109 2.72062 -2
-7 -1 6 64.7109 2.72062 1
-6 1 6 210.364 3.17937 -2
-6 -1 6 210.364 3.17937 1
-5 1 6 53.5076 1.72287 -2
-5 -1 6 53.5076 1.72287 1
-4 1 6 327.521 5.56991 -2
-4 -1 6 327.521 5.56991 1
-3 1 6 515.631 8.88819 -2
-3 -1 6 515.631 8.88819 1
-2 1 6 0.33825 1.49641 -2
-2 -1 6 0.33825 1.49641 1
-1 1 6 26.2426 2.49248 -2
-1 -1 6 26.2426 2.49248 1
0 1 6 299.776 8.81434 -2
0 -1 6 299.776 8.81434 1
1 -1 6 23.8044 0.59099 1
2 -1 6 21.0894 0.4984 1
3 -1 6 33.6861 0.66533 1
4 -1 6 0.6673 0.27588 1
5 -1 6 5.31133 0.37987 1
6 2 6 8.48144 15.7892 -2
6 -1 6 8.48144 15.7892 1
7 2 6 93.5512 5.14198 -2
7 -1 6 93.5512 5.14198 1
8 2 6 97.6925 5.00897 -2
8 -1 6 97.6925 5.00897 1
9 2 6 27.0146 1.99405 -2
9 -1 6 27.0146 1.99405 1
10 2 6 12.3851 2.24001 -2
10 -1 6 12.3851 2.24001 1
-7 0 6 22.7912 2.27193 -2
-7 0 6 22.7912 2.27193 1
-6 0 6 214.794 3.2178 -2
-6 0 6 214.794 3.2178 1
-5 0 6 936.08 8.34805 -2
-5 0 6 936.08 8.34805 1
-4 0 6 28.1734 1.63587 -2
-4 0 6 28.1734 1.63587 1
-3 0 6 1626.26 26.5842 -2
-3 0 6 1626.26 26.5842 1
-2 0 6 1200.02 11.3182 1
-1 0 6 101.421 1.31493 1
0 0 6 1236.59 33.3808 -2
0 0 6 1236.59 33.3808 1
1 0 6 5072.04 115.248 1
2 0 6 1178.51 9.7152 1
3 0 6 526.912 5.23274 1
4 0 6 1963.55 18.9111 1
5 0 6 1314.43 12.3543 1
6 0 6 84.9915 1.16476 1
7 1 6 485.267 13.6701 -2
7 0 6 485.267 13.6701 1
8 1 6 556.187 10.6972 -2
8 0 6 556.187 10.6972 1
9 1 6 125.27 3.10795 -2
9 0 6 125.27 3.10795 1
10 1 6 129.744 2.76251 -2
10 0 6 129.744 2.76251 1
-7 -1 6 58.8912 3.64041 -2
-7 1 6 58.8912 3.64041 1
-6 -1 6 193.182 3.2859 -2
-6 1 6 193.182 3.2859 1
-5 -1 6 42.6226 1.73734 -2
-5 1 6 42.6226 1.73734 1
-4 -1 6 351.941 4.31038 -2
-4 1 6 351.941 4.31038 1
-3 -1 6 495.047 7.50185 -2
-3 1 6 495.047 7.50185 1
-2 -1 6 12.0602 2.35727 -2
-2 1 6 12.0602 2.35727 1
-1 1 6 34.248 0.79061 1
0 -1 6 315.136 9.0368 -2
0 1 6 315.136 9.0368 1
1 -1 6 96.029 3.22301 -2
1 1 6 96.029 3.22301 1
2 1 6 211.447 2.23719 1
3 1 6 41.3823 0.92904 1
4 1 6 6.4513 0.5334 1
5 1 6 51.854 1.02637 1
6 0 6 128.087 11.6969 -2
6 1 6 128.087 11.6969 1
7 1 6 4.95796 0.58987 1
8 0 6 464.658 12.0204 -2
8 1 6 464.658 12.0204 1
9 0 6 129.564 3.70257 -2
9 1 6 129.564 3.70257 1
10 0 6 112.533 3.26648 -2
10 1 6 112.533 3.26648 1
-6 -2 6 120.725 2.2765 -2
-6 2 6 120.725 2.2765 1
-5 -2 6 533.942 5.94058 -2
-5 2 6 533.942 5.94058 1
-4 -2 6 6.47323 1.99373 -2
-4 2 6 6.47323 1.99373 1
-3 -2 6 474.379 6.51407 -2
-3 2 6 474.379 6.51407 1
-2 -2 6 1250.74 25.3042 -2
-2 2 6 1250.74 25.3042 1
-1 -2 6 210.616 7.98804 -2
-1 2 6 210.616 7.98804 1
0 -2 6 772.56 21.1109 -2
0 2 6 772.56 21.1109 1
1 2 6 936.705 7.92001 1
2 2 6 181.403 2.10681 1
3 2 6 24.651 1.5016 1
4 2 6 543.688 8.46717 1
5 2 6 532.902 7.75562 1
6 -1 6 2.73506 5.11297 -2
6 2 6 2.73506 5.11297 1
7 -1 6 72.2476 9.04598 -2
7 2 6 72.2476 9.04598 1
8 -1 6 85.5306 4.13715 -2
8 2 6 85.5306 4.13715 1
9 -1 6 21.932 4.0586 -2
9 2 6 21.932 4.0586 1
10 -1 6 -1.3241 3.7439 -2
10 2 6 -1.3241 3.7439 1
-6 -3 6 831.799 7.40986 -2
-6 3 6 831.799 7.40986 1
-5 -3 6 11.9993 1.57545 -2
-5 3 6 11.9993 1.57545 1
-4 -3 6 717.21 8.61924 -2
-4 3 6 717.21 8.61924 1
-3 -3 6 1035.11 11.7147 -2
-3 3 6 1035.11 11.7147 1
-2 -3 6 407.845 7.39572 -2
-2 3 6 407.845 7.39572 1
-1 -3 6 390.495 8.56274 -2
-1 3 6 390.495 8.56274 1
0 3 6 643.875 5.54166 1
1 3 6 98.3926 1.25002 1
2 3 6 344.049 3.45815 1
3 3 6 578.659 10.6679 1
4 3 6 0.63056 0.52437 1
5 3 6 521.261 7.21676 1
6 3 6 359.728 6.23057 1
7 3 6 24.6183 0.89557 1
8 3 6 384.562 5.88677 1
9 -2 6 339.848 7.69011 -2
9 3 6 339.848 7.69011 1
10 -2 6 32.1581 3.23596 -2
10 3 6 32.1581 3.23596 1
-6 -4 6 96.551 2.30712 -2
-6 4 6 96.551 2.30712 1
-5 -4 6 25.7723 1.48055 -2
-5 4 6 25.7723 1.48055 1
-4 -4 6 20.3196 1.81469 -2
-4 4 6 20.3196 1.81469 1
-3 -4 6 75.9486 2.91124 -2
-3 4 6 75.9486 2.91124 1
-2 -4 6 3.4752 1.899 -2
-2 4 6 3.4752 1.899 1
-1 -4 6 22.1056 1.78851 -2
-1 4 6 22.1056 1.78851 1
0 -4 6 21.7267 2.06647 -2
0 4 6 21.7267 2.06647 1
1 4 6 24.1259 0.63761 1
2 4 6 26.6895 0.61915 1
3 4 6 24.2743 0.64661 1
4 4 6 9.56892 0.76962 1
5 4 6 5.36168 0.758 1
6 4 6 0.57945 0.66796 1
7 4 6 21.1484 0.89064 1
8 4 6 38.2492 1.45718 1
9 -3 6 158.026 5.70921 -2
9 4 6 158.026 5.70921 1
-6 -5 6 818.675 10.1909 -2
-6 5 6 818.675 10.1909 1
-5 -5 6 250.88 3.91884 -2
-5 5 6 250.88 3.91884 1
-4 -5 6 562.993 6.15347 -2
-4 5 6 562.993 6.15347 1
-3 -5 6 1110.39 13.0331 -2
-3 5 6 1110.39 13.0331 1
-2 -5 6 88.9522 2.97644 -2
-2 5 6 88.9522 2.97644 1
-1 -5 6 337.962 6.3452 -2
-1 5 6 337.962 6.3452 1
0 -5 6 475.502 13.271 -2
0 5 6 475.502 13.271 1
1 5 6 9.70828 0.51408 1
2 5 6 128.347 1.6266 1
3 5 6 54.4249 1.10427 1
4 5 6 8.55126 0.81841 1
5 5 6 150.433 3.0832 1
6 5 6 88.8659 2.26542 1
7 5 6 94.5885 1.74066 1
8 -4 6 223.528 10.3245 -2
8 5 6 223.528 10.3245 1
9 -4 6 123.154 5.67001 -2
9 5 6 123.154 5.67001 1
-5 -6 6 517.092 5.307 -2
-5 6 6 517.092 5.307 1
-4 -6 6 57.5828 2.03004 -2
-4 6 6 57.5828 2.03004 1
-3 -6 6 293.632 4.90631 -2
-3 6 6 293.632 4.90631 1
-2 -6 6 1183.13 14.635 -2
-2 6 6 1183.13 14.635 1
-1 -6 6 86.5668 2.87981 -2
-1 6 6 86.5668 2.87981 1
0 -6 6 222.62 4.51144 -2
0 6 6 222.62 4.51144 1
1 -6 6 990.983 27.52 -2
1 6 6 990.983 27.52 1
2 6 6 698.794 6.7263 1
3 6 6 77.5887 1.54807 1
4 6 6 549.488 6.67839 1
5 6 6 473.576 5.85872 1
6 6 6 0.32663 0.43958 1
7 6 6 307.352 4.29725 1
8 -5 6 248.292 5.59071 -2
8 6 6 248.292 5.59071 1
9 -5 6 116.165 5.9057 -2
9 6 6 116.165 5.9057 1
-5 -7 6 102.376 3.59738 -2
-5 7 6 102.376 3.59738 1
-4 -7 6 18.9274 2.17314 -2
-4 7 6 18.9274 2.17314 1
-3 -7 6 -19.458 31.9727 -2
-3 7 6 -19.458 31.9727 1
-2 -7 6 178.274 4.46593 -2
-2 7 6 178.274 4.46593 1
-1 -7 6 59.7244 2.25956 -2
-1 7 6 59.7244 2.25956 1
0 -7 6 175.368 4.48677 -2
0 7 6 175.368 4.48677 1
1 -7 6 -18.53 27.8541 -2
1 7 6 -18.53 27.8541 1
2 7 6 32.6027 0.78446 1
3 7 6 51.1031 0.96827 1
4 7 6 -1.4208 0.49182 1
5 7 6 15.1902 1.0244 1
6 7 6 7.57646 0.64015 1
7 7 6 28.4272 1.19892 1
8 -6 6 115.678 4.20104 -2
8 7 6 115.678 4.20104 1
-4 -8 6 -1.7928 2.50339 -2
-4 8 6 -1.7928 2.50339 1
-3 -8 6 388.504 5.82648 -2
-3 8 6 388.504 5.82648 1
-2 -8 6 1027.2 19.1299 -2
-2 8 6 1027.2 19.1299 1
-1 -8 6 228.794 4.94829 -2
-1 8 6 228.794 4.94829 1
0 -8 6 455.525 10.1078 -2
0 8 6 455.525 10.1078 1
1 -8 6 1649.3 70.2487 -2
1 8 6 1649.3 70.2487 1
2 8 6 294.009 3.12337 1
3 8 6 91.3282 1.36624 1
4 8 6 517.369 6.74563 1
5 8 6 368.498 4.72619 1
6 8 6 -0.7183 0.58422 1
7 8 6 120.535 2.3516 1
-3 -9 6 97.0652 3.23706 -2
-3 9 6 97.0652 3.23706 1
-2 -9 6 21.7297 3.13145 -2
-2 9 6 21.7297 3.13145 1
-1 -9 6 156.868 3.27682 -2
-1 9 6 156.868 3.27682 1
0 -9 6 184.641 3.7139 -2
0 9 6 184.641 3.7139 1
1 -9 6 129.416 38.6325 -2
1 9 6 129.416 38.6325 1
2 9 6 100.034 1.71414 1
3 9 6 207.719 2.25655 1
4 9 6 24.2239 1.07652 1
5 9 6 18.4853 1.09249 1
6 -8 6 126.58 7.49181 -2
6 9 6 126.58 7.49181 1
-2 10 6 131.409 2.38824 1
-1 -10 6 50.2035 2.84175 -2
-1 10 6 50.2035 2.84175 1
0 -10 6 79.1108 2.78771 -2
0 10 6 79.1108 2.78771 1
1 -10 6 101.839 32.1152 -2
1 10 6 101.839 32.1152 1
2 10 6 88.5961 1.78029 1
3 10 6 5.61818 0.6428 1
4 10 6 47.2069 1.23242 1
5 10 6 77.0319 2.04401 1
1 11 6 1.28713 0.80059 1
2 11 6 74.8103 1.6159 1
3 11 6 99.658 1.69517 1
1 10 7 178.957 9.80975 -2
1 -10 7 178.957 9.80975 1
2 10 7 3.83262 8.43666 -2
2 -10 7 3.83262 8.43666 1
3 -10 7 73.3993 1.94192 1
-2 9 7 166.446 4.35514 -2
-2 -9 7 166.446 4.35514 1
-1 9 7 143.965 6.41962 -2
-1 -9 7 143.965 6.41962 1
0 9 7 114.829 54.1711 -2
0 -9 7 114.829 54.1711 1
1 9 7 290.408 8.34177 -2
1 -9 7 290.408 8.34177 1
2 -9 7 131.024 1.91952 1
3 -9 7 1.21922 0.6301 1
4 10 7 304.329 13.3692 -2
4 -9 7 304.329 13.3692 1
5 -9 7 241.284 2.98631 1
-3 8 7 3.23655 2.66319 -2
-3 -8 7 3.23655 2.66319 1
-2 8 7 8.56063 3.50724 -2
-2 -8 7 8.56063 3.50724 1
-1 8 7 -40.804 46.2215 -2
-1 -8 7 -40.804 46.2215 1
0 8 7 29.2486 3.94922 -2
0 -8 7 29.2486 3.94922 1
1 8 7 29.1927 4.9875 -2
1 -8 7 29.1927 4.9875 1
2 -8 7 33.7076 1.09661 1
3 -8 7 1.81422 0.59414 1
4 9 7 109.961 5.88144 -2
4 -8 7 109.961 5.88144 1
5 9 7 237.398 5.8929 -2
5 -8 7 237.398 5.8929 1
6 9 7 57.7191 3.63355 -2
6 -8 7 57.7191 3.63355 1
-4 7 7 226.32 4.19675 -2
-4 -7 7 226.32 4.19675 1
-3 7 7 8.73916 2.65388 -2
-3 -7 7 8.73916 2.65388 1
-2 7 7 335.2 11.8591 -2
-2 -7 7 335.2 11.8591 1
-1 7 7 650.499 17.7965 -2
-1 -7 7 650.499 17.7965 1
0 7 7 -30.395 35.7332 -2
0 -7 7 -30.395 35.7332 1
1 -7 7 311.608 3.56773 1
2 -7 7 325.37 3.80475 1
3 -7 7 24.7263 1.08571 1
4 -7 7 211.899 2.81697 1
5 8 7 289.462 11.202 -2
5 -7 7 289.462 11.202 1
6 8 7 35.3327 3.50285 -2
6 -7 7 35.3327 3.50285 1
7 8 7 156.086 4.03089 -2
7 -7 7 156.086 4.03089 1
-4 6 7 2.82187 2.37444 -2
-4 -6 7 2.82187 2.37444 1
-3 6 7 462.55 6.1769 -2
-3 -6 7 462.55 6.1769 1
-2 6 7 289.89 7.26166 -2
-2 -6 7 289.89 7.26166 1
-1 6 7 44.1071 32.1766 -2
-1 -6 7 44.1071 32.1766 1
0 6 7 482.872 39.8752 -2
0 -6 7 482.872 39.8752 1
1 -6 7 514.822 5.54968 1
2 -6 7 0.8801 0.48666 1
3 -6 7 102.531 1.54925 1
4 -6 7 120.894 1.82716 1
5 7 7 621.917 18.5903 -2
5 -6 7 621.917 18.5903 1
6 7 7 166.753 5.53738 -2
6 -6 7 166.753 5.53738 1
7 7 7 161.157 3.53676 -2
7 -6 7 161.157 3.53676 1
8 7 7 235.33 5.09088 -2
8 -6 7 235.33 5.09088 1
-5 5 7 231.2 3.73162 -2
-5 -5 7 231.2 3.73162 1
-4 5 7 85.41 2.53987 -2
-4 -5 7 85.41 2.53987 1
-3 5 7 26.4521 2.15932 -2
-3 -5 7 26.4521 2.15932 1
-2 5 7 304.113 7.22399 -2
-2 -5 7 304.113 7.22399 1
-1 5 7 252.85 8.64069 -2
-1 -5 7 252.85 8.64069 1
0 5 7 87.295 28.2672 -2
0 -5 7 87.295 28.2672 1
1 -5 7 29.8569 0.76743 1
2 -5 7 133.7 1.73462 1
3 -5 7 18.2246 0.83063 1
4 -5 7 40.9448 0.96934 1
5 6 7 123.872 6.23986 -2
5 -5 7 123.872 6.23986 1
6 6 7 9.12603 2.08523 -2
6 -5 7 9.12603 2.08523 1
7 6 7 32.2578 1.8974 -2
7 -5 7 32.2578 1.8974 1
8 6 7 45.2824 2.0182 -2
8 -5 7 45.2824 2.0182 1
-5 4 7 733.515 10.0184 -2
-5 -4 7 733.515 10.0184 1
-4 4 7 110.725 2.59513 -2
-4 -4 7 110.725 2.59513 1
-3 4 7 1807.79 27.2778 -2
-3 -4 7 1807.79 27.2778 1
-2 4 7 1927.15 81.3363 -2
-2 -4 7 1927.15 81.3363 1
-1 4 7 16.4039 3.9948 -2
-1 -4 7 16.4039 3.9948 1
0 -4 7 488.996 4.66571 1
1 -4 7 1153.39 10.1925 1
2 -4 7 68.5381 0.95013 1
3 -4 7 464.263 4.64536 1
4 -4 7 404.189 4.14877 1
5 5 7 293.336 27.334 -2
5 -4 7 293.336 27.334 1
6 5 7 182.401 5.13409 -2
6 -4 7 182.401 5.13409 1
7 5 7 87.8 2.58115 -2
7 -4 7 87.8 2.58115 1
8 5 7 203.371 3.76272 -2
8 -4 7 203.371 3.76272 1
9 5 7 61.2041 2.64471 -2
9 -4 7 61.2041 2.64471 1
-6 3 7 16.9427 2.89204 -2
-6 -3 7 16.9427 2.89204 1
-5 3 7 2.6342 2.07616 -2
-5 -3 7 2.6342 2.07616 1
-4 3 7 16.576 2.00364 -2
-4 -3 7 16.576 2.00364 1
-3 3 7 21.2608 3.38863 -2
-3 -3 7 21.2608 3.38863 1
-2 3 7 119.641 6.16048 -2
-2 -3 7 119.641 6.16048 1
-1 3 7 58.2962 4.38339 -2
-1 -3 7 58.2962 4.38339 1
0 -3 7 2.80446 0.35274 1
1 -3 7 63.1546 0.98674 1
2 -3 7 162.849 1.77864 1
3 -3 7 0.4857 0.31549 1
4 -3 7 244.052 2.6255 1
5 4 7 314.095 9.36499 -2
5 -3 7 314.095 9.36499 1
6 4 7 129.871 3.24293 -2
6 -3 7 129.871 3.24293 1
7 4 7 118.107 2.73152 -2
7 -3 7 118.107 2.73152 1
8 4 7 296.169 4.95847 -2
8 -3 7 296.169 4.95847 1
9 4 7 165.76 3.07387 -2
9 -3 7 165.76 3.07387 1
-6 2 7 480.073 8.41184 -2
-6 -2 7 480.073 8.41184 1
-5 2 7 254.018 4.72753 -2
-5 -2 7 254.018 4.72753 1
-4 2 7 231.738 4.18451 -2
-4 -2 7 231.738 4.18451 1
-3 2 7 1581.96 24.0654 -2
-3 -2 7 1581.96 24.0654 1
-2 2 7 822.669 16.8057 -2
-2 -2 7 822.669 16.8057 1
-1 2 7 10.4324 3.31113 -2
-1 -2 7 10.4324 3.31113 1
0 -2 7 185.133 2.03995 1
1 -2 7 597.642 5.39311 1
2 -2 7 1.23497 0.26584 1
3 -2 7 112.843 1.40777 1
4 -2 7 151.224 1.6679 1
5 3 7 190.198 3.7268 -2
5 -2 7 190.198 3.7268 1
6 3 7 215.581 3.75433 -2
6 -2 7 215.581 3.75433 1
7 3 7 70.9769 2.07358 -2
7 -2 7 70.9769 2.07358 1
8 3 7 21.5176 1.69686 -2
8 -2 7 21.5176 1.69686 1
9 3 7 23.121 1.82128 -2
9 -2 7 23.121 1.82128 1
-6 1 7 43.2055 2.32824 -2
-6 -1 7 43.2055 2.32824 1
-5 1 7 125 3.86891 -2
-5 -1 7 125 3.86891 1
-4 1 7 411.106 6.79255 -2
-4 -1 7 411.106 6.79255 1
-3 1 7 15.8412 1.97597 -2
-3 -1 7 15.8412 1.97597 1
-2 1 7 974.79 19.2209 -2
-2 -1 7 974.79 19.2209 1
-1 1 7 456.657 13.1627 -2
-1 -1 7 456.657 13.1627 1
0 -1 7 17.2148 0.5454 1
1 -1 7 841.682 7.35761 1
2 -1 7 1355.39 11.4513 1
3 -1 7 4.59836 0.35809 1
4 -1 7 537.407 5.47056 1
5 2 7 1408.62 23.9292 -2
5 -1 7 1408.62 23.9292 1
6 2 7 272.597 9.05297 -2
6 -1 7 272.597 9.05297 1
7 2 7 564.747 7.82081 -2
7 -1 7 564.747 7.82081 1
8 2 7 539.708 7.66418 -2
8 -1 7 539.708 7.66418 1
9 2 7 303.956 4.79968 -2
9 -1 7 303.956 4.79968 1
10 2 7 64.8949 2.69445 -2
10 -1 7 64.8949 2.69445 1
-6 0 7 14.9285 2.13981 -2
-6 0 7 14.9285 2.13981 1
-5 0 7 -3.9054 2.05849 -2
-5 0 7 -3.9054 2.05849 1
-4 0 7 1.65391 2.22489 -2
-4 0 7 1.65391 2.22489 1
-3 0 7 20.504 2.00526 -2
-3 0 7 20.504 2.00526 1
-2 0 7 -0.4529 2.28856 -2
-2 0 7 -0.4529 2.28856 1
-1 0 7 0.29619 0.31996 1
0 0 7 9.7181 0.4244 1
1 0 7 1.94055 0.2768 1
2 0 7 0.42997 0.21623 1
3 0 7 8.4115 0.37869 1
4 0 7 44.3545 0.82959 1
5 1 7 1021.64 27.705 -2
5 0 7 1021.64 27.705 1
6 1 7 106.371 3.96794 -2
6 0 7 106.371 3.96794 1
7 1 7 186.239 3.92872 -2
7 0 7 186.239 3.92872 1
8 1 7 322.356 5.00214 -2
8 0 7 322.356 5.00214 1
9 1 7 187.907 4.94297 -2
9 0 7 187.907 4.94297 1
10 1 7 30.159 2.66315 -2
10 0 7 30.159 2.66315 1
-6 -1 7 41.1699 2.20159 -2
-6 1 7 41.1699 2.20159 1
-5 -1 7 118.823 2.55666 -2
-5 1 7 118.823 2.55666 1
-4 -1 7 409.187 6.70259 -2
-4 1 7 409.187 6.70259 1
-3 -1 7 -2.3587 2.69022 -2
-3 1 7 -2.3587 2.69022 1
-2 -1 7 878.874 25.2969 -2
-2 1 7 878.874 25.2969 1
-1 -1 7 476.505 13.5981 -2
-1 1 7 476.505 13.5981 1
0 1 7 0.69324 0.30215 1
1 1 7 673.893 5.57454 1
2 1 7 1416.02 13.0748 1
3 1 7 0.7918 0.2608 1
4 1 7 668.194 8.1585 1
5 1 7 1078.17 12.6763 1
6 1 7 104.551 1.69185 1
7 0 7 193.192 12.8289 -2
7 1 7 193.192 12.8289 1
8 0 7 364.375 8.7551 -2
8 1 7 364.375 8.7551 1
9 0 7 209.683 4.3326 -2
9 1 7 209.683 4.3326 1
10 0 7 6.50195 4.94544 -2
10 1 7 6.50195 4.94544 1
-6 -2 7 479.384 6.72333 -2
-6 2 7 479.384 6.72333 1
-5 -2 7 243.968 3.21781 -2
-5 2 7 243.968 3.21781 1
-4 -2 7 240.767 4.87171 -2
-4 2 7 240.767 4.87171 1
-3 -2 7 1505.75 23.3681 -2
-3 2 7 1505.75 23.3681 1
-2 -2 7 788.726 21.8425 -2
-2 2 7 788.726 21.8425 1
-1 -2 7 15.3891 2.524 -2
-1 2 7 15.3891 2.524 1
0 -2 7 556.224 15.4064 -2
0 2 7 556.224 15.4064 1
1 2 7 684.405 5.94163 1
2 2 7 11.4015 0.50975 1
3 2 7 579.274 7.73989 1
4 2 7 357.583 6.82302 1
5 2 7 8.9324 2.137 1
6 -1 7 264.764 10.6589 -2
6 2 7 264.764 10.6589 1
7 -1 7 499.143 14.141 -2
7 2 7 499.143 14.141 1
8 -1 7 491.357 10.8934 -2
8 2 7 491.357 10.8934 1
9 -1 7 301.646 4.90149 -2
9 2 7 301.646 4.90149 1
10 -1 7 53.1016 3.10195 -2
10 2 7 53.1016 3.10195 1
-6 -3 7 0.83174 2.97602 -2
-6 3 7 0.83174 2.97602 1
-5 -3 7 -3.7961 1.99704 -2
-5 3 7 -3.7961 1.99704 1
-4 -3 7 13.5772 1.85012 -2
-4 3 7 13.5772 1.85012 1
-3 -3 7 20.9855 2.8585 -2
-3 3 7 20.9855 2.8585 1
-2 -3 7 126.771 6.53004 -2
-2 3 7 126.771 6.53004 1
-1 3 7 16.6032 0.61388 1
0 -3 7 115.631 4.09145 -2
0 3 7 115.631 4.09145 1
1 3 7 155.935 1.8115 1
2 3 7 1.63444 0.30797 1
3 3 7 90.2357 1.56541 1
4 3 7 25.5239 1.24467 1
5 3 7 123.825 2.35148 1
6 -2 7 204.65 9.50593 -2
6 3 7 204.65 9.50593 1
7 3 7 46.0402 1.73959 1
8 -2 7 20.3641 5.23234 -2
8 3 7 20.3641 5.23234 1
9 -2 7 18.9645 2.03075 -2
9 3 7 18.9645 2.03075 1
-5 -4 7 775.06 7.43721 -2
-5 4 7 775.06 7.43721 1
-4 -4 7 99.728 2.44851 -2
-4 4 7 99.728 2.44851 1
-3 -4 7 1727.13 35.3144 -2
-3 4 7 1727.13 35.3144 1
-2 -4 7 1983.18 32.083 -2
-2 4 7 1983.18 32.083 1
-1 -4 7 11.0194 2.00009 -2
-1 4 7 11.0194 2.00009 1
0 -4 7 1189.13 32.1144 -2
0 4 7 1189.13 32.1144 1
1 4 7 782.386 7.19016 1
2 4 7 95.8903 1.32732 1
3 4 7 164.658 2.47427 1
4 4 7 245.005 3.8797 1
5 4 7 89.5769 2.03385 1
6 4 7 95.2664 2.30288 1
7 -3 7 115.017 4.27637 -2
7 4 7 115.017 4.27637 1
8 -3 7 274.65 11.3964 -2
8 4 7 274.65 11.3964 1
9 -3 7 168.929 5.27735 -2
9 4 7 168.929 5.27735 1
-5 -5 7 260.559 4.13568 -2
-5 5 7 260.559 4.13568 1
-4 -5 7 90.3573 2.87791 -2
-4 5 7 90.3573 2.87791 1
-3 -5 7 -0.3191 4.65586 -2
-3 5 7 -0.3191 4.65586 1
-2 -5 7 300.151 6.1232 -2
-2 5 7 300.151 6.1232 1
-1 -5 7 263.859 5.36468 -2
-1 5 7 263.859 5.36468 1
0 -5 7 98.1095 3.6879 -2
0 5 7 98.1095 3.6879 1
1 5 7 139.719 1.75897 1
2 5 7 186.928 2.3565 1
3 5 7 55.2813 1.2736 1
4 5 7 143.562 2.78258 1
5 5 7 259.682 4.61799 1
6 5 7 88.2167 2.32804 1
7 -4 7 97.952 4.33452 -2
7 5 7 97.952 4.33452 1
8 -4 7 233.782 10.4872 -2
8 5 7 233.782 10.4872 1
9 -4 7 62.296 3.30016 -2
9 5 7 62.296 3.30016 1
-4 -6 7 8.69803 2.17947 -2
-4 6 7 8.69803 2.17947 1
-3 -6 7 467.662 9.10023 -2
-3 6 7 467.662 9.10023 1
-2 -6 7 316.304 6.51895 -2
-2 6 7 316.304 6.51895 1
-1 -6 7 1.55471 2.25783 -2
-1 6 7 1.55471 2.25783 1
0 -6 7 442.478 9.22751 -2
0 6 7 442.478 9.22751 1
1 6 7 246.567 2.90552 1
2 6 7 5.25728 0.46334 1
3 6 7 3.36309 0.59708 1
4 6 7 2.67949 0.47823 1
5 6 7 13.8054 1.2167 1
6 6 7 3.152 1.03621 1
7 -5 7 40.0575 2.85553 -2
7 6 7 40.0575 2.85553 1
8 -5 7 45.622 3.37933 -2
8 6 7 45.622 3.37933 1
-4 -7 7 226.865 4.23264 -2
-4 7 7 226.865 4.23264 1
-3 -7 7 16.266 3.1567 -2
-3 7 7 16.266 3.1567 1
-2 -7 7 356.805 9.25416 -2
-2 7 7 356.805 9.25416 1
-1 -7 7 697.679 11.7714 -2
-1 7 7 697.679 11.7714 1
0 -7 7 -0.0683 2.35314 -2
0 7 7 -0.0683 2.35314 1
1 -7 7 523.831 15.6556 -2
1 7 7 523.831 15.6556 1
2 7 7 713.688 7.69726 1
3 7 7 15.684 0.82803 1
4 7 7 409.746 5.33226 1
5 7 7 594.1 7.33793 1
6 -6 7 179.418 5.91383 -2
6 7 7 179.418 5.91383 1
7 -6 7 169.506 6.06494 -2
7 7 7 169.506 6.06494 1
8 -6 7 272.703 6.16321 -2
8 7 7 272.703 6.16321 1
-3 -8 7 -2.3198 4.27908 -2
-3 8 7 -2.3198 4.27908 1
-2 -8 7 -10.219 6.8715 -2
-2 8 7 -10.219 6.8715 1
-1 -8 7 95.2589 3.7231 -2
-1 8 7 95.2589 3.7231 1
0 -8 7 20.9679 2.47549 -2
0 8 7 20.9679 2.47549 1
1 8 7 -0.9087 0.65001 1
2 8 7 11.3809 0.68001 1
3 8 7 137.982 2.04428 1
4 8 7 28.4211 1.22162 1
5 8 7 2.65682 0.68143 1
6 -7 7 43.4154 5.81576 -2
6 8 7 43.4154 5.81576 1
7 -7 7 143.459 3.32146 -2
7 8 7 143.459 3.32146 1
-2 -9 7 142.653 4.29018 -2
-2 9 7 142.653 4.29018 1
-1 -9 7 80.1326 4.41391 -2
-1 9 7 80.1326 4.41391 1
0 -9 7 15.6314 5.9155 -2
0 9 7 15.6314 5.9155 1
1 9 7 254.815 3.32904 1
2 9 7 143.428 2.19602 1
3 9 7 0.67747 0.74039 1
4 -8 7 201.947 29.9071 -2
4 9 7 201.947 29.9071 1
5 -8 7 246.701 10.0389 -2
5 9 7 246.701 10.0389 1
6 -8 7 72.9294 3.79687 -2
6 9 7 72.9294 3.79687 1
-1 10 7 9.2578 0.88447 1
0 10 7 167.882 2.85571 1
1 10 7 53.3523 1.6178 1
2 10 7 2.92439 0.72504 1
3 10 7 131.446 1.99502 1
4 -9 7 312.544 36.2953 -2
4 10 7 312.544 36.2953 1
5 -9 7 238.512 10.1265 -2
5 10 7 238.512 10.1265 1
0 -9 8 8.6959 1.10615 1
1 -9 8 72.9948 1.86005 1
2 10 8 35.174 5.12681 -2
2 -9 8 35.174 5.12681 1
3 10 8 -34.733 5.97315 -2
3 -9 8 -34.733 5.97315 1
4 -9 8 15.7033 0.97133 1
-2 -8 8 6.39311 0.95205 1
-1 8 8 196.229 58.1031 -2
-1 -8 8 196.229 58.1031 1
-1 9 8 59.264 8.94574 -2
-1 -8 8 59.264 8.94574 1
0 8 8 113.634 8.62869 -2
0 -8 8 113.634 8.62869 1
1 -8 8 5.46092 0.65562 1
2 -8 8 90.1509 1.59003 1
3 9 8 52.3385 4.41707 -2
3 -8 8 52.3385 4.41707 1
4 9 8 119.776 4.709 -2
4 -8 8 119.776 4.709 1
5 9 8 243.228 4.31448 -2
5 -8 8 243.228 4.31448 1
6 -8 8 61.933 1.93967 1
-3 7 8 24.0956 7.75391 -2
-3 -7 8 24.0956 7.75391 1
-2 7 8 50.302 7.16151 -2
-2 -7 8 50.302 7.16151 1
-1 7 8 154.849 46.0423 -2
-1 -7 8 154.849 46.0423 1
0 -7 8 28.765 1.07778 1
1 -7 8 154.896 2.10523 1
2 8 8 244.369 10.4921 -2
2 -7 8 244.369 10.4921 1
3 8 8 87.964 37.8175 -2
3 -7 8 87.964 37.8175 1
4 8 8 137.341 4.39153 -2
4 -7 8 137.341 4.39153 1
5 8 8 327.287 4.84263 -2
5 -7 8 327.287 4.84263 1
6 8 8 160.654 3.35152 -2
6 -7 8 160.654 3.35152 1
7 8 8 28.4176 3.51126 -2
7 -7 8 28.4176 3.51126 1
-3 6 8 210.59 5.92642 -2
-3 -6 8 210.59 5.92642 1
-2 6 8 94.6244 45.0699 -2
-2 -6 8 94.6244 45.0699 1
-1 6 8 439.431 46.4784 -2
-1 -6 8 439.431 46.4784 1
0 -6 8 39.8402 1.18895 1
1 -6 8 0.31684 0.46965 1
2 -6 8 109.211 1.70576 1
3 7 8 122.221 35.3633 -2
3 -6 8 122.221 35.3633 1
4 7 8 30.3821 3.61486 -2
4 -6 8 30.3821 3.61486 1
5 7 8 121.679 3.09899 -2
5 -6 8 121.679 3.09899 1
6 7 8 51.787 2.96016 -2
6 -6 8 51.787 2.96016 1
7 7 8 24.3021 2.40939 -2
7 -6 8 24.3021 2.40939 1
8 -6 8 71.004 1.70068 1
-4 5 8 41.5024 4.27839 -2
-4 -5 8 41.5024 4.27839 1
-3 5 8 338.735 7.27574 -2
-3 -5 8 338.735 7.27574 1
-2 5 8 1252.36 23.4569 -2
-2 -5 8 1252.36 23.4569 1
-1 5 8 165.183 7.94564 -2
-1 -5 8 165.183 7.94564 1
0 -5 8 213.961 2.49826 1
1 -5 8 710.948 6.51293 1
2 -5 8 557.572 5.57321 1
3 6 8 228.768 30.1426 -2
3 -5 8 228.768 30.1426 1
4 6 8 708.619 41.7908 -2
4 -5 8 708.619 41.7908 1
5 6 8 601.314 6.64247 -2
5 -5 8 601.314 6.64247 1
6 6 8 211.033 3.3672 -2
6 -5 8 211.033 3.3672 1
7 6 8 163.041 2.51895 -2
7 -5 8 163.041 2.51895 1
8 6 8 257.065 3.4346 -2
8 -5 8 257.065 3.4346 1
-4 4 8 51.4309 2.79713 -2
-4 -4 8 51.4309 2.79713 1
-3 4 8 11.8507 2.58346 -2
-3 -4 8 11.8507 2.58346 1
-2 4 8 4.04677 5.09104 -2
-2 -4 8 4.04677 5.09104 1
-1 4 8 45.9354 5.16748 -2
-1 -4 8 45.9354 5.16748 1
0 -4 8 3.96243 0.52154 1
1 -4 8 0.85431 0.46589 1
2 -4 8 1.4195 0.42235 1
3 5 8 46.0097 23.2215 -2
3 -4 8 46.0097 23.2215 1
4 5 8 202.711 6.35512 -2
4 -4 8 202.711 6.35512 1
5 5 8 258.995 6.04868 -2
5 -4 8 258.995 6.04868 1
6 5 8 37.2576 1.55493 -2
6 -4 8 37.2576 1.55493 1
7 5 8 55.507 2.00339 -2
7 -4 8 55.507 2.00339 1
8 5 8 52.719 2.34823 -2
8 -4 8 52.719 2.34823 1
9 5 8 10.389 2.38521 -2
9 -4 8 10.389 2.38521 1
-5 3 8 657.049 10.7257 -2
-5 -3 8 657.049 10.7257 1
-4 3 8 -0.0429 2.75194 -2
-4 -3 8 -0.0429 2.75194 1
-3 3 8 820.33 12.082 -2
-3 -3 8 820.33 12.082 1
-2 3 8 2477.16 67.4126 -2
-2 -3 8 2477.16 67.4126 1
-1 3 8 331.704 11.1623 -2
-1 -3 8 331.704 11.1623 1
0 -3 8 452.837 4.92806 1
1 -3 8 910.294 8.57042 1
2 -3 8 296.372 3.15536 1
3 -3 8 214.536 2.50191 1
4 -3 8 498.653 5.37431 1
5 4 8 551.335 8.13513 -2
5 -3 8 551.335 8.13513 1
6 4 8 33.4548 1.89174 -2
6 -3 8 33.4548 1.89174 1
7 4 8 205.602 3.50173 -2
7 -3 8 205.602 3.50173 1
8 4 8 87.3025 2.88599 -2
8 -3 8 87.3025 2.88599 1
9 4 8 37.8133 2.23983 -2
9 -3 8 37.8133 2.23983 1
-5 2 8 0.10302 3.3875 -2
-5 -2 8 0.10302 3.3875 1
-4 2 8 105.861 3.56222 -2
-4 -2 8 105.861 3.56222 1
-3 2 8 235.687 5.56406 -2
-3 -2 8 235.687 5.56406 1
-2 2 8 63.4048 5.40178 -2
-2 -2 8 63.4048 5.40178 1
-1 -2 8 125.568 2.12049 1
0 -2 8 64.1966 1.15397 1
1 -2 8 19.4052 0.74502 1
2 -2 8 105.218 1.31226 1
3 3 8 228.881 7.17275 -2
3 -2 8 228.881 7.17275 1
4 3 8 626.066 15.3843 -2
4 -2 8 626.066 15.3843 1
5 3 8 595.411 12.1251 -2
5 -2 8 595.411 12.1251 1
6 3 8 255.657 3.46647 -2
6 -2 8 255.657 3.46647 1
7 3 8 176.951 3.07008 -2
7 -2 8 176.951 3.07008 1
8 3 8 390.082 5.51831 -2
8 -2 8 390.082 5.51831 1
9 3 8 235.355 3.41714 -2
9 -2 8 235.355 3.41714 1
-5 1 8 80.6065 2.79962 -2
-5 -1 8 80.6065 2.79962 1
-4 1 8 35.8114 2.89546 -2
-4 -1 8 35.8114 2.89546 1
-3 1 8 211.712 5.0933 -2
-3 -1 8 211.712 5.0933 1
-2 1 8 502.535 15.6516 -2
-2 -1 8 502.535 15.6516 1
-1 1 8 39.4521 3.50374 -2
-1 -1 8 39.4521 3.50374 1
0 -1 8 3.54641 0.41135 1
1 -1 8 98.5373 1.29987 1
2 -1 8 199.003 2.06259 1
3 -1 8 -1.046 0.29707 1
4 -1 8 32.3645 0.78876 1
5 2 8 184.151 4.52331 -2
5 -1 8 184.151 4.52331 1
6 2 8 142.439 2.91871 -2
6 -1 8 142.439 2.91871 1
7 2 8 9.5049 1.6332 -2
7 -1 8 9.5049 1.6332 1
8 2 8 146.839 2.54713 -2
8 -1 8 146.839 2.54713 1
9 2 8 71.2349 2.73228 -2
9 -1 8 71.2349 2.73228 1
-5 0 8 112.767 3.605 -2
-5 0 8 112.767 3.605 1
-4 0 8 257.506 4.2658 -2
-4 0 8 257.506 4.2658 1
-3 0 8 824.794 24.2264 -2
-3 0 8 824.794 24.2264 1
-2 0 8 7.93277 0.69524 1
-1 0 8 415.225 4.23574 1
0 0 8 56.4112 0.95623 1
1 0 8 10.0304 0.42171 1
2 0 8 698.682 5.79033 1
3 0 8 197.035 2.17121 1
4 0 8 187.198 2.14771 1
5 1 8 867.304 37.8306 -2
5 0 8 867.304 37.8306 1
6 1 8 379.237 5.44971 -2
6 0 8 379.237 5.44971 1
7 1 8 232.493 3.37089 -2
7 0 8 232.493 3.37089 1
8 1 8 508.988 7.32782 -2
8 0 8 508.988 7.32782 1
9 1 8 252.87 5.89488 -2
9 0 8 252.87 5.89488 1
-5 -1 8 66.859 2.46607 -2
-5 1 8 66.859 2.46607 1
-4 -1 8 53.4454 3.71397 -2
-4 1 8 53.4454 3.71397 1
-3 -1 8 200.986 9.11231 -2
-3 1 8 200.986 9.11231 1
-2 -1 8 489.07 16.7524 -2
-2 1 8 489.07 16.7524 1
-1 1 8 30.9825 0.87482 1
0 1 8 7.04973 0.4273 1
1 1 8 173.13 1.75561 1
2 1 8 197.883 2.15625 1
3 1 8 4.69138 0.39979 1
4 0 8 500.354 13.8019 -2
4 1 8 500.354 13.8019 1
5 1 8 363.435 5.72242 1
6 0 8 341.301 6.14382 -2
6 1 8 341.301 6.14382 1
7 0 8 233.938 5.9448 -2
7 1 8 233.938 5.9448 1
8 0 8 465.676 9.60809 -2
8 1 8 465.676 9.60809 1
9 0 8 221.094 3.73162 -2
9 1 8 221.094 3.73162 1
-5 -2 8 2.89082 3.43247 -2
-5 2 8 2.89082 3.43247 1
-4 -2 8 92.7571 3.91075 -2
-4 2 8 92.7571 3.91075 1
-3 -2 8 210.125 9.24588 -2
-3 2 8 210.125 9.24588 1
-2 -2 8 60.3473 3.53996 -2
-2 2 8 60.3473 3.53996 1
-1 -2 8 191.807 6.51314 -2
-1 2 8 191.807 6.51314 1
0 2 8 5.38641 0.37627 1
1 2 8 0.96253 0.28679 1
2 2 8 75.0159 1.14655 1
3 2 8 15.9053 0.76193 1
4 -1 8 104.393 13.1044 -2
4 2 8 104.393 13.1044 1
5 2 8 100.262 2.98975 1
6 -1 8 149.57 3.22284 -2
6 2 8 149.57 3.22284 1
7 -1 8 10.6096 1.23096 -2
7 2 8 10.6096 1.23096 1
8 -1 8 162.614 2.90485 -2
8 2 8 162.614 2.90485 1
9 -1 8 93.8864 2.83201 -2
9 2 8 93.8864 2.83201 1
-5 -3 8 689.746 8.89925 -2
-5 3 8 689.746 8.89925 1
-4 -3 8 2.14623 3.84528 -2
-4 3 8 2.14623 3.84528 1
-3 -3 8 799.452 25.6336 -2
-3 3 8 799.452 25.6336 1
-2 -3 8 2315.78 69.3505 -2
-2 3 8 2315.78 69.3505 1
-1 -3 8 374.183 11.0702 -2
-1 3 8 374.183 11.0702 1
0 3 8 478.818 4.52052 1
1 3 8 1170.59 10.5132 1
2 3 8 576.197 5.39868 1
3 3 8 102.987 1.87869 1
4 -2 8 741.68 24.2346 -2
4 3 8 741.68 24.2346 1
5 -2 8 608.604 16.6363 -2
5 3 8 608.604 16.6363 1
6 -2 8 229.863 10.1949 -2
6 3 8 229.863 10.1949 1
7 -2 8 204.166 5.0141 -2
7 3 8 204.166 5.0141 1
8 -2 8 361.221 10.8075 -2
8 3 8 361.221 10.8075 1
9 -2 8 195.8 3.83083 -2
9 3 8 195.8 3.83083 1
-5 4 8 22.4671 1.91045 1
-4 -4 8 62.2817 4.07574 -2
-4 4 8 62.2817 4.07574 1
-3 -4 8 -0.3996 3.60567 -2
-3 4 8 -0.3996 3.60567 1
-2 -4 8 11.1213 5.20648 -2
-2 4 8 11.1213 5.20648 1
-1 -4 8 44.5186 2.95606 -2
-1 4 8 44.5186 2.95606 1
0 4 8 40.614 0.85464 1
1 4 8 11.9645 0.61005 1
2 4 8 1.72145 0.38279 1
3 4 8 102.131 1.90458 1
4 4 8 73.5388 1.49911 1
5 -3 8 488.056 17.3961 -2
5 4 8 488.056 17.3961 1
6 -3 8 24.6536 3.23206 -2
6 4 8 24.6536 3.23206 1
7 -3 8 188.653 6.8813 -2
7 4 8 188.653 6.8813 1
8 -3 8 77.9061 2.98132 -2
8 4 8 77.9061 2.98132 1
9 -3 8 48.9577 3.18152 -2
9 4 8 48.9577 3.18152 1
-4 -5 8 46.3417 3.12691 -2
-4 5 8 46.3417 3.12691 1
-3 -5 8 328.539 12.5471 -2
-3 5 8 328.539 12.5471 1
-2 -5 8 1275.68 26.7412 -2
-2 5 8 1275.68 26.7412 1
-1 -5 8 167.884 4.97926 -2
-1 5 8 167.884 4.97926 1
0 5 8 195.646 2.17476 1
1 5 8 808.927 8.01624 1
2 5 8 527.98 5.73944 1
3 5 8 33.7411 1.15385 1
4 -4 8 180.465 7.091 -2
4 5 8 180.465 7.091 1
5 -4 8 283.482 7.52189 -2
5 5 8 283.482 7.52189 1
6 -4 8 47.6107 3.11678 -2
6 5 8 47.6107 3.11678 1
7 -4 8 64.5532 3.90353 -2
7 5 8 64.5532 3.90353 1
8 -4 8 42.2043 3.27536 -2
8 5 8 42.2043 3.27536 1
9 -4 8 4.01312 3.86356 -2
9 5 8 4.01312 3.86356 1
-4 6 8 129.645 2.44008 1
-3 -6 8 245.777 6.38743 -2
-3 6 8 245.777 6.38743 1
-2 -6 8 7.59723 4.36693 -2
-2 6 8 7.59723 4.36693 1
-1 -6 8 515.417 9.40771 -2
-1 6 8 515.417 9.40771 1
0 -6 8 237.577 10.7744 -2
0 6 8 237.577 10.7744 1
1 6 8 9.98988 0.70686 1
2 6 8 242.486 2.71131 1
3 6 8 199.488 3.20166 1
4 6 8 52.8322 1.47791 1
5 -5 8 540.102 12.7109 -2
5 6 8 540.102 12.7109 1
6 -5 8 222.286 7.66659 -2
6 6 8 222.286 7.66659 1
7 -5 8 155.563 5.21465 -2
7 6 8 155.563 5.21465 1
8 -5 8 269.34 5.92398 -2
8 6 8 269.34 5.92398 1
-3 -7 8 43.1444 7.20951 -2
-3 7 8 43.1444 7.20951 1
-2 7 8 40.0303 1.49152 1
-1 -7 8 26.7032 3.10742 -2
-1 7 8 26.7032 3.10742 1
0 7 8 2.05009 0.67104 1
1 7 8 89.2996 1.81011 1
2 7 8 101.34 1.69833 1
3 7 8 21.8956 1.12039 1
4 7 8 0.01732 0.60076 1
5 -6 8 99.9768 3.13033 -2
5 7 8 99.9768 3.13033 1
6 -6 8 52.9808 1.88034 -2
6 7 8 52.9808 1.88034 1
7 -6 8 34.8628 3.21073 -2
7 7 8 34.8628 3.21073 1
-2 -8 8 0.87986 6.89517 -2
-2 8 8 0.87986 6.89517 1
-1 -8 8 117.26 4.36335 -2
-1 8 8 117.26 4.36335 1
0 8 8 66.591 1.64193 1
1 8 8 40.9777 1.48875 1
2 8 8 159.61 2.60321 1
3 8 8 56.3842 1.68879 1
4 -7 8 141.4 5.51544 -2
4 8 8 141.4 5.51544 1
5 -7 8 336.491 7.74588 -2
5 8 8 336.491 7.74588 1
6 -7 8 171.097 3.57648 -2
6 8 8 171.097 3.57648 1
7 -7 8 27.6585 2.11255 -2
7 8 8 27.6585 2.11255 1
-1 9 8 41.7142 1.22248 1
0 9 8 57.9244 1.66858 1
1 9 8 107.452 2.09986 1
2 9 8 31.6021 1.27252 1
3 9 8 6.21147 0.84771 1
4 -8 8 129.895 8.67278 -2
4 9 8 129.895 8.67278 1
5 -8 8 199.596 4.43963 -2
5 9 8 199.596 4.43963 1
2 10 8 27.5406 1.32729 1
3 10 8 8.9374 1.0779 1
0 -8 9 4.05451 0.85726 1
1 9 9 16.3483 4.17505 -2
1 -8 9 16.3483 4.17505 1
2 9 9 122.967 53.0088 -2
2 -8 9 122.967 53.0088 1
3 9 9 5.06976 2.73243 -2
3 -8 9 5.06976 2.73243 1
4 9 9 0.24952 2.59089 -2
4 -8 9 0.24952 2.59089 1
5 -8 9 1.60829 1.02545 1
-1 -7 9 0.96357 0.68309 1
0 8 9 163.573 9.80716 -2
0 -7 9 163.573 9.80716 1
1 8 9 171.145 6.69581 -2
1 -7 9 171.145 6.69581 1
2 8 9 13.3117 3.19009 -2
2 -7 9 13.3117 3.19009 1
3 8 9 63.224 2.74579 -2
3 -7 9 63.224 2.74579 1
4 8 9 32.2841 2.53868 -2
4 -7 9 32.2841 2.53868 1
5 8 9 20.1572 2.53055 -2
5 -7 9 20.1572 2.53055 1
6 8 9 29.0161 2.58529 -2
6 -7 9 29.0161 2.58529 1
-2 -6 9 43.536 1.50935 1
-1 -6 9 42.0747 1.35489 1
0 7 9 207.255 44.6608 -2
0 -6 9 207.255 44.6608 1
1 7 9 322.347 48.1306 -2
1 -6 9 322.347 48.1306 1
2 7 9 290.983 6.98348 -2
2 -6 9 290.983 6.98348 1
3 7 9 134.968 3.822 -2
3 -6 9 134.968 3.822 1
4 7 9 354.964 6.83982 -2
4 -6 9 354.964 6.83982 1
5 7 9 397.602 7.44663 -2
5 -6 9 397.602 7.44663 1
6 7 9 134.46 2.65068 -2
6 -6 9 134.46 2.65068 1
7 7 9 137.476 3.19942 -2
7 -6 9 137.476 3.19942 1
-3 5 9 34.459 5.59544 -2
-3 -5 9 34.459 5.59544 1
-2 -5 9 37.9807 1.32447 1
-1 -5 9 29.6855 1.1352 1
0 6 9 64.1574 40.9591 -2
0 -5 9 64.1574 40.9591 1
1 6 9 114.068 6.72631 -2
1 -5 9 114.068 6.72631 1
2 6 9 328.145 10.1396 -2
2 -5 9 328.145 10.1396 1
3 6 9 66.5833 3.16792 -2
3 -5 9 66.5833 3.16792 1
4 6 9 123.742 2.36122 -2
4 -5 9 123.742 2.36122 1
5 6 9 174.642 2.7798 -2
5 -5 9 174.642 2.7798 1
6 6 9 75.517 1.88142 -2
6 -5 9 75.517 1.88142 1
7 6 9 6.33623 1.76637 -2
7 -5 9 6.33623 1.76637 1
8 6 9 34.5536 2.7904 -2
8 -5 9 34.5536 2.7904 1
-3 4 9 22.0741 6.74227 -2
-3 -4 9 22.0741 6.74227 1
-2 4 9 661.007 20.571 -2
-2 -4 9 661.007 20.571 1
-1 5 9 438.115 14.6113 -2
-1 -4 9 438.115 14.6113 1
0 5 9 333.746 11.4488 -2
0 -4 9 333.746 11.4488 1
1 -4 9 423.508 5.14265 1
2 5 9 608.82 10.106 -2
2 -4 9 608.82 10.106 1
3 5 9 133.912 3.46718 -2
3 -4 9 133.912 3.46718 1
4 5 9 592.263 7.00628 -2
4 -4 9 592.263 7.00628 1
5 5 9 685.942 8.19062 -2
5 -4 9 685.942 8.19062 1
6 5 9 258.576 3.38741 -2
6 -4 9 258.576 3.38741 1
7 5 9 120.295 2.9597 -2
7 -4 9 120.295 2.9597 1
8 5 9 297.122 4.65546 -2
8 -4 9 297.122 4.65546 1
-4 3 9 30.1692 7.76529 -2
-4 -3 9 30.1692 7.76529 1
-3 3 9 52.0807 4.31479 -2
-3 -3 9 52.0807 4.31479 1
-2 3 9 172.22 8.61064 -2
-2 -3 9 172.22 8.61064 1
-1 -3 9 3.55818 0.63342 1
0 -3 9 52.8066 1.34068 1
1 4 9 754.175 21.7911 -2
1 -3 9 754.175 21.7911 1
2 4 9 971.778 49.3871 -2
2 -3 9 971.778 49.3871 1
3 4 9 98.1306 2.44031 -2
3 -3 9 98.1306 2.44031 1
4 4 9 428.182 7.18628 -2
4 -3 9 428.182 7.18628 1
5 4 9 421.212 5.795 -2
5 -3 9 421.212 5.795 1
6 4 9 241.872 4.40929 -2
6 -3 9 241.872 4.40929 1
7 4 9 42.3383 1.85098 -2
7 -3 9 42.3383 1.85098 1
8 4 9 230.205 3.7331 -2
8 -3 9 230.205 3.7331 1
9 -3 9 92.9148 18.097 1
-4 2 9 65.7404 4.23041 -2
-4 -2 9 65.7404 4.23041 1
-3 -2 9 14.1539 1.13089 1
-2 -2 9 273.559 3.46357 1
-1 -2 9 294.682 3.99585 1
0 3 9 42.8655 4.81169 -2
0 -2 9 42.8655 4.81169 1
1 -2 9 373.544 4.21771 1
2 3 9 431.308 12.7444 -2
2 -2 9 431.308 12.7444 1
3 3 9 5.38178 1.85197 -2
3 -2 9 5.38178 1.85197 1
4 3 9 293.84 4.31205 -2
4 -2 9 293.84 4.31205 1
5 3 9 309.172 3.99472 -2
5 -2 9 309.172 3.99472 1
6 3 9 99.8888 2.65668 -2
6 -2 9 99.8888 2.65668 1
7 3 9 65.1721 2.06988 -2
7 -2 9 65.1721 2.06988 1
8 3 9 159.99 2.69438 -2
8 -2 9 159.99 2.69438 1
9 3 9 42.6851 2.2572 -2
9 -2 9 42.6851 2.2572 1
-4 1 9 21.4601 4.77474 -2
-4 -1 9 21.4601 4.77474 1
-3 1 9 597.131 13.5127 -2
-3 -1 9 597.131 13.5127 1
-2 -1 9 522.492 6.61497 1
-1 -1 9 17.6991 0.99879 1
0 2 9 495.66 10.3747 -2
0 -1 9 495.66 10.3747 1
1 -1 9 291.978 3.02437 1
2 2 9 475.378 14.0966 -2
2 -1 9 475.378 14.0966 1
3 2 9 212.404 5.50487 -2
3 -1 9 212.404 5.50487 1
4 2 9 392.707 5.19727 -2
4 -1 9 392.707 5.19727 1
5 2 9 684.301 7.17892 -2
5 -1 9 684.301 7.17892 1
6 2 9 227.633 3.94683 -2
6 -1 9 227.633 3.94683 1
7 2 9 149.744 3.0038 -2
7 -1 9 149.744 3.0038 1
8 2 9 318.244 5.95973 -2
8 -1 9 318.244 5.95973 1
9 2 9 259.278 4.56242 -2
9 -1 9 259.278 4.56242 1
-4 0 9 4.41819 4.40394 -2
-4 0 9 4.41819 4.40394 1
-3 0 9 42.5257 3.41118 -2
-3 0 9 42.5257 3.41118 1
-2 0 9 7.46103 0.65301 1
-1 0 9 19.5059 0.82396 1
0 0 9 20.5158 0.73249 1
1 0 9 15.9265 0.67417 1
2 1 9 68.222 5.98314 -2
2 0 9 68.222 5.98314 1
3 1 9 151.139 3.97195 -2
3 0 9 151.139 3.97195 1
4 1 9 28.7366 1.40727 -2
4 0 9 28.7366 1.40727 1
5 1 9 64.4416 1.84133 -2
5 0 9 64.4416 1.84133 1
6 1 9 86.1912 2.04031 -2
6 0 9 86.1912 2.04031 1
7 1 9 16.8623 1.34928 -2
7 0 9 16.8623 1.34928 1
8 1 9 76.8081 2.64338 -2
8 0 9 76.8081 2.64338 1
9 1 9 94.3269 4.07185 -2
9 0 9 94.3269 4.07185 1
-4 -1 9 24.9553 4.45117 -2
-4 1 9 24.9553 4.45117 1
-3 -1 9 636.515 18.6968 -2
-3 1 9 636.515 18.6968 1
-2 -1 9 1010.01 21.0568 -2
-2 1 9 1010.01 21.0568 1
-1 1 9 3.25137 0.52534 1
0 0 9 218.643 8.42318 -2
0 1 9 218.643 8.42318 1
1 0 9 150.737 5.00115 -2
1 1 9 150.737 5.00115 1
2 0 9 59.5659 3.93045 -2
2 1 9 59.5659 3.93045 1
3 0 9 173.866 6.08801 -2
3 1 9 173.866 6.08801 1
4 0 9 32.9128 1.72534 -2
4 1 9 32.9128 1.72534 1
5 0 9 60.3764 1.54485 -2
5 1 9 60.3764 1.54485 1
6 0 9 99.9863 3.61557 -2
6 1 9 99.9863 3.61557 1
7 0 9 18.579 1.5661 -2
7 1 9 18.579 1.5661 1
8 0 9 82.5016 2.53722 -2
8 1 9 82.5016 2.53722 1
9 0 9 108.567 2.8445 -2
9 1 9 108.567 2.8445 1
-4 -2 9 102.228 8.23621 -2
-4 2 9 102.228 8.23621 1
-3 2 9 28.4459 1.20592 1
-2 2 9 346.375 3.57676 1
-1 2 9 346.868 3.27836 1
0 2 9 15.1913 0.60695 1
1 -1 9 617.838 18.0725 -2
1 2 9 617.838 18.0725 1
2 -1 9 492.301 10.1615 -2
2 2 9 492.301 10.1615 1
3 -1 9 186.65 6.35021 -2
3 2 9 186.65 6.35021 1
4 -1 9 393.267 10.001 -2
4 2 9 393.267 10.001 1
5 -1 9 774.422 12.7031 -2
5 2 9 774.422 12.7031 1
6 -1 9 230.943 5.85224 -2
6 2 9 230.943 5.85224 1
7 -1 9 159.211 2.96503 -2
7 2 9 159.211 2.96503 1
8 -1 9 345.064 5.97861 -2
8 2 9 345.064 5.97861 1
9 -1 9 260.746 4.16192 -2
9 2 9 260.746 4.16192 1
-4 -3 9 6.06103 52.7447 -2
-4 3 9 6.06103 52.7447 1
-3 3 9 2.29029 0.76936 1
-2 3 9 101.799 1.77449 1
-1 -3 9 28.0007 5.54384 -2
-1 3 9 28.0007 5.54384 1
0 3 9 -0.3087 0.3927 1
1 3 9 4.80436 0.53668 1
2 -2 9 341.836 10.5181 -2
2 3 9 341.836 10.5181 1
3 -2 9 7.36391 2.1482 -2
3 3 9 7.36391 2.1482 1
4 -2 9 263.067 11.0069 -2
4 3 9 263.067 11.0069 1
5 -2 9 274.981 6.86681 -2
5 3 9 274.981 6.86681 1
6 -2 9 93.5875 2.98007 -2
6 3 9 93.5875 2.98007 1
7 -2 9 65.3349 2.91172 -2
7 3 9 65.3349 2.91172 1
8 -2 9 149.014 2.7114 -2
8 3 9 149.014 2.7114 1
9 -2 9 30.3135 1.71095 -2
9 3 9 30.3135 1.71095 1
-4 4 9 122.173 2.52634 1
-3 -4 9 13.8104 7.05887 -2
-3 4 9 13.8104 7.05887 1
-2 4 9 339.134 3.72753 1
-1 4 9 702.201 6.16966 1
0 4 9 17.8196 0.65625 1
1 -3 9 850.798 24.2019 -2
1 4 9 850.798 24.2019 1
2 -3 9 1047.85 47.5572 -2
2 4 9 1047.85 47.5572 1
3 -3 9 98.2027 3.16361 -2
3 4 9 98.2027 3.16361 1
4 -3 9 436.069 19.2307 -2
4 4 9 436.069 19.2307 1
5 -3 9 451.898 11.1012 -2
5 4 9 451.898 11.1012 1
6 -3 9 292.711 9.78795 -2
6 4 9 292.711 9.78795 1
7 -3 9 51.6981 3.10017 -2
7 4 9 51.6981 3.10017 1
8 -3 9 267.928 9.37453 -2
8 4 9 267.928 9.37453 1
-3 5 9 28.8954 1.26475 1
-2 5 9 18.4033 0.87694 1
-1 -4 9 390.377 13.0595 -2
-1 5 9 390.377 13.0595 1
0 5 9 262.354 3.67902 1
1 -4 9 427.617 15.7904 -2
1 5 9 427.617 15.7904 1
2 5 9 52.6475 1.07747 1
3 -4 9 163.11 18.8025 -2
3 5 9 163.11 18.8025 1
4 -4 9 484.993 21.1111 -2
4 5 9 484.993 21.1111 1
5 -4 9 548.073 13.2219 -2
5 5 9 548.073 13.2219 1
6 -4 9 273.446 9.59538 -2
6 5 9 273.446 9.59538 1
-3 6 9 28.2496 1.2567 1
-2 6 9 108.526 1.95755 1
-1 6 9 24.8024 0.97309 1
0 6 9 32.5988 1.231 1
1 6 9 130.874 2.02103 1
2 -5 9 367.832 30.61 -2
2 6 9 367.832 30.61 1
3 -5 9 60.0302 2.64277 -2
3 6 9 60.0302 2.64277 1
4 -5 9 118.68 9.39234 -2
4 6 9 118.68 9.39234 1
5 -5 9 180.068 3.9948 -2
5 6 9 180.068 3.9948 1
6 -5 9 78.0312 5.94891 -2
6 6 9 78.0312 5.94891 1
7 -5 9 4.87022 5.32522 -2
7 6 9 4.87022 5.32522 1
8 -5 9 31.2546 3.87554 -2
8 6 9 31.2546 3.87554 1
-2 7 9 136.348 2.22994 1
-1 7 9 2.2628 0.65394 1
0 -6 9 213.789 9.30475 -2
0 7 9 213.789 9.30475 1
1 -6 9 250.201 39.6322 -2
1 7 9 250.201 39.6322 1
2 -6 9 184.585 31.3263 -2
2 7 9 184.585 31.3263 1
3 -6 9 151.988 5.36581 -2
3 7 9 151.988 5.36581 1
4 -6 9 313.612 9.68978 -2
4 7 9 313.612 9.68978 1
5 -6 9 344.018 7.76511 -2
5 7 9 344.018 7.76511 1
6 -6 9 140.959 3.47932 -2
6 7 9 140.959 3.47932 1
7 -6 9 104.11 5.05416 -2
7 7 9 104.11 5.05416 1
-1 8 9 6.79227 1.00195 1
0 -7 9 152.483 8.37275 -2
0 8 9 152.483 8.37275 1
1 8 9 3.72692 0.72896 1
2 -7 9 -14.966 38.3202 -2
2 8 9 -14.966 38.3202 1
3 8 9 1.85252 1.02105 1
4 -7 9 24.8516 2.16113 -2
4 8 9 24.8516 2.16113 1
5 -7 9 15.9458 2.03754 -2
5 8 9 15.9458 2.03754 1
6 -7 9 27.4835 2.41904 -2
6 8 9 27.4835 2.41904 1
1 9 9 13.4896 1.04237 1
2 -8 9 12.9523 4.18758 -2
2 9 9 12.9523 4.18758 1
3 -8 9 -2.9388 3.52064 -2
3 9 9 -2.9388 3.52064 1
4 -8 9 1.35967 5.11891 -2
4 9 9 1.35967 5.11891 1
0 -7 10 5.73595 0.96141 1
1 8 10 152.72 4.92043 -2
1 -7 10 152.72 4.92043 1
2 8 10 46.2259 2.78188 -2
2 -7 10 46.2259 2.78188 1
3 8 10 -4.3156 3.38456 -2
3 -7 10 -4.3156 3.38456 1
4 8 10 55.8156 2.98749 -2
4 -7 10 55.8156 2.98749 1
5 -7 10 43.4532 1.73509 1
-1 -6 10 17.0369 1.01504 1
0 7 10 91.9748 5.34236 -2
0 -6 10 91.9748 5.34236 1
1 7 10 184.465 4.41341 -2
1 -6 10 184.465 4.41341 1
2 7 10 101.787 2.60085 -2
2 -6 10 101.787 2.60085 1
3 7 10 4.29608 2.14374 -2
3 -6 10 4.29608 2.14374 1
4 7 10 75.3487 2.65324 -2
4 -6 10 75.3487 2.65324 1
5 7 10 44.7543 2.78446 -2
5 -6 10 44.7543 2.78446 1
6 7 10 22.0966 2.57662 -2
6 -6 10 22.0966 2.57662 1
-2 -5 10 3.55132 0.94087 1
-1 6 10 157.881 8.81794 -2
-1 -5 10 157.881 8.81794 1
0 6 10 59.1643 4.92229 -2
0 -5 10 59.1643 4.92229 1
1 6 10 310.757 6.5552 -2
1 -5 10 310.757 6.5552 1
2 6 10 265.575 4.48559 -2
2 -5 10 265.575 4.48559 1
3 6 10 151.228 3.69108 -2
3 -5 10 151.228 3.69108 1
4 6 10 214.997 3.38434 -2
4 -5 10 214.997 3.38434 1
5 6 10 455.01 5.37956 -2
5 -5 10 455.01 5.37956 1
6 6 10 158.715 2.46714 -2
6 -5 10 158.715 2.46714 1
7 6 10 78.642 2.49095 -2
7 -5 10 78.642 2.49095 1
-2 -4 10 -0.4579 0.89209 1
-1 5 10 58.3041 4.89444 -2
-1 -4 10 58.3041 4.89444 1
0 5 10 -0.7046 3.54108 -2
0 -4 10 -0.7046 3.54108 1
1 5 10 80.5331 2.97516 -2
1 -4 10 80.5331 2.97516 1
2 5 10 263.845 5.62781 -2
2 -4 10 263.845 5.62781 1
3 5 10 228.331 3.06879 -2
3 -4 10 228.331 3.06879 1
4 5 10 107.502 2.092 -2
4 -4 10 107.502 2.092 1
5 5 10 360.779 4.34121 -2
5 -4 10 360.779 4.34121 1
6 5 10 161.693 2.74947 -2
6 -4 10 161.693 2.74947 1
7 5 10 16.3917 1.85743 -2
7 -4 10 16.3917 1.85743 1
-3 -3 10 5.6687 0.9758 1
-2 4 10 -3.4392 6.70456 -2
-2 -3 10 -3.4392 6.70456 1
-1 4 10 136.632 4.25603 -2
-1 -3 10 136.632 4.25603 1
0 4 10 38.9827 3.95457 -2
0 -3 10 38.9827 3.95457 1
1 4 10 198.395 4.79794 -2
1 -3 10 198.395 4.79794 1
2 4 10 321.761 4.36022 -2
2 -3 10 321.761 4.36022 1
3 4 10 71.943 2.10363 -2
3 -3 10 71.943 2.10363 1
4 4 10 251.459 3.58199 -2
4 -3 10 251.459 3.58199 1
5 4 10 349.529 5.2214 -2
5 -3 10 349.529 5.2214 1
6 4 10 170.498 3.23628 -2
6 -3 10 170.498 3.23628 1
7 4 10 57.1667 2.29859 -2
7 -3 10 57.1667 2.29859 1
8 4 10 164.984 2.77814 -2
8 -3 10 164.984 2.77814 1
-3 -2 10 63.6646 2.03231 1
-2 3 10 344.311 9.14338 -2
-2 -2 10 344.311 9.14338 1
-1 3 10 485.461 15.7957 -2
-1 -2 10 485.461 15.7957 1
0 3 10 224.988 5.36002 -2
0 -2 10 224.988 5.36002 1
1 3 10 835.894 10.5068 -2
1 -2 10 835.894 10.5068 1
2 3 10 686.97 11.1615 -2
2 -2 10 686.97 11.1615 1
3 3 10 212.162 3.36468 -2
3 -2 10 212.162 3.36468 1
4 3 10 342.517 4.95255 -2
4 -2 10 342.517 4.95255 1
5 3 10 516.515 6.78127 -2
5 -2 10 516.515 6.78127 1
6 3 10 252.027 3.89174 -2
6 -2 10 252.027 3.89174 1
7 3 10 50.5039 1.87874 -2
7 -2 10 50.5039 1.87874 1
8 3 10 257.548 5.21376 -2
8 -2 10 257.548 5.21376 1
-3 1 10 72.299 8.57312 -2
-3 -1 10 72.299 8.57312 1
-2 2 10 249.105 7.03754 -2
-2 -1 10 249.105 7.03754 1
-1 -1 10 24.0972 1.14952 1
0 2 10 49.7453 2.68031 -2
0 -1 10 49.7453 2.68031 1
1 2 10 156.982 4.13094 -2
1 -1 10 156.982 4.13094 1
2 2 10 267.645 4.02919 -2
2 -1 10 267.645 4.02919 1
3 2 10 31.9206 2.03543 -2
3 -1 10 31.9206 2.03543 1
4 2 10 135.369 2.67205 -2
4 -1 10 135.369 2.67205 1
5 2 10 64.6497 2.0393 -2
5 -1 10 64.6497 2.0393 1
6 2 10 10.0651 1.43062 -2
6 -1 10 10.0651 1.43062 1
7 2 10 2.57863 1.65394 -2
7 -1 10 2.57863 1.65394 1
8 2 10 16.7693 1.77787 -2
8 -1 10 16.7693 1.77787 1
-3 0 10 230.691 2.75488 1
-2 0 10 547.117 6.10315 1
-1 1 10 235.252 5.78432 -2
-1 0 10 235.252 5.78432 1
0 1 10 436.741 6.85245 -2
0 0 10 436.741 6.85245 1
1 1 10 593.421 12.5752 -2
1 0 10 593.421 12.5752 1
2 1 10 452.029 6.92677 -2
2 0 10 452.029 6.92677 1
3 1 10 81.379 2.02029 -2
3 0 10 81.379 2.02029 1
4 1 10 242.023 3.63835 -2
4 0 10 242.023 3.63835 1
5 1 10 268.369 3.5232 -2
5 0 10 268.369 3.5232 1
6 1 10 172.419 2.73908 -2
6 0 10 172.419 2.73908 1
7 1 10 57.9034 2.24328 -2
7 0 10 57.9034 2.24328 1
8 1 10 107.667 3.30381 -2
8 0 10 107.667 3.30381 1
9 1 10 89.8593 4.35653 -2
9 0 10 89.8593 4.35653 1
-3 0 10 285.639 12.246 -2
-3 1 10 285.639 12.246 1
-2 1 10 3.35325 0.65069 1
-1 0 10 240.386 7.54765 -2
-1 1 10 240.386 7.54765 1
0 0 10 414.648 6.54504 -2
0 1 10 414.648 6.54504 1
1 0 10 497.085 10.7875 -2
1 1 10 497.085 10.7875 1
2 0 10 427.693 6.80674 -2
2 1 10 427.693 6.80674 1
3 0 10 83.4756 2.19613 -2
3 1 10 83.4756 2.19613 1
4 0 10 213.364 3.34528 -2
4 1 10 213.364 3.34528 1
5 0 10 259.789 4.26382 -2
5 1 10 259.789 4.26382 1
6 0 10 194.173 4.4508 -2
6 1 10 194.173 4.4508 1
7 0 10 48.3564 3.56743 -2
7 1 10 48.3564 3.56743 1
8 0 10 120.76 3.26398 -2
8 1 10 120.76 3.26398 1
9 0 10 102.542 3.26921 -2
9 1 10 102.542 3.26921 1
-3 2 10 104.521 1.96187 1
-2 2 10 279.094 3.05838 1
-1 -1 10 325.398 7.65721 -2
-1 2 10 325.398 7.65721 1
0 -1 10 52.0654 2.83629 -2
0 2 10 52.0654 2.83629 1
1 -1 10 161.759 7.0091 -2
1 2 10 161.759 7.0091 1
2 -1 10 250.606 8.15765 -2
2 2 10 250.606 8.15765 1
3 -1 10 39.844 2.12264 -2
3 2 10 39.844 2.12264 1
4 -1 10 155.051 3.46251 -2
4 2 10 155.051 3.46251 1
5 -1 10 60.2905 1.85337 -2
5 2 10 60.2905 1.85337 1
6 -1 10 11.4323 1.27003 -2
6 2 10 11.4323 1.27003 1
7 -1 10 8.19953 2.59581 -2
7 2 10 8.19953 2.59581 1
8 -1 10 17.0388 2.05714 -2
8 2 10 17.0388 2.05714 1
-3 3 10 11.6792 0.9239 1
-2 3 10 21.5477 0.93684 1
-1 -2 10 499.423 14.4352 -2
-1 3 10 499.423 14.4352 1
0 -2 10 205.155 6.51594 -2
0 3 10 205.155 6.51594 1
1 3 10 204.791 2.64707 1
2 -2 10 686.276 13.0595 -2
2 3 10 686.276 13.0595 1
3 -2 10 215.877 3.93417 -2
3 3 10 215.877 3.93417 1
4 -2 10 302.157 6.06389 -2
4 3 10 302.157 6.06389 1
5 -2 10 528.546 7.53531 -2
5 3 10 528.546 7.53531 1
6 -2 10 279.529 4.48387 -2
6 3 10 279.529 4.48387 1
7 -2 10 47.1929 3.26736 -2
7 3 10 47.1929 3.26736 1
8 -2 10 282.744 5.77557 -2
8 3 10 282.744 5.77557 1
-2 4 10 0.84346 0.66115 1
-1 4 10 3.45938 0.55046 1
0 -3 10 42.3143 2.80949 -2
0 4 10 42.3143 2.80949 1
1 -3 10 189.574 9.24817 -2
1 4 10 189.574 9.24817 1
2 -3 10 268.141 8.56862 -2
2 4 10 268.141 8.56862 1
3 -3 10 61.1579 3.75227 -2
3 4 10 61.1579 3.75227 1
4 -3 10 205.839 4.26285 -2
4 4 10 205.839 4.26285 1
5 -3 10 277.38 4.51515 -2
5 4 10 277.38 4.51515 1
6 -3 10 152.195 5.38123 -2
6 4 10 152.195 5.38123 1
7 -3 10 66.7084 4.19393 -2
7 4 10 66.7084 4.19393 1
8 -3 10 140.138 5.24851 -2
8 4 10 140.138 5.24851 1
-2 5 10 13.0792 0.91571 1
-1 -4 10 72.5445 4.16829 -2
-1 5 10 72.5445 4.16829 1
0 -4 10 0.72676 1.72905 -2
0 5 10 0.72676 1.72905 1
1 -4 10 77.4439 3.39838 -2
1 5 10 77.4439 3.39838 1
2 -4 10 293.042 4.60998 -2
2 5 10 293.042 4.60998 1
3 -4 10 246.421 4.59383 -2
3 5 10 246.421 4.59383 1
4 -4 10 106.253 3.17534 -2
4 5 10 106.253 3.17534 1
5 -4 10 392.639 6.06278 -2
5 5 10 392.639 6.06278 1
6 -4 10 178.217 10.5165 -2
6 5 10 178.217 10.5165 1
7 -4 10 22.6626 4.2859 -2
7 5 10 22.6626 4.2859 1
-1 -5 10 139.387 4.47046 -2
-1 6 10 139.387 4.47046 1
0 -5 10 120.941 38.5676 -2
0 6 10 120.941 38.5676 1
1 -5 10 342.726 7.30203 -2
1 6 10 342.726 7.30203 1
2 -5 10 242.142 4.9557 -2
2 6 10 242.142 4.9557 1
3 -5 10 133.809 3.21151 -2
3 6 10 133.809 3.21151 1
4 -5 10 212.707 4.64035 -2
4 6 10 212.707 4.64035 1
5 -5 10 394.023 6.56683 -2
5 6 10 394.023 6.56683 1
6 -5 10 140.849 5.07862 -2
6 6 10 140.849 5.07862 1
7 -5 10 88.1867 4.58528 -2
7 6 10 88.1867 4.58528 1
0 -6 10 70.5906 44.0009 -2
0 7 10 70.5906 44.0009 1
1 -6 10 147.089 5.26843 -2
1 7 10 147.089 5.26843 1
2 -6 10 108.293 5.79198 -2
2 7 10 108.293 5.79198 1
3 -6 10 4.36384 1.96547 -2
3 7 10 4.36384 1.96547 1
4 -6 10 56.9076 2.51031 -2
4 7 10 56.9076 2.51031 1
5 -6 10 35.5652 2.02842 -2
5 7 10 35.5652 2.02842 1
6 -6 10 7.52897 2.10704 -2
6 7 10 7.52897 2.10704 1
1 -7 10 159.036 10.1646 -2
1 8 10 159.036 10.1646 1
2 -7 10 59.7575 4.57609 -2
2 8 10 59.7575 4.57609 1
3 -7 10 0.73055 2.63269 -2
3 8 10 0.73055 2.63269 1
4 -7 10 64.4894 2.97737 -2
4 8 10 64.4894 2.97737 1
1 -6 11 19.3919 1.20089 1
2 7 11 218.036 4.34262 -2
2 -6 11 218.036 4.34262 1
3 7 11 48.8741 2.93067 -2
3 -6 11 48.8741 2.93067 1
4 7 11 65.6508 2.75964 -2
4 -6 11 65.6508 2.75964 1
0 6 11 35.7725 3.19314 -2
0 -5 11 35.7725 3.19314 1
1 6 11 57.021 2.70884 -2
1 -5 11 57.021 2.70884 1
2 6 11 40.0718 2.15294 -2
2 -5 11 40.0718 2.15294 1
3 6 11 5.60886 2.79229 -2
3 -5 11 5.60886 2.79229 1
4 6 11 29.9264 2.14576 -2
4 -5 11 29.9264 2.14576 1
5 6 11 66.7377 2.02537 -2
5 -5 11 66.7377 2.02537 1
6 6 11 37.1903 2.18056 -2
6 -5 11 37.1903 2.18056 1
-1 5 11 25.9435 4.91612 -2
-1 -4 11 25.9435 4.91612 1
0 5 11 100.597 3.3806 -2
0 -4 11 100.597 3.3806 1
1 5 11 79.5249 2.74475 -2
1 -4 11 79.5249 2.74475 1
2 5 11 135.089 3.05921 -2
2 -4 11 135.089 3.05921 1
3 5 11 79.4684 1.99209 -2
3 -4 11 79.4684 1.99209 1
4 5 11 136.151 2.42485 -2
4 -4 11 136.151 2.42485 1
5 5 11 113.294 2.14044 -2
5 -4 11 113.294 2.14044 1
6 5 11 154.664 2.94601 -2
6 -4 11 154.664 2.94601 1
7 5 11 52.5432 2.19229 -2
7 -4 11 52.5432 2.19229 1
-1 4 11 55.9758 3.1237 -2
-1 -3 11 55.9758 3.1237 1
0 4 11 94.8841 3.60713 -2
0 -3 11 94.8841 3.60713 1
1 4 11 132.688 4.11187 -2
1 -3 11 132.688 4.11187 1
2 4 11 84.3114 1.86552 -2
2 -3 11 84.3114 1.86552 1
3 4 11 142.468 2.56964 -2
3 -3 11 142.468 2.56964 1
4 4 11 77.0013 1.56929 -2
4 -3 11 77.0013 1.56929 1
5 4 11 208.569 4.54405 -2
5 -3 11 208.569 4.54405 1
6 4 11 157.532 2.57919 -2
6 -3 11 157.532 2.57919 1
7 4 11 42.1412 1.71303 -2
7 -3 11 42.1412 1.71303 1
-2 3 11 34.2537 4.56328 -2
-2 -2 11 34.2537 4.56328 1
-1 3 11 50.166 3.50561 -2
-1 -2 11 50.166 3.50561 1
0 3 11 22.3794 3.81484 -2
0 -2 11 22.3794 3.81484 1
1 3 11 43.6291 3.19505 -2
1 -2 11 43.6291 3.19505 1
2 3 11 23.3811 1.51955 -2
2 -2 11 23.3811 1.51955 1
3 3 11 57.3649 1.48077 -2
3 -2 11 57.3649 1.48077 1
4 3 11 14.7273 1.853 -2
4 -2 11 14.7273 1.853 1
5 3 11 82.5657 2.12228 -2
5 -2 11 82.5657 2.12228 1
6 3 11 54.7653 1.87573 -2
6 -2 11 54.7653 1.87573 1
7 3 11 7.52903 2.49478 -2
7 -2 11 7.52903 2.49478 1
8 3 11 39.9446 5.69324 -2
8 -2 11 39.9446 5.69324 1
-2 2 11 259.008 5.67651 -2
-2 -1 11 259.008 5.67651 1
-1 2 11 255.86 4.78244 -2
-1 -1 11 255.86 4.78244 1
0 2 11 142.989 4.55253 -2
0 -1 11 142.989 4.55253 1
1 2 11 605.798 7.06731 -2
1 -1 11 605.798 7.06731 1
2 2 11 865.808 8.22819 -2
2 -1 11 865.808 8.22819 1
3 2 11 164.611 2.79354 -2
3 -1 11 164.611 2.79354 1
4 2 11 287.666 4.36713 -2
4 -1 11 287.666 4.36713 1
5 2 11 511.13 6.8841 -2
5 -1 11 511.13 6.8841 1
6 2 11 246.212 4.24077 -2
6 -1 11 246.212 4.24077 1
7 2 11 51.6651 1.79356 -2
7 -1 11 51.6651 1.79356 1
8 2 11 170.308 5.33149 -2
8 -1 11 170.308 5.33149 1
-2 1 11 286.378 6.31675 -2
-2 0 11 286.378 6.31675 1
-1 1 11 349.795 6.68565 -2
-1 0 11 349.795 6.68565 1
0 1 11 11.9153 2.27328 -2
0 0 11 11.9153 2.27328 1
1 1 11 491.468 6.42851 -2
1 0 11 491.468 6.42851 1
2 1 11 313.776 4.03974 -2
2 0 11 313.776 4.03974 1
3 1 11 156.551 2.62534 -2
3 0 11 156.551 2.62534 1
4 1 11 138.361 2.69223 -2
4 0 11 138.361 2.69223 1
5 1 11 350.029 5.41186 -2
5 0 11 350.029 5.41186 1
6 1 11 101.456 2.485 -2
6 0 11 101.456 2.485 1
7 1 11 13.2507 1.83846 -2
7 0 11 13.2507 1.83846 1
8 1 11 45.4472 2.02377 -2
8 0 11 45.4472 2.02377 1
-2 0 11 303.955 9.27494 -2
-2 1 11 303.955 9.27494 1
-1 0 11 387.422 6.36082 -2
-1 1 11 387.422 6.36082 1
0 0 11 4.76856 2.12378 -2
0 1 11 4.76856 2.12378 1
1 0 11 530.654 8.05999 -2
1 1 11 530.654 8.05999 1
2 0 11 357.942 5.63446 -2
2 1 11 357.942 5.63446 1
3 0 11 166.605 3.01985 -2
3 1 11 166.605 3.01985 1
4 0 11 153.661 2.48048 -2
4 1 11 153.661 2.48048 1
5 0 11 396.663 6.07189 -2
5 1 11 396.663 6.07189 1
6 0 11 109.226 2.97765 -2
6 1 11 109.226 2.97765 1
7 0 11 12.5912 1.68017 -2
7 1 11 12.5912 1.68017 1
8 0 11 51.1024 1.95791 -2
8 1 11 51.1024 1.95791 1
-2 -1 11 236.019 11.7704 -2
-2 2 11 236.019 11.7704 1
-1 -1 11 239.609 6.22529 -2
-1 2 11 239.609 6.22529 1
0 -1 11 165.959 3.07577 -2
0 2 11 165.959 3.07577 1
1 -1 11 533.736 8.37059 -2
1 2 11 533.736 8.37059 1
2 -1 11 801.172 7.82324 -2
2 2 11 801.172 7.82324 1
3 -1 11 182.152 2.99492 -2
3 2 11 182.152 2.99492 1
4 -1 11 243.344 4.23192 -2
4 2 11 243.344 4.23192 1
5 -1 11 473.007 8.44975 -2
5 2 11 473.007 8.44975 1
6 -1 11 250.521 4.34916 -2
6 2 11 250.521 4.34916 1
7 -1 11 53.1547 1.56416 -2
7 2 11 53.1547 1.56416 1
8 -1 11 166.034 3.12364 -2
8 2 11 166.034 3.12364 1
-2 3 11 30.3544 1.43983 1
-1 -2 11 62.3517 3.48209 -2
-1 3 11 62.3517 3.48209 1
0 -2 11 10.2271 1.94233 -2
0 3 11 10.2271 1.94233 1
1 -2 11 48.2765 2.03665 -2
1 3 11 48.2765 2.03665 1
2 -2 11 36.4933 1.7049 -2
2 3 11 36.4933 1.7049 1
3 -2 11 56.9126 1.82593 -2
3 3 11 56.9126 1.82593 1
4 -2 11 13.9568 1.70534 -2
4 3 11 13.9568 1.70534 1
5 -2 11 73.0334 2.42379 -2
5 3 11 73.0334 2.42379 1
6 -2 11 45.2072 2.10703 -2
6 3 11 45.2072 2.10703 1
7 -2 11 0.63079 2.10644 -2
7 3 11 0.63079 2.10644 1
8 -2 11 33.1228 3.33586 -2
8 3 11 33.1228 3.33586 1
-1 -3 11 42.5429 7.02184 -2
-1 4 11 42.5429 7.02184 1
0 -3 11 111.516 2.65425 -2
0 4 11 111.516 2.65425 1
1 -3 11 119.665 2.78285 -2
1 4 11 119.665 2.78285 1
2 -3 11 81.1596 2.19367 -2
2 4 11 81.1596 2.19367 1
3 -3 11 156.267 3.23652 -2
3 4 11 156.267 3.23652 1
4 -3 11 73.1885 2.28508 -2
4 4 11 73.1885 2.28508 1
5 -3 11 204.075 3.40002 -2
5 4 11 204.075 3.40002 1
6 -3 11 162.761 2.84624 -2
6 4 11 162.761 2.84624 1
7 -3 11 40.552 2.87281 -2
7 4 11 40.552 2.87281 1
-1 5 11 37.0332 1.74584 1
0 -4 11 93.0166 3.26811 -2
0 5 11 93.0166 3.26811 1
1 -4 11 84.0402 2.42581 -2
1 5 11 84.0402 2.42581 1
2 -4 11 148.029 2.73492 -2
2 5 11 148.029 2.73492 1
3 -4 11 67.4332 2.02941 -2
3 5 11 67.4332 2.02941 1
4 -4 11 147.459 3.18244 -2
4 5 11 147.459 3.18244 1
5 -4 11 111.552 2.679 -2
5 5 11 111.552 2.679 1
6 -4 11 117.013 3.43853 -2
6 5 11 117.013 3.43853 1
7 -4 11 57.0858 4.07663 -2
7 5 11 57.0858 4.07663 1
0 -5 11 26.493 3.39289 -2
0 6 11 26.493 3.39289 1
1 -5 11 51.341 2.42221 -2
1 6 11 51.341 2.42221 1
2 -5 11 45.0979 3.19057 -2
2 6 11 45.0979 3.19057 1
3 -5 11 0.63816 1.94701 -2
3 6 11 0.63816 1.94701 1
4 -5 11 26.7899 2.22109 -2
4 6 11 26.7899 2.22109 1
5 -5 11 69.4843 2.16352 -2
5 6 11 69.4843 2.16352 1
6 -5 11 45.6019 2.40036 -2
6 6 11 45.6019 2.40036 1
2 -6 11 235.328 4.10296 -2
2 7 11 235.328 4.10296 1
3 -6 11 65.2705 2.47127 -2
3 7 11 65.2705 2.47127 1
4 -6 11 69.6024 2.8064 -2
4 7 11 69.6024 2.8064 1
1 -4 12 3.39545 2.19478 1
2 5 12 13.6652 2.3305 -2
2 -4 12 13.6652 2.3305 1
3 5 12 9.48891 2.73845 -2
3 -4 12 9.48891 2.73845 1
4 5 12 7.82848 1.60793 -2
4 -4 12 7.82848 1.60793 1
5 5 12 4.57469 1.94954 -2
5 -4 12 4.57469 1.94954 1
1 4 12 103.728 3.53713 -2
1 -3 12 103.728 3.53713 1
2 4 12 103.136 2.55549 -2
2 -3 12 103.136 2.55549 1
3 4 12 20.4499 1.27365 -2
3 -3 12 20.4499 1.27365 1
4 4 12 66.6688 2.14547 -2
4 -3 12 66.6688 2.14547 1
5 4 12 31.5678 2.26958 -2
5 -3 12 31.5678 2.26958 1
6 4 12 22.967 1.60768 -2
6 -3 12 22.967 1.60768 1
0 3 12 65.8909 3.84406 -2
0 -2 12 65.8909 3.84406 1
1 3 12 194.684 4.02459 -2
1 -2 12 194.684 4.02459 1
2 3 12 344.352 3.8962 -2
2 -2 12 344.352 3.8962 1
3 3 12 131.3 1.80052 -2
3 -2 12 131.3 1.80052 1
4 3 12 124.552 2.483 -2
4 -2 12 124.552 2.483 1
5 3 12 248.607 3.43245 -2
5 -2 12 248.607 3.43245 1
6 3 12 176.069 2.70416 -2
6 -2 12 176.069 2.70416 1
0 2 12 40.9732 2.83063 -2
0 -1 12 40.9732 2.83063 1
1 2 12 136.046 2.36548 -2
1 -1 12 136.046 2.36548 1
2 2 12 145.917 2.53113 -2
2 -1 12 145.917 2.53113 1
3 2 12 19.3187 1.95188 -2
3 -1 12 19.3187 1.95188 1
4 2 12 24.0741 1.81652 -2
4 -1 12 24.0741 1.81652 1
5 2 12 132.672 3.00895 -2
5 -1 12 132.672 3.00895 1
6 2 12 91.2916 2.19587 -2
6 -1 12 91.2916 2.19587 1
7 2 12 8.9028 2.66902 -2
7 -1 12 8.9028 2.66902 1
0 1 12 41.0107 2.8132 -2
0 0 12 41.0107 2.8132 1
1 1 12 237.146 3.0474 -2
1 0 12 237.146 3.0474 1
2 1 12 449.39 5.94616 -2
2 0 12 449.39 5.94616 1
3 1 12 203.221 3.2404 -2
3 0 12 203.221 3.2404 1
4 1 12 114.897 2.10057 -2
4 0 12 114.897 2.10057 1
5 1 12 440.039 8.02419 -2
5 0 12 440.039 8.02419 1
6 1 12 316.957 7.60966 -2
6 0 12 316.957 7.60966 1
7 1 12 19.4464 2.16908 -2
7 0 12 19.4464 2.16908 1
0 0 12 41.7918 1.89248 -2
0 1 12 41.7918 1.89248 1
1 0 12 223.886 3.02939 -2
1 1 12 223.886 3.02939 1
2 0 12 417.962 6.99962 -2
2 1 12 417.962 6.99962 1
3 0 12 180.663 3.1308 -2
3 1 12 180.663 3.1308 1
4 0 12 119.264 3.20239 -2
4 1 12 119.264 3.20239 1
5 0 12 413.961 7.34065 -2
5 1 12 413.961 7.34065 1
6 0 12 283.825 5.65609 -2
6 1 12 283.825 5.65609 1
7 0 12 21.4946 1.77459 -2
7 1 12 21.4946 1.77459 1
0 -1 12 50.4501 2.11586 -2
0 2 12 50.4501 2.11586 1
1 -1 12 153.751 2.67882 -2
1 2 12 153.751 2.67882 1
2 -1 12 172.493 2.80096 -2
2 2 12 172.493 2.80096 1
3 -1 12 28.1531 1.46091 -2
3 2 12 28.1531 1.46091 1
4 -1 12 29.5782 1.49637 -2
4 2 12 29.5782 1.49637 1
5 -1 12 145.581 2.49618 -2
5 2 12 145.581 2.49618 1
6 -1 12 87.7488 2.07268 -2
6 2 12 87.7488 2.07268 1
7 -1 12 4.02857 1.39316 -2
7 2 12 4.02857 1.39316 1
0 -2 12 80.8547 1.91269 -2
0 3 12 80.8547 1.91269 1
1 -2 12 206.889 3.19854 -2
1 3 12 206.889 3.19854 1
2 -2 12 302.029 3.89509 -2
2 3 12 302.029 3.89509 1
3 -2 12 121.126 2.62119 -2
3 3 12 121.126 2.62119 1
4 -2 12 137.43 3.31793 -2
4 3 12 137.43 3.31793 1
5 -2 12 227.086 4.25837 -2
5 3 12 227.086 4.25837 1
6 -2 12 161.657 2.93229 -2
6 3 12 161.657 2.93229 1
1 -3 12 90.6152 2.42732 -2
1 4 12 90.6152 2.42732 1
2 -3 12 89.6047 2.09111 -2
2 4 12 89.6047 2.09111 1
3 -3 12 24.4451 1.804 -2
3 4 12 24.4451 1.804 1
4 -3 12 53.6382 2.83794 -2
4 4 12 53.6382 2.83794 1
5 -3 12 25.7481 1.79046 -2
5 4 12 25.7481 1.79046 1
6 -3 12 18.9613 1.54424 -2
6 4 12 18.9613 1.54424 1
2 -4 12 11.107 1.95696 -2
2 5 12 11.107 1.95696 1
3 -4 12 0.71301 2.2512 -2
3 5 12 0.71301 2.2512 1
4 -4 12 1.53993 2.11195 -2
4 5 12 1.53993 2.11195 1
5 -4 12 7.88922 1.83118 -2
5 5 12 7.88922 1.83118 1
3 2 13 141.17 2.8633 -2
3 -1 13 141.17 2.8633 1
4 2 13 51.5005 1.8524 -2
4 -1 13 51.5005 1.8524 1
2 1 13 105.178 2.8689 -2
2 0 13 105.178 2.8689 1
3 1 13 68.4962 2.13511 -2
3 0 13 68.4962 2.13511 1
4 1 13 13.0807 1.38195 -2
4 0 13 13.0807 1.38195 1
5 1 13 138.938 3.64026 -2
5 0 13 138.938 3.64026 1
2 0 13 117.278 2.69821 -2
2 1 13 117.278 2.69821 1
3 0 13 72.6972 2.07337 -2
3 1 13 72.6972 2.07337 1
4 0 13 12.2233 1.66609 -2
4 1 13 12.2233 1.66609 1
5 0 13 151.592 3.76292 -2
5 1 13 151.592 3.76292 1
3 -1 13 131.877 2.34383 -2
3 2 13 131.877 2.34383 1
4 -1 13 62.7041 2.43842 -2
4 2 13 62.7041 2.43842 1
5 -1 13 186.625 7.95988 -2
5 2 13 186.625 7.95988 1
loop_
_twin_individual_id
_twin_individual_mass_fraction_refined
1 0.5206(13)
2 0.4794(13)
