#------------------------------------------------------------------------------
#$Date: 2019-11-24 12:26:56 +0200 (Sun, 24 Nov 2019) $
#$Revision: 237902 $
#$URL: file:///home/coder/svn-repositories/cod/cif/4/08/89/4088964.cif $
#------------------------------------------------------------------------------
#
# This file is available in the Crystallography Open Database (COD),
# http://www.crystallography.net/
#
# All data on this site have been placed in the public domain by the
# contributors.
#
data_4088964
loop_
_publ_author_name
'Brown, Loren C.'
'Ressegue, Emily'
'Merola, Joseph S.'
_publ_section_title
;
 Rapid Access to Derivatized, Dimeric, Ring-Substituted
 Dichloro(cyclopentadienyl)rhodium(III) and Iridium(III) Complexes
;
_journal_issue                   24
_journal_name_full               Organometallics
_journal_page_first              4014
_journal_paper_doi               10.1021/acs.organomet.6b00580
_journal_volume                  35
_journal_year                    2016
_chemical_formula_moiety         'C24 H38 Cl4 Rh2, 2(C H2 Cl2)'
_chemical_formula_sum            'C26 H42 Cl8 Rh2'
_chemical_formula_weight         844.01
_space_group_crystal_system      triclinic
_space_group_IT_number           2
_space_group_name_Hall           '-P 1'
_space_group_name_H-M_alt        'P -1'
_atom_sites_solution_hydrogens   geom
_audit_creation_date             2015-12-07
_audit_creation_method
;
Olex2 1.2
(compiled 2015.09.30 svn.r3233 for OlexSys, GUI svn.r5103)
;
_cell_angle_alpha                81.339(5)
_cell_angle_beta                 84.115(5)
_cell_angle_gamma                71.983(6)
_cell_formula_units_Z            1
_cell_length_a                   8.7683(5)
_cell_length_b                   9.0638(6)
_cell_length_c                   10.9372(6)
_cell_measurement_reflns_used    5393
_cell_measurement_temperature    100.00(10)
_cell_measurement_theta_max      31.9010
_cell_measurement_theta_min      4.2440
_cell_volume                     815.73(9)
_computing_cell_refinement
;
CrysAlisPro, Agilent Technologies,
Version 1.171.37.35 (release 13-08-2014 CrysAlis171 .NET)
(compiled Aug 13 2014,18:06:01)
;
_computing_data_collection
;
CrysAlisPro, Agilent Technologies,
Version 1.171.37.35 (release 13-08-2014 CrysAlis171 .NET)
(compiled Aug 13 2014,18:06:01)
;
_computing_data_reduction
;
CrysAlisPro, Agilent Technologies,
Version 1.171.37.35 (release 13-08-2014 CrysAlis171 .NET)
(compiled Aug 13 2014,18:06:01)
;
_computing_molecular_graphics    'Olex2 (Dolomanov et al., 2009)'
_computing_publication_material  'Olex2 (Dolomanov et al., 2009)'
_computing_structure_refinement  'ShelXL (Sheldrick, 2015)'
_computing_structure_solution    'ShelXT (Sheldrick, 2015)'
_diffrn_ambient_environment      N~2~
_diffrn_ambient_temperature      100.00(10)
_diffrn_detector                 'CCD plate'
_diffrn_detector_area_resol_mean 8.0061
_diffrn_detector_type            Eos
_diffrn_measured_fraction_theta_full 0.997
_diffrn_measured_fraction_theta_max 0.907
_diffrn_measurement_details
;
#__ type_ start__ end____ width___ exp.time_
  1 omega  -53.00   38.00   1.0000    4.0000
omega____ theta____ kappa____ phi______ frames
    -      -29.5315   57.0000  -30.0000 91

#__ type_ start__ end____ width___ exp.time_
  2 omega  -88.00    5.00   1.0000    4.0000
omega____ theta____ kappa____ phi______ frames
    -      -29.5315  123.0000   70.0000 93

#__ type_ start__ end____ width___ exp.time_
  3 omega  -48.00   35.00   1.0000    4.0000
omega____ theta____ kappa____ phi______ frames
    -      -29.5315   38.0000   90.0000 83

#__ type_ start__ end____ width___ exp.time_
  4 omega  -94.00  -68.00   1.0000    4.0000
omega____ theta____ kappa____ phi______ frames
    -      -29.5315  -77.0000  -60.0000 26

#__ type_ start__ end____ width___ exp.time_
  5 omega  -24.00    3.00   1.0000    4.0000
omega____ theta____ kappa____ phi______ frames
    -      -29.5315  -77.0000  -60.0000 27

#__ type_ start__ end____ width___ exp.time_
  6 omega -100.00   -6.00   1.0000    4.0000
omega____ theta____ kappa____ phi______ frames
    -      -29.5315  -57.0000 -180.0000 94

#__ type_ start__ end____ width___ exp.time_
  7 omega -100.00  -71.00   1.0000    4.0000
omega____ theta____ kappa____ phi______ frames
    -      -29.5315  -57.0000  -60.0000 29

#__ type_ start__ end____ width___ exp.time_
  8 omega -100.00   -6.00   1.0000    4.0000
omega____ theta____ kappa____ phi______ frames
    -      -29.5315  -57.0000   30.0000 94
;
_diffrn_measurement_device       'four-circle diffractometer'
_diffrn_measurement_device_type  'Xcalibur, Eos, Gemini ultra'
_diffrn_measurement_method       '\w scans'
_diffrn_orient_matrix_UB_11      -0.0378774000
_diffrn_orient_matrix_UB_12      0.0272743000
_diffrn_orient_matrix_UB_13      0.0562563000
_diffrn_orient_matrix_UB_21      0.0627266000
_diffrn_orient_matrix_UB_22      -0.0555267000
_diffrn_orient_matrix_UB_23      0.0333022000
_diffrn_orient_matrix_UB_31      0.0435022000
_diffrn_orient_matrix_UB_32      0.0552574000
_diffrn_orient_matrix_UB_33      -0.0066991000
_diffrn_radiation_monochromator  graphite
_diffrn_radiation_probe          x-ray
_diffrn_radiation_type           MoK\a
_diffrn_radiation_wavelength     0.71073
_diffrn_reflns_av_R_equivalents  0.0403
_diffrn_reflns_av_unetI/netI     0.0630
_diffrn_reflns_Laue_measured_fraction_full 0.997
_diffrn_reflns_Laue_measured_fraction_max 0.907
_diffrn_reflns_limit_h_max       12
_diffrn_reflns_limit_h_min       -12
_diffrn_reflns_limit_k_max       13
_diffrn_reflns_limit_k_min       -13
_diffrn_reflns_limit_l_max       16
_diffrn_reflns_limit_l_min       -15
_diffrn_reflns_number            10558
_diffrn_reflns_point_group_measured_fraction_full 0.997
_diffrn_reflns_point_group_measured_fraction_max 0.907
_diffrn_reflns_theta_full        30.000
_diffrn_reflns_theta_max         32.446
_diffrn_reflns_theta_min         3.664
_diffrn_source                   'Enhance (Mo) X-ray Source'
_exptl_absorpt_coefficient_mu    1.683
_exptl_absorpt_correction_T_max  0.895
_exptl_absorpt_correction_T_min  0.649
_exptl_absorpt_correction_type   analytical
_exptl_absorpt_process_details
;
CrysAlisPro, Agilent Technologies,
Version 1.171.37.35 (release 13-08-2014 CrysAlis171 .NET)
(compiled Aug 13 2014,18:06:01)
Analytical numeric absorption correction using a multifaceted crystal
			model based on expressions derived by R.C. Clark & J.S. Reid.
(Clark, R. C. & Reid, J. S. (1995). Acta Cryst. A51, 887-897)
Empirical absorption correction using spherical harmonics,
 implemented in SCALE3 ABSPACK scaling algorithm.
;
_exptl_crystal_colour            violet
_exptl_crystal_colour_primary    violet
_exptl_crystal_density_diffrn    1.718
_exptl_crystal_description       block
_exptl_crystal_F_000             424
_exptl_crystal_size_max          0.4101
_exptl_crystal_size_mid          0.1635
_exptl_crystal_size_min          0.1034
_refine_diff_density_max         0.931
_refine_diff_density_min         -0.821
_refine_diff_density_rms         0.140
_refine_ls_extinction_method     none
_refine_ls_goodness_of_fit_ref   1.043
_refine_ls_hydrogen_treatment    constr
_refine_ls_matrix_type           full
_refine_ls_number_parameters     168
_refine_ls_number_reflns         5333
_refine_ls_number_restraints     0
_refine_ls_restrained_S_all      1.043
_refine_ls_R_factor_all          0.0437
_refine_ls_R_factor_gt           0.0354
_refine_ls_shift/su_max          0.001
_refine_ls_shift/su_mean         0.000
_refine_ls_structure_factor_coef Fsqd
_refine_ls_weighting_details
'w=1/[\s^2^(Fo^2^)+(0.0171P)^2^+0.0299P] where P=(Fo^2^+2Fc^2^)/3'
_refine_ls_weighting_scheme      calc
_refine_ls_wR_factor_gt          0.0654
_refine_ls_wR_factor_ref         0.0702
_reflns_Friedel_coverage         0.000
_reflns_number_gt                4636
_reflns_number_total             5333
_reflns_threshold_expression     'I > 2\s(I)'
_cod_data_source_file            om6b00580_si_002.cif
_cod_data_source_block           3b_lbx-017abs
_cod_database_code               4088964
_chemical_oxdiff_formula         'C13 H21 Cl4 Rh'
_shelx_space_group_comment
;
The symmetry employed for this shelxl refinement is uniquely defined
by the following loop, which should always be used as a source of
symmetry information in preference to the above space-group names.
They are only intended as comments.
;
_olex2_refinement_description
;
1. Others
 Fixed Uiso: H6A(0.022) H6B(0.022) H6C(0.022) H7A(0.021) H7B(0.021) H7C(0.021)
 H8A(0.022) H8B(0.022) H8C(0.022) H9A(0.022) H9B(0.022) H9C(0.022) H10A(0.017)
 H10B(0.017) H11A(0.022) H11B(0.022) H12A(0.04) H12B(0.04) H12C(0.04)
 H13A(0.045) H13B(0.045)
 Fixed X: H6A(0.6236) H6B(0.5452) H6C(0.7198) H7A(0.9063) H7B(0.7427)
 H7C(0.7373) H8A(1.0488) H8B(0.8837) H8C(0.9404) H9A(0.997) H9B(0.8301)
 H9C(0.8482) H10A(0.5883) H10B(0.673) H11A(0.8375) H11B(0.9205) H12A(0.6648)
 H12B(0.7478) H12C(0.8486) H13A(0.3888) H13B(0.2586)
 Fixed Y: H6A(-0.095) H6B(-0.039) H6C(-0.1639) H7A(0.0208) H7B(0.1559) H7C(-
 0.0128) H8A(0.3072) H8B(0.4427) H8C(0.3004) H9A(0.3251) H9B(0.3668)
 H9C(0.4675) H10A(0.0932) H10B(0.2163) H11A(-0.1108) H11B(0.0128) H12A(-0.0694)
 H12B(0.054) H12C(-0.1269) H13A(0.4777) H13B(0.3845)
 Fixed Z: H6A(0.5604) H6B(0.6906) H6C(0.6833) H7A(0.3499) H7B(0.319)
 H7C(0.3845) H8A(0.459) H8B(0.4334) H8C(0.3521) H9A(0.7214) H9B(0.8024)
 H9C(0.6713) H10A(0.8559) H10B(0.8847) H11A(0.8787) H11B(0.9096) H12A(1.061)
 H12B(1.0918) H12C(1.096) H13A(0.8605) H13B(0.8757)
;
_shelx_res_file
;
    lbx-017abs.res created by SHELXL-2014/7

TITL lbx-017abs_a.res in P-1
REM Old TITL LBX-017ABS in P-1 #2
REM SHELXT solution in P-1
REM R1 0.064, Rweak 0.008, Alpha 0.042, Orientation as input
REM Formula found by SHELXT: C13 Cl4 Rh
CELL 0.71073 8.7683 9.063842 10.93718 81.3394 84.115 71.9829
ZERR 1 0.000539 0.000598 0.000564 0.0049 0.0046 0.0057
LATT 1
SFAC C H Cl Rh
UNIT 26 42 8 2

L.S. 4 0 0
PLAN  20
TEMP -173
BOND $H
LIST 6
MORE -1
CONF
fmap 2 53
acta 60
REM <olex2.extras>
REM <HklSrc "%.\\LBX-017ABS.hkl">
REM </olex2.extras>

WGHT    0.017100    0.029900
FVAR       0.70225
C1    1    0.720444    0.059007    0.617588    11.00000    0.00772    0.00693 =
         0.01417    0.00018   -0.00261    0.00126
C2    1    0.787404    0.118485    0.503055    11.00000    0.00883    0.00894 =
         0.01251   -0.00264   -0.00066    0.00002
C3    1    0.850584    0.240542    0.525900    11.00000    0.00789    0.00788 =
         0.01013    0.00043   -0.00053    0.00093
C4    1    0.825420    0.254028    0.655490    11.00000    0.00603    0.00996 =
         0.01165    0.00034   -0.00131   -0.00022
C5    1    0.739452    0.146476    0.712685    11.00000    0.00938    0.00942 =
         0.00930    0.00053   -0.00083   -0.00003
C6    1    0.645832   -0.070898    0.639889    11.00000    0.01285    0.00997 =
         0.01998   -0.00109   -0.00033   -0.00201
AFIX 137
H6A   2    0.623582   -0.095027    0.560388    11.00000   -1.50000
H6B   2    0.545202   -0.038999    0.690646    11.00000   -1.50000
H6C   2    0.719759   -0.163897    0.683264    11.00000   -1.50000
AFIX   0
C7    1    0.793990    0.066047    0.378309    11.00000    0.01519    0.01323 =
         0.01219   -0.00441    0.00138   -0.00185
AFIX 137
H7A   2    0.906311    0.020779    0.349919    11.00000   -1.50000
H7B   2    0.742655    0.155914    0.319032    11.00000   -1.50000
H7C   2    0.737305   -0.012790    0.384526    11.00000   -1.50000
AFIX   0
C8    1    0.938448    0.330493    0.434736    11.00000    0.01337    0.01689 =
         0.01459    0.00105    0.00026   -0.00620
AFIX 137
H8A   2    1.048781    0.307223    0.458999    11.00000   -1.50000
H8B   2    0.883731    0.442729    0.433441    11.00000   -1.50000
H8C   2    0.940382    0.300444    0.352054    11.00000   -1.50000
AFIX   0
C9    1    0.879830    0.362663    0.718012    11.00000    0.01224    0.01640 =
         0.01589   -0.00356   -0.00217   -0.00506
AFIX 137
H9A   2    0.996994    0.325084    0.721434    11.00000   -1.50000
H9B   2    0.830080    0.366784    0.802354    11.00000   -1.50000
H9C   2    0.848164    0.467494    0.671326    11.00000   -1.50000
AFIX   0
C10   1    0.690909    0.119104    0.847133    11.00000    0.01402    0.01854 =
         0.01035    0.00136   -0.00020   -0.00544
AFIX  23
H10A  2    0.588303    0.093183    0.855901    11.00000   -1.20000
H10B  2    0.673000    0.216312    0.884710    11.00000   -1.20000
AFIX   0
C11   1    0.818306   -0.013731    0.916793    11.00000    0.01330    0.02313 =
         0.01672    0.00683   -0.00521   -0.00493
AFIX  23
H11A  2    0.837504   -0.110812    0.878742    11.00000   -1.20000
H11B  2    0.920517    0.012774    0.909554    11.00000   -1.20000
AFIX   0
C12   1    0.765091   -0.041514    1.053707    11.00000    0.02632    0.03966 =
         0.01470    0.01103   -0.00574   -0.01498
AFIX 137
H12A  2    0.664815   -0.069407    1.061009    11.00000   -1.50000
H12B  2    0.747805    0.053993    1.091797    11.00000   -1.50000
H12C  2    0.848556   -0.126931    1.096041    11.00000   -1.50000
AFIX   0
CL1   3    0.337921    0.276234    0.646760    11.00000    0.00982    0.01159 =
         0.01678   -0.00166    0.00124   -0.00351
CL2   3    0.507477    0.572182    0.626454    11.00000    0.01333    0.00867 =
         0.01049   -0.00131   -0.00281   -0.00085
RH1   4    0.597611    0.303519    0.575552    11.00000    0.00717    0.00737 =
         0.00865   -0.00033   -0.00071   -0.00124

C13   1    0.298167    0.456554    0.914411    11.00000    0.06248    0.02619 =
         0.01744   -0.00370   -0.00118   -0.00551
AFIX  23
H13A  2    0.388825    0.477713    0.860536    11.00000   -1.20000
H13B  2    0.258618    0.384451    0.875713    11.00000   -1.20000
AFIX   0
CL3   3    0.144011    0.631959    0.923788    11.00000    0.05281    0.03867 =
         0.02469   -0.00168   -0.00718    0.00663
CL4   3    0.367874    0.365044    1.061550    11.00000    0.04096    0.02663 =
         0.02124   -0.00107    0.00202    0.00077
HKLF 4

REM  lbx-017abs_a.res in P-1
REM R1 =  0.0354 for    4636 Fo > 4sig(Fo)  and  0.0437 for all    5333 data
REM    168 parameters refined using      0 restraints

END

WGHT      0.0171      0.0299

REM Highest difference peak  0.931,  deepest hole -0.821,  1-sigma level  0.140
Q1    1   0.1130  0.5534  0.9165  11.00000  0.05    0.93
Q2    1   0.6207  0.3769  0.6003  11.00000  0.05    0.76
Q3    1   0.5843  0.2426  0.5422  11.00000  0.05    0.72
Q4    1   0.7827  0.0002  0.9801  11.00000  0.05    0.71
Q5    1   0.8007  0.1948  0.6972  11.00000  0.05    0.69
Q6    1   0.7568  0.0849  0.5627  11.00000  0.05    0.64
Q7    1   0.6753  0.2443  0.5910  11.00000  0.05    0.64
Q8    1   0.5264  0.3657  0.5526  11.00000  0.05    0.61
Q9    1   0.7708  0.0605  0.4536  11.00000  0.05    0.57
Q10   1   0.9024  0.2744  0.4737  11.00000  0.05    0.55
Q11   1   0.5650  0.2836  0.6413  11.00000  0.05    0.55
Q12   1   0.5157  0.1943  0.6651  11.00000  0.05    0.54
Q13   1   0.7215  0.0769  0.6754  11.00000  0.05    0.54
Q14   1   0.5421  0.1402  0.5749  11.00000  0.05    0.53
Q15   1   0.5996  0.2362  0.2591  11.00000  0.05    0.53
Q16   1   1.1732  0.3232  0.4246  11.00000  0.05    0.52
Q17   1   0.3763  0.3370  0.6369  11.00000  0.05    0.52
Q18   1   0.6900  0.2386  0.6603  11.00000  0.05    0.51
Q19   1   0.2598  0.6988  0.8859  11.00000  0.05    0.51
Q20   1   0.6955 -0.0037  0.6200  11.00000  0.05    0.50
;
_shelx_res_checksum              5284
_shelx_hkl_file
;
   0   0  -2 4500.33  107.50
   0   0   2 4325.54  107.16
   0   0   2 4618.23  107.94
   0   0   3 2114.55   62.80
   0   0   3 2276.21   62.70
   0   0  -3 2094.88   62.31
   0   0   4 4890.90  130.95
   0   0  -4 5024.59  130.54
   0   0   4 5119.42  130.05
   0   0   5  115.65   13.69
   0   0   5  106.67   12.49
   0   0  -5   92.96   12.34
   0   0   6 2491.03   81.93
   0   0   6 2295.07   82.15
   0   0  -6 2356.91   81.97
   0   0   7  142.21   18.51
   0   0  -7  161.20   18.91
   0   0   7  167.14   18.63
   0   0   8  727.83   43.32
   0   0   8  686.98   44.12
   0   0  -8  687.96   43.72
   0   0   9   60.74   14.31
   0   0   9   57.80   13.07
   0   0  -9   64.69   14.16
   0   0 -10  195.56   25.88
   0   0  10  180.27   23.51
   0   0  10  145.55   22.67
   0   0  11   21.97    9.25
   0   0 -11   18.82    8.06
   0   0  11   12.34    8.70
   0   0  12  214.78   28.75
   0   0  12  226.60   30.88
   0   0 -12  235.06   31.97
   0   0 -13  119.52   23.52
   0   0  13  172.93   27.50
   0   0  13  169.00   27.95
   0   0  14 1511.35   91.30
   0   0 -14 1291.86   86.32
   0   0 -15  237.47   37.34
   0   0  15  263.67   38.89
   0   0  16   71.38   20.95
   0  -1  16  214.02   36.09
   0   1 -15  406.93   48.21
   0  -1  15  359.24   45.34
   0  -1  14   13.62   12.17
   0   1 -14    3.31    7.00
   0   1 -13    0.92    6.16
   0  -1  13   -4.43    7.74
   0  -1  13    0.17    5.67
   0  -1  12  774.95   55.44
   0  -1  12  814.95   60.80
   0   1 -12  740.39   57.08
   0   1 -11  171.97   25.30
   0  -1  11  203.49   26.41
   0  -1  11  176.90   26.60
   0  -1  10  768.08   53.48
   0   1 -10  802.95   52.96
   0  -1  10  764.05   49.65
   0  -1   9   69.81   13.72
   0   1  -9   79.87   15.46
   0  -1   9  102.81   17.96
   0  -1   8   -1.76    6.00
   0  -1   8   -3.07    5.07
   0   1  -8   -4.17    5.30
   0  -1   7    2.02    4.23
   0  -1   7    0.24    4.73
   0   1  -7    4.87    5.83
   0  -1   6 2507.78   86.72
   0  -1   6 2609.66   84.52
   0   1  -6 2480.75   84.08
   0   1  -5   99.24   12.20
   0  -1   5  124.24   14.38
   0  -1   5  110.97   12.60
   0  -1   4 3561.73   95.61
   0  -1   4 3611.15   97.56
   0  -1   4 3596.56  100.63
   0   1  -4 3436.67   96.56
   0  -1   3  817.78   32.77
   0  -1   3  771.23   29.92
   0   1  -3  773.28   29.64
   0  -1   3  815.07   30.81
   0   1  -2 2539.89   65.09
   0  -1   2 2647.16   65.81
   0   1  -2 2538.25   69.58
   0  -1  -2 8178.51  181.74
   0   1   2 8078.50  183.49
   0   1   2 7394.12  181.21
   0   1   3   45.23    7.48
   0   1   3   66.01    8.22
   0  -1  -3   47.00    7.25
   0   1   4 1452.30   51.70
   0   1   4 1407.65   51.23
   0  -1  -4 1374.95   50.53
   0   1   5   56.98    9.75
   0  -1  -5   40.04    8.68
   0   1   5   37.46    8.45
   0   1   6   26.95    7.69
   0  -1  -6   25.11    8.32
   0   1   6   17.57    5.86
   0   1   7    5.33    5.31
   0   1   7    5.74    3.78
   0  -1  -7   23.87    8.51
   0   1   8  997.33   54.82
   0  -1  -8 1057.01   56.21
   0   1   8 1097.33   56.10
   0   1   9  133.63   19.84
   0  -1  -9  156.55   21.71
   0   1   9   97.34   17.09
   0   1  10 1346.68   71.48
   0  -1 -10 1306.89   71.29
   0   1  10 1287.62   69.56
   0  -1 -11  441.73   41.89
   0   1  11  439.58   40.47
   0   1  11  465.61   42.16
   0   1  12  328.18   37.27
   0  -1 -12  319.62   37.35
   0   1  12  260.65   32.65
   0  -1 -13   21.69   10.99
   0   1  13   32.11   12.72
   0   1  13   17.49   10.66
   0   1  14  568.29   53.31
   0   1  14  655.54   58.04
   0  -1 -14  498.28   52.38
   0  -1 -15  624.19   61.24
   0   1  15  716.46   63.93
   0   1  16  791.30   70.31
   0   2 -15  256.66   37.48
   0  -2  15  240.21   37.59
   0  -2  14  749.84   65.37
   0   2 -14  804.02   64.60
   0   2 -13 1167.20   75.87
   0  -2  13 1194.27   80.11
   0  -2  12   -6.69    7.91
   0   2 -12   -1.92    8.57
   0  -2  12    0.81    4.65
   0  -2  11   33.94   13.05
   0   2 -11   28.34   11.76
   0  -2  11   10.68    6.89
   0  -2  10 1780.70   79.53
   0   2 -10 1554.45   77.18
   0  -2  10 1568.17   81.74
   0  -2   9 1001.96   54.60
   0   2  -9 1015.84   55.84
   0  -2   9  869.34   55.51
   0  -2   8 1151.35   61.02
   0   2  -8 1120.41   56.77
   0  -2   8 1243.01   58.25
   0   2  -7 1089.21   51.84
   0  -2   7 1137.96   52.70
   0  -2   7 1146.11   57.20
   0  -2   6   71.84   12.85
   0  -2   6   53.41    9.95
   0  -2   6   86.80   12.23
   0   2  -6   81.89   12.02
   0   2  -5  327.88   22.10
   0  -2   5  390.71   24.71
   0  -2   5  324.45   25.03
   0  -2   5  354.76   23.52
   0   2  -4 1980.00   68.72
   0   2  -4 1889.76   60.07
   0  -2   4 1983.38   63.63
   0  -2   4 2004.66   64.68
   0   2  -3   59.07    6.77
   0   2  -3   60.60    9.07
   0  -2   3   47.98    6.91
   0   2  -2 4231.09   98.03
   0  -2   2 4131.26  104.88
   0   2  -2 4059.50  109.52
   0   2  -1 2797.93   76.91
   0   2   0 1298.84   42.54
   0  -2   0 1414.12   43.20
   0   2   1 4293.91  105.01
   0  -2  -1 3953.69  104.13
   0  -2  -1 4185.95   97.84
   0   2   2 1319.97   45.14
   0  -2  -2 1485.34   43.96
   0   2   2 1411.23   48.41
   0   2   3  467.36   24.40
   0  -2  -3  451.97   23.41
   0   2   3  466.22   25.91
   0  -2  -4 1661.57   58.94
   0   2   4 1836.31   61.48
   0   2   4 1704.37   62.33
   0   2   5  147.91   16.46
   0   2   5  156.99   16.54
   0  -2  -5  180.98   17.64
   0   2   6 1200.44   55.16
   0  -2  -6 1198.31   54.20
   0   2   6 1160.41   53.91
   0   2   7  628.13   40.13
   0  -2  -7  587.34   38.72
   0   2   7  613.02   39.81
   0   2   8  269.59   27.48
   0  -2  -8  266.65   27.35
   0   2   8  299.78   29.56
   0   2   9  172.97   23.66
   0  -2  -9  131.97   20.67
   0   2   9  127.50   20.04
   0   2  10  563.57   45.30
   0   2  10  597.95   46.41
   0  -2 -10  570.73   46.01
   0   2  11  278.48   33.15
   0  -2 -11  299.97   35.02
   0   2  11  260.14   32.25
   0  -2 -12 1773.23   95.17
   0   2  12 1921.18   97.60
   0   2  12 1743.61   92.78
   0   2  13  406.12   44.04
   0  -2 -13  339.30   41.32
   0   2  13  460.79   47.17
   0   2  14  135.42   26.34
   0  -2 -14   94.52   22.68
   0   2  14  129.57   26.52
   0   2  15   29.70   13.95
   0   2  15   39.38   16.59
   0  -2 -15   28.14   13.89
   0  -3  15   30.93   15.18
   0  -3  14  395.46   47.90
   0   3 -13  653.51   54.69
   0  -3  13  673.77   60.65
   0  -3  12  875.34   66.48
   0   3 -12  853.18   60.31
   0   3 -11  517.83   43.35
   0  -3  11  479.61   46.08
   0  -3  10  103.08   20.11
   0  -3  10   98.85   17.86
   0   3 -10  128.92   20.11
   0  -3   9   25.35    8.68
   0  -3   9   29.66   11.26
   0   3  -9   25.14    9.06
   0  -3   8 1868.10   85.37
   0   3  -8 1980.87   78.92
   0  -3   8 2137.22   82.10
   0   3  -7    3.83    2.82
   0  -3   7   14.40    6.05
   0  -3   7   -0.35    4.90
   0  -3   7    5.54    5.31
   0  -3   6  702.68   42.80
   0  -3   6  720.15   39.05
   0   3  -6  718.63   36.76
   0  -3   6  739.39   40.29
   0  -3   5  368.47   26.22
   0   3  -5  357.95   22.46
   0   3  -5  371.62   28.93
   0   3  -4  575.22   34.52
   0  -3   4  616.29   30.63
   0   3  -4  577.92   26.46
   0   3  -3 4849.08  137.14
   0  -3   3 5100.40  130.75
   0   3  -3 4967.21  119.87
   0   3  -2  165.63    8.44
   0   3  -2  181.21   16.54
   0   3  -1  670.71   32.22
   0   3   0 7098.17  175.85
   0  -3  -1 4006.17   93.80
   0   3   1 3715.31  105.23
   0  -3  -1 3811.40  105.67
   0   3   2 9999.00  237.01
   0  -3  -2 9915.45  236.27
   0  -3  -2 9782.89  227.68
   0   3   3 1869.54   65.62
   0  -3  -3 2084.66   63.67
   0  -3  -3 2068.37   66.35
   0   3   3 1990.43   69.13
   0   3   4  506.05   29.77
   0  -3  -4  485.44   27.75
   0   3   4  464.91   30.33
   0   3   5  466.97   32.08
   0   3   5  433.46   29.51
   0  -3  -5  473.32   29.93
   0   3   6 5211.19  152.56
   0   3   6 4919.89  147.50
   0  -3  -6 5081.90  147.41
   0   3   7  262.41   25.77
   0  -3  -7  251.60   24.97
   0   3   7  245.87   25.84
   0  -3  -8  624.23   43.59
   0   3   8  697.11   46.50
   0   3   8  699.49   46.84
   0   3   9   46.34   12.79
   0   3   9   49.17   12.28
   0  -3  -9   57.54   14.24
   0   3  10   54.07   14.73
   0  -3 -10   45.78   13.45
   0   3  10   64.28   16.08
   0   3  11   95.67   20.63
   0   3  11  106.84   21.46
   0  -3 -11   80.42   18.57
   0   3  12   78.25   20.06
   0  -3 -12   70.52   19.06
   0   3  12   50.22   14.87
   0  -3 -13   36.43   15.61
   0   3  13   52.38   16.63
   0   3  13   32.51   14.74
   0   3  14  656.58   60.31
   0  -3 -14  505.44   54.24
   0   3  14  732.25   63.37
   0   3  15  169.43   31.40
   0   3  15  166.88   31.36
   0  -3 -15  221.50   37.05
   0   3  16  336.71   45.88
   0  -4  14    5.43    9.64
   0  -4  13   43.17   16.58
   0  -4  12  100.04   23.52
   0  -4  11  344.17   39.77
   0   4 -10  472.19   38.28
   0  -4  10  421.95   42.21
   0  -4   9  949.39   54.99
   0  -4   9  932.73   54.41
   0   4  -9 1028.08   54.59
   0  -4   9  983.09   63.08
   0   4  -8  124.22   16.89
   0  -4   8  123.70   21.56
   0  -4   8  104.87   17.10
   0  -4   8  128.79   18.31
   0  -4   7  194.14   22.33
   0  -4   7  186.42   24.18
   0  -4   7  200.49   21.69
   0   4  -7  237.27   21.27
   0  -4   6   16.55    7.01
   0   4  -6   12.46    7.44
   0   4  -6    8.99    4.00
   0  -4   6   16.44    7.80
   0   4  -5   84.38   14.67
   0   4  -5   78.83    9.90
   0  -4   5   97.60   13.18
   0   4  -4  626.17   26.08
   0  -4   4  606.09   33.83
   0   4  -4  557.16   37.01
   0   4  -3 1238.84   56.08
   0   4  -3 1222.59   36.22
   0   4  -2 2394.87   82.85
   0   4  -1 3646.29  109.30
   0   4   0  126.77   14.91
   0   4   1   14.80    6.24
   0  -4  -1   14.01    5.56
   0  -4  -2 3644.81   96.14
   0  -4  -2 3540.39  107.77
   0   4   2 3701.07  108.51
   0  -4  -3 2204.68   77.14
   0   4   3 2187.03   77.43
   0  -4  -3 2386.59   71.29
   0  -4  -4 2500.89   83.50
   0   4   4 2440.59   87.22
   0   4   4 2282.14   83.28
   0  -4  -4 2484.97   79.54
   0  -4  -5  611.38   35.78
   0  -4  -5  613.59   35.48
   0   4   5  629.18   39.94
   0   4   5  552.57   35.91
   0   4   6  276.92   27.74
   0  -4  -6  322.51   27.02
   0   4   6  306.87   27.19
   0  -4  -7   13.30    6.91
   0   4   7   27.57    9.52
   0   4   7   14.57    6.86
   0  -4  -8  677.37   45.74
   0   4   8  649.51   47.49
   0   4   8  647.83   45.78
   0   4   9  133.33   22.29
   0  -4  -9  128.43   20.90
   0   4   9  168.46   24.11
   0   4  10  300.04   34.51
   0  -4 -10  257.96   31.53
   0   4  10  268.34   33.25
   0  -4 -11  214.55   30.61
   0   4  11  196.78   29.67
   0   4  11  205.49   30.43
   0  -4 -12  405.16   44.61
   0   4  12  427.81   45.83
   0   4  12  426.78   45.90
   0  -4 -13  408.15   46.51
   0   4  13  383.75   45.38
   0   4  13  424.78   47.38
   0   4  14   50.92   17.74
   0   4  14   70.99   19.80
   0  -4 -14   68.61   21.09
   0   4  15   51.65   18.68
   0   4  15   53.24   18.65
   0  -4 -15   39.87   17.96
   0  -5  13  591.35   59.52
   0  -5  12  191.74   32.37
   0  -5  11  660.31   58.29
   0  -5  10   26.36   11.50
   0  -5   9  236.07   27.73
   0  -5   9  210.32   29.60
   0  -5   8  973.59   57.99
   0  -5   8  992.31   54.99
   0  -5   8  857.32   59.00
   0  -5   7 2186.76   85.79
   0  -5   7 1996.97   92.67
   0  -5   7 2218.10   91.11
   0  -5   6   39.48   10.06
   0   5  -6   19.22   10.28
   0   5  -5 1617.39   52.94
   0  -5   5 1679.50   67.50
   0   5  -5 1510.57   73.63
   0   5  -4   43.43   11.40
   0  -5   4   42.42    9.68
   0   5  -4   53.60    6.15
   0   5  -3  136.11   18.36
   0   5  -2 1044.72   53.12
   0   5  -1 2590.52   91.53
   0   5   0 1482.96   62.60
   0   5   1 3040.24  101.27
   0  -5  -1 3056.52  101.30
   0  -5  -2   22.18    5.20
   0  -5  -2   14.35    6.07
   0   5   2   19.86    7.20
   0   5   3  983.47   49.32
   0  -5  -3  911.83   38.81
   0  -5  -3  933.56   48.23
   0   5   4 1268.69   59.46
   0  -5  -4 1266.45   58.76
   0  -5  -4 1316.29   52.87
   0  -5  -5  239.27   21.92
   0  -5  -5  218.66   22.68
   0   5   5  291.26   27.11
   0  -5  -6  496.40   35.47
   0   5   6  532.06   41.33
   0  -5  -6  554.70   37.04
   0   5   6  530.77   39.17
   0  -5  -7  554.07   39.56
   0   5   7  627.91   46.64
   0   5   7  529.10   40.49
   0  -5  -7  528.25   37.84
   0  -5  -8   -0.22    5.26
   0   5   8    6.58    6.83
   0   5   8   13.36    8.59
   0  -5  -8    5.06    5.36
   0   5   9  547.65   47.37
   0  -5  -9  535.78   44.05
   0  -5  -9  590.07   41.88
   0   5   9  647.56   49.05
   0   5  10   -0.58    6.98
   0  -5 -10    7.54    6.90
   0  -5 -10    2.82    4.01
   0   5  10    9.37    8.84
   0   5  11   11.88    9.62
   0  -5 -11   -2.10    7.58
   0  -5 -11   13.34    7.04
   0   5  11    7.33    7.32
   0  -5 -12  743.11   61.56
   0   5  12  796.92   65.10
   0   5  12  887.73   67.95
   0   5  13  981.70   75.69
   0   5  13  997.66   76.45
   0  -5 -13 1113.57   78.85
   0   5  14  931.45   76.09
   0   5  14  883.75   73.80
   0  -5 -14  848.74   71.94
   0   5  15  416.87   51.21
   0  -6  13  135.21   29.23
   0  -6  12  532.21   55.56
   0  -6  11 1655.72   98.87
   0  -6  10  346.27   41.55
   0  -6   9  299.15   37.00
   0  -6   8  621.63   47.65
   0  -6   8  518.06   47.46
   0   6  -7  584.48   49.68
   0  -6   7  679.92   49.11
   0  -6   6  785.61   47.17
   0   6  -6  763.60   54.33
   0  -6   5  336.85   29.32
   0   6  -5  283.93   31.07
   0   6  -4   50.37   12.88
   0  -6   4   63.34   13.06
   0   6  -3  938.62   55.21
   0   6  -2   24.32    8.21
   0   6  -1 1434.82   67.71
   0   6   0   -2.09    3.73
   0   6   1  327.26   29.42
   0   6   2  618.72   41.29
   0  -6  -2  607.15   40.84
   0  -6  -3 3965.73  129.66
   0  -6  -3 4014.97  110.32
   0   6   3 3721.06  127.57
   0  -6  -4  526.55   38.34
   0   6   4  494.23   37.90
   0  -6  -4  545.52   31.83
   0  -6  -5  653.80   38.67
   0   6   5  589.52   42.58
   0  -6  -5  652.31   43.87
   0  -6  -6  726.59   43.78
   0   6   6  714.72   48.85
   0  -6  -6  761.20   48.10
   0  -6  -7  816.01   51.34
   0   6   7  822.02   54.59
   0  -6  -7  877.84   51.82
   0   6   8 1226.65   70.94
   0  -6  -8 1102.38   63.70
   0  -6  -8 1333.12   68.07
   0  -6  -9  865.65   58.65
   0  -6  -9  976.90   58.38
   0   6   9  978.79   63.91
   0   6  10   51.13   17.76
   0   6  10   55.26   15.92
   0  -6 -10   71.46   15.83
   0  -6 -10   41.84   14.50
   0   6  11  392.66   43.55
   0  -6 -11  440.73   39.50
   0   6  11  328.43   41.53
   0  -6 -11  445.47   45.24
   0  -6 -12   21.18   10.95
   0   6  12   37.45   15.22
   0   6  12   50.80   21.78
   0   6  13  -19.67   12.23
   0  -6 -13   10.45    9.51
   0   6  13   11.72   11.76
   0  -6 -14  260.93   39.30
   0   6  14  262.05   40.68
   0  -7  11  119.48   26.80
   0  -7  10  152.70   28.98
   0  -7   9  877.60   68.39
   0  -7   8  108.70   21.54
   0  -7   8  142.55   25.86
   0  -7   7  528.64   45.85
   0   7  -7  463.88   46.35
   0   7  -6    5.75    7.31
   0  -7   6    1.83    5.25
   0   7  -5    4.81    7.65
   0  -7   5    9.27    6.31
   0  -7   4   33.79   11.25
   0   7  -4   30.51   12.09
   0   7  -3  391.63   37.07
   0   7  -2   68.08   15.49
   0   7  -1 1921.06   86.40
   0   7   0  553.28   41.97
   0   7   1  991.47   57.94
   0   7   2   10.90    7.26
   0  -7  -3  822.41   52.22
   0   7   3  773.74   51.30
   0   7   4  933.86   57.38
   0  -7  -4  919.10   56.18
   0   7   5 1977.18   91.06
   0  -7  -5 2195.97   79.74
   0  -7  -5 1919.89   88.46
   0   7   6   16.48    8.79
   0  -7  -6   17.32    6.85
   0  -7  -6   14.77    8.62
   0   7   7   52.55   15.00
   0  -7  -7   60.12   15.57
   0  -7  -7   70.13   14.61
   0   7   8  271.48   33.29
   0  -7  -8  331.55   34.20
   0  -7  -8  264.27   30.03
   0  -7  -9  140.08   23.09
   0   7   9  157.63   26.66
   0  -7  -9  142.84   23.16
   0  -7 -10  151.15   24.09
   0  -7 -10  141.73   24.77
   0   7  10  114.65   24.29
   0  -7 -11  176.39   26.35
   0  -7 -11  149.90   26.62
   0   7  11  168.13   30.17
   0  -7 -12  143.11   27.44
   0   7  12  110.64   25.33
   0  -7 -13  450.42   50.42
   0   7  13  354.72   47.72
   0   7  14  142.16   31.68
   0  -7 -14  108.55   25.52
   0  -8  10  148.86   29.77
   0  -8   9    0.61    6.34
   0  -8   8    1.57    4.32
   0   8  -8    4.76    6.47
   0   8  -7  693.11   59.70
   0  -8   7  678.76   56.06
   0  -8   6  326.22   33.75
   0   8  -6  320.06   38.94
   0   8  -5 1662.61   92.17
   0  -8   5 1739.66   83.69
   0  -8   4  437.50   38.81
   0   8  -4  384.34   40.49
   0   8  -3  359.47   38.23
   0   8  -2   36.78   12.87
   0   8  -1  599.76   48.38
   0   8   0  332.21   35.17
   0   8   1 2385.71  103.58
   0   8   2  460.00   41.35
   0   8   3  221.62   28.55
   0   8   4  274.91   32.40
   0  -8  -4  239.09   30.25
   0   8   5  904.27   61.19
   0  -8  -5  896.00   59.83
   0  -8  -6  513.42   45.00
   0   8   6  498.86   45.40
   0  -8  -7  484.05   44.01
   0  -8  -7  499.38   39.81
   0   8   7  570.51   49.50
   0   8   8   11.05    9.05
   0  -8  -8   17.76    8.94
   0  -8  -8   24.53    9.93
   0  -8  -9  317.39   36.34
   0  -8  -9  297.39   34.25
   0   8   9  270.90   36.66
   0  -8 -10   40.08   13.86
   0   8  10   81.68   21.34
   0  -8 -10   41.95   14.08
   0  -8 -11  141.97   25.21
   0   8  11  146.28   28.69
   0  -8 -11  139.91   26.06
   0   8  12   65.70   19.92
   0  -8 -12   29.76   14.38
   0  -8 -13   30.54   15.51
   0   8  13   30.08   15.68
   0  -9   9  882.17   74.48
   0   9  -8  146.90   29.99
   0  -9   7   32.91   14.40
   0   9  -7    0.15    6.20
   0   9  -6   59.28   17.81
   0  -9   5  626.24   50.16
   0   9  -5  598.28   55.77
   0  -9   4   89.43   20.53
   0   9  -4  102.95   22.87
   0   9  -3  239.04   33.60
   0   9  -2    5.50    6.87
   0   9  -1   25.58   12.65
   0   9   0   49.09   14.37
   0   9   1    5.53    6.90
   0   9   2   31.64   13.48
   0   9   3 1535.10   85.86
   0   9   4  537.93   48.86
   0   9   5 1070.84   71.26
   0   9   6   45.16   15.24
   0  -9  -6   28.21   13.61
   0  -9  -7   23.85   11.41
   0   9   7   32.16   12.04
   0   9   8  107.14   23.84
   0  -9  -8   83.06   19.83
   0   9   9  791.09   65.51
   0  -9  -9  642.37   56.51
   0  -9 -10  328.55   39.86
   0   9  10  371.16   45.79
   0  -9 -11  516.57   51.10
   0   9  11  546.09   57.81
   0   9  12   15.61   11.57
   0  10  -7  317.72   44.86
   0 -10   7  357.65   45.80
   0  10  -6   64.73   21.01
   0  10  -5  -11.82   10.10
   0 -10   4   19.44   10.86
   0  10  -4   -0.94    6.37
   0  10  -3  160.51   29.50
   0  10  -2   12.44   10.13
   0  10  -1  199.50   31.53
   0  10   0   71.03   19.56
   0  10   1  628.41   56.04
   0  10   2  699.43   58.86
   0  10   3   43.00   15.19
   0  10   4   62.48   18.69
   0  10   5 1187.55   80.62
   0  10   6  530.20   52.66
   0  10   7  878.14   70.23
   0  10   8   52.51   17.17
   0  10   9   17.71   14.07
   0 -10 -10   49.93   18.29
   0  10  10   50.88   19.82
   0  10  11  327.35   46.31
   0 -10 -11  314.26   41.78
   0  11  -5  214.16   36.32
   0  11  -4  318.29   44.72
   0  11  -3  221.06   36.08
   0 -11   3  199.41   31.12
   0  11  -2  236.74   37.34
   0  11  -1   -2.63    7.31
   0  11   0    7.98    6.59
   0  11   1 1011.13   76.69
   0  11   2  688.85   62.32
   0  11   3  945.68   74.16
   0  11   4  438.77   49.41
   0  11   5   61.95   18.71
   0  11   6  155.23   30.18
   0  11   7  729.08   67.20
   0  11   8  160.03   31.67
   0  11   9   42.48   16.91
   0  12  -1   92.48   24.31
   0  12   0  147.70   31.02
   0  12   1   35.43   15.36
   0  12   2   12.44   10.25
   0  12   3  262.50   40.59
   0  12   4  201.60   36.19
   0  12   5  280.84   42.16
   0  12   6  290.88   43.30
   1 -12   2  401.79   49.76
  -1  11   8    9.33    9.36
  -1  11   7   93.07   24.66
  -1  11   6   30.52   13.80
  -1  11   5    1.82    7.17
  -1  11   4  151.62   29.68
  -1  11   3  529.10   56.25
  -1  11   2  596.08   59.33
  -1  11   1  506.79   55.05
  -1  11   0    3.58    8.23
  -1  11  -1  353.30   46.32
  -1  11  -2  999.69   79.51
  -1  11  -3  917.39   76.53
   1 -11   3  842.23   69.05
   1 -11   4  365.58   44.87
  -1  11  -4  315.36   44.73
  -1  10  10   94.43   24.93
  -1  10   9  135.51   29.81
  -1  10   8  177.58   32.45
  -1  10   7  464.21   52.01
  -1  10   6  227.51   35.90
  -1  10   5  173.79   30.79
  -1  10   4    4.53    7.88
  -1  10   3  392.83   45.51
  -1  10   2  471.80   49.14
  -1  10   1  845.26   67.41
  -1  10   0  709.48   61.50
  -1  10  -1  336.81   42.08
  -1  10  -2   -8.86    9.05
  -1  10  -3  154.06   28.78
   1 -10   3  123.40   24.37
   1 -10   4  192.90   30.54
  -1  10  -4  177.73   32.75
   1 -10   5  101.55   23.30
  -1  10  -5   79.74   23.50
  -1  10  -6    5.21    8.05
  -1  10  -7   83.85   22.36
   1 -10   7   62.56   20.93
   1 -10   8  120.38   28.46
  -1   9  11  753.88   71.06
  -1   9  10  185.81   34.28
  -1   9   9   14.62    9.54
  -1   9   8  105.71   23.78
  -1   9   7  320.07   41.11
  -1   9   6  514.47   51.37
  -1   9   5  707.56   59.19
  -1   9   4  313.20   38.49
  -1   9   3  240.54   33.26
  -1   9   2    9.85    8.28
  -1   9   1    6.01    6.59
  -1   9   0  207.52   30.61
  -1   9  -1  394.93   42.82
  -1   9  -2  546.35   51.16
  -1   9  -3  275.28   36.38
   1  -9   3  304.75   36.22
   1  -9   4  106.65   21.31
  -1   9  -4  102.18   23.20
  -1   9  -5   -9.20    8.98
   1  -9   5   16.32    8.66
  -1   9  -6   80.84   20.87
   1  -9   6   46.14   15.47
  -1   9  -7    9.44    7.49
   1  -9   7   16.81   11.96
   1  -9   8  565.74   57.40
  -1   9  -8  572.98   58.83
   1  -9   9  336.14   46.00
  -1   8  13   68.43   21.68
  -1   8  12   52.39   18.75
  -1   8  11  565.99   59.37
   1  -8 -10  517.72   47.19
  -1   8  10  393.37   48.04
  -1   8   9  315.33   40.96
   1  -8  -9  342.46   37.78
  -1   8   8   11.22    7.65
   1  -8  -8   11.89    8.07
  -1   8   7   -1.29    7.69
  -1   8   6    7.73    7.40
  -1   8   5    9.97    9.31
  -1   8   4   -2.73    6.83
  -1   8   3  226.15   30.47
  -1   8   2  805.60   57.43
  -1   8   1 1124.91   68.59
  -1   8   0  814.43   57.80
  -1   8  -1  219.38   29.62
  -1   8  -2  213.59   29.88
  -1   8  -3  597.43   50.88
   1  -8   4 1115.30   67.75
  -1   8  -4 1095.95   71.84
   1  -8   5  412.01   40.42
  -1   8  -5  375.63   41.94
  -1   8  -6   69.18   18.59
   1  -8   6   67.60   16.85
   1  -8   7   58.83   16.15
  -1   8  -7   58.26   18.17
   1  -8   7   49.36   16.04
   1  -8   8   80.81   20.13
  -1   8  -8   75.88   20.38
   1  -8   9  167.61   29.98
   1  -8   9  116.66   25.76
   1  -8  10  214.34   35.44
  -1   7  13  386.81   52.18
  -1   7  12  104.20   26.13
  -1   7  11   13.49    9.84
   1  -7 -10    5.05    8.88
   1  -7 -10    7.84    9.17
  -1   7  10   -0.14    5.74
  -1   7   9  174.86   29.35
   1  -7  -9  147.76   23.34
  -1   7   8   81.55   20.13
   1  -7  -8  117.61   20.55
  -1   7   7  548.66   48.66
   1  -7  -7  625.16   47.21
   1  -7  -6  348.58   34.67
  -1   7   6  333.03   36.46
  -1   7   5 1140.00   68.16
  -1   7   4  686.52   50.75
  -1   7   3  464.69   40.61
  -1   7   2   37.67   12.17
  -1   7   1 1114.44   63.77
  -1   7   0 1487.92   75.42
  -1   7  -1 2428.27  102.47
  -1   7  -2  579.85   45.92
  -1   7  -3    5.21    8.94
   1  -7   4  372.83   35.27
  -1   7  -4  433.45   40.84
  -1   7  -5  808.06   58.96
   1  -7   5  931.18   58.34
  -1   7  -6  789.11   58.80
   1  -7   6  712.35   51.42
   1  -7   7  308.04   36.89
   1  -7   7  323.44   34.59
  -1   7  -7  331.36   39.02
  -1   7  -8   43.85   14.99
   1  -7   8   10.93   10.19
   1  -7   9   13.18    9.78
   1  -7   9   54.88   17.88
   1  -7  10   35.78   14.12
   1  -7  11   26.63   13.58
   1  -6 -14   17.23   12.69
  -1   6  14   16.49    8.53
   1  -6 -13   89.96   22.71
  -1   6  13  120.27   27.47
  -1   6  12  144.91   28.26
   1  -6 -12  182.72   31.18
  -1   6  11  672.15   60.65
   1  -6 -11  693.69   57.94
   1  -6 -10  341.69   33.78
  -1   6  10  420.90   45.34
   1  -6 -10  396.94   41.31
  -1   6   9  735.98   58.07
   1  -6  -9  803.23   56.74
   1  -6  -9  780.09   51.30
  -1   6   8  330.57   37.00
   1  -6  -8  349.40   33.12
   1  -6  -8  290.35   31.73
  -1   6   7   20.00    9.90
   1  -6  -7   36.79   10.95
   1  -6  -7   35.92   10.78
   1  -6  -6  109.35   16.99
  -1   6   6  148.88   22.71
   1  -6  -6  109.06   18.34
  -1   6   5  978.12   58.80
   1  -6  -5 1048.35   57.28
  -1   6   4  498.11   39.83
   1  -6  -4  552.29   40.08
  -1   6   3  941.27   54.82
  -1   6   2  370.83   32.69
  -1   6   1  195.39   23.52
  -1   6   0  228.35   25.13
  -1   6  -1  866.00   51.62
  -1   6  -2  850.70   52.44
  -1   6  -3  719.76   48.92
   1  -6   4  200.48   24.05
  -1   6  -4  197.76   25.59
  -1   6  -5  208.59   27.17
   1  -6   5  198.71   24.31
  -1   6  -6   21.73    9.88
   1  -6   6   21.79    9.61
   1  -6   7   11.67    7.24
   1  -6   7    3.61    6.82
  -1   6  -7    9.35    8.11
   1  -6   8  336.51   34.18
   1  -6   8  310.85   35.94
  -1   6  -8  345.41   38.99
   1  -6   9  197.59   29.00
   1  -6   9  153.79   26.58
   1  -6  10  516.04   50.96
   1  -6  11  363.32   44.08
   1  -6  12  219.67   35.64
   1  -6  13   27.87   14.96
  -1   5  15  358.60   49.38
   1  -5 -14 1212.08   87.73
  -1   5  14 1162.18   87.87
  -1   5  13  481.76   54.19
   1  -5 -13  663.27   61.06
  -1   5  12  644.80   59.79
   1  -5 -12  518.92   51.74
   1  -5 -11  115.63   23.06
  -1   5  11   84.34   20.43
   1  -5 -10  317.93   30.25
  -1   5  10  351.62   39.92
   1  -5 -10  318.70   36.32
   1  -5  -9 1112.54   59.06
   1  -5  -9 1118.94   67.13
  -1   5   9 1158.22   71.70
   1  -5  -8 1673.37   73.03
   1  -5  -8 1594.05   78.57
  -1   5   8 1564.93   82.09
   1  -5  -7  506.84   36.90
  -1   5   7  576.67   44.88
   1  -5  -7  553.86   41.16
  -1   5   6  200.59   24.92
   1  -5  -6  168.63   20.78
   1  -5  -6  171.68   20.65
  -1   5   6  174.10   23.78
  -1   5   5  181.20   22.94
   1  -5  -5  178.26   19.84
   1  -5  -5  203.69   21.92
   1  -5  -4   21.09    7.07
  -1   5   4   14.50    6.75
   1  -5  -3   83.35   13.71
  -1   5   3  105.94   16.38
  -1   5   2   64.75   12.62
  -1   5   1  423.14   31.92
  -1   5   0 2023.79   78.82
  -1   5  -1  361.50   14.17
  -1   5  -1  342.83   29.00
  -1   5  -2  162.85    8.53
  -1   5  -2  135.94   18.43
  -1   5  -3   12.21    7.60
   1  -5   3   18.91    7.43
  -1   5  -3   15.25    3.05
   1  -5   4  725.85   43.17
  -1   5  -4  635.28   26.00
  -1   5  -4  576.25   41.44
  -1   5  -5  475.99   38.94
   1  -5   5  568.38   38.87
   1  -5   6 1266.70   67.31
   1  -5   6 1180.66   60.88
  -1   5  -6 1270.90   67.98
  -1   5  -7  558.92   45.16
   1  -5   7  464.55   40.46
   1  -5   8   50.54   13.31
   1  -5   8   47.12   14.04
   1  -5   8   62.25   15.62
   1  -5   9   10.23    8.83
   1  -5   9    5.79    5.29
   1  -5   9   21.43    9.65
   1  -5  10  250.93   33.29
   1  -5  10  258.60   32.14
   1  -5  11  205.18   32.03
   1  -5  12  555.21   54.24
   1  -5  13  365.55   45.70
  -1   4  15   38.19   15.92
  -1   4  15   41.65   16.10
   1  -4 -15   22.60   13.30
  -1   4  14  146.27   28.61
  -1   4  14  165.48   31.00
   1  -4 -14  140.72   28.87
   1  -4 -13  727.96   64.06
  -1   4  13  930.63   73.05
  -1   4  13  811.39   66.10
  -1   4  12 1010.80   71.18
  -1   4  12  912.62   71.07
   1  -4 -12  940.84   69.33
  -1   4  11  401.82   43.59
   1  -4 -11  287.34   36.08
  -1   4  11  334.31   38.65
  -1   4  10  398.15   41.57
   1  -4 -10  365.56   38.34
  -1   4  10  371.73   38.86
  -1   4   9  128.60   21.58
   1  -4  -9   77.57   16.46
   1  -4  -9  115.55   16.36
  -1   4   9   87.17   18.94
   1  -4  -8    9.44    6.60
  -1   4   8   11.28    8.68
   1  -4  -8    9.91    5.21
  -1   4   8   -0.24    5.70
   1  -4  -7  501.89   38.13
   1  -4  -7  548.32   35.00
  -1   4   7  502.85   40.37
  -1   4   7  602.47   44.02
  -1   4   6  510.84   37.94
   1  -4  -6  491.20   35.07
   1  -4  -6  479.16   32.10
  -1   4   5  386.21   31.37
   1  -4  -5  396.17   28.17
   1  -4  -5  419.19   30.02
   1  -4  -4 1223.47   53.43
  -1   4   4 1191.47   56.96
   1  -4  -4 1255.21   52.38
  -1   4   3  624.93   37.48
   1  -4  -3  638.77   35.70
  -1   4   2 1133.33   51.33
  -1   4   1   34.72    8.87
  -1   4   0  759.68   40.04
  -1   4  -1 4380.24  128.36
  -1   4  -2 3595.92  114.05
  -1   4  -2 3750.89   90.27
  -1   4  -3 2055.51   58.64
  -1   4  -3 2153.46   79.91
   1  -4   3 2319.26   79.13
  -1   4  -4  106.46   16.16
  -1   4  -4   91.62    9.51
   1  -4   4  120.74   15.67
   1  -4   5  327.36   27.09
  -1   4  -5  329.26   29.35
  -1   4  -5  334.96   21.22
  -1   4  -6 1429.11   55.64
  -1   4  -6 1392.81   68.42
   1  -4   6 1555.66   66.27
   1  -4   6 1473.01   69.87
  -1   4  -7 1143.05   51.90
   1  -4   7 1205.51   61.62
   1  -4   7 1306.50   66.24
   1  -4   8  834.85   51.96
  -1   4  -8  835.94   46.03
   1  -4   8  895.43   55.58
   1  -4   8  843.32   54.83
  -1   4  -9  153.59   20.07
   1  -4   9  156.61   22.85
   1  -4   9  155.68   22.42
   1  -4   9  166.66   24.79
   1  -4  10   13.51    8.46
   1  -4  10   12.92    8.19
   1  -4  11   53.12   15.94
   1  -4  11   66.13   16.23
   1  -4  12   33.84   13.46
   1  -4  13   24.18   12.48
   1  -4  14  113.59   25.95
  -1   3  16  380.54   49.97
  -1   3  15  117.18   26.66
  -1   3  15  137.15   29.19
   1  -3 -15  113.82   27.47
   1  -3 -14  205.16   34.39
  -1   3  14  217.48   35.56
  -1   3  14  234.87   34.95
  -1   3  13    3.56   10.89
   1  -3 -13    1.74    6.97
  -1   3  13   -1.55    9.02
   1  -3 -12   62.47   18.00
  -1   3  12   51.53   17.21
  -1   3  12   39.65   14.41
   1  -3 -11  112.82   22.42
  -1   3  11  203.14   30.26
  -1   3  11  131.43   23.35
  -1   3  10  396.66   38.43
  -1   3  10  396.13   40.37
   1  -3 -10  380.62   38.61
  -1   3   9  338.73   34.21
  -1   3   9  381.19   37.50
   1  -3  -9  284.25   31.21
  -1   3   8  342.77   32.88
   1  -3  -8  351.34   32.76
  -1   3   8  361.05   35.05
   1  -3  -8  386.88   27.17
  -1   3   7  383.92   33.49
  -1   3   7  346.13   31.17
   1  -3  -7  303.49   28.72
   1  -3  -7  344.76   24.75
   1  -3  -6  147.61   18.29
  -1   3   6  115.61   17.16
   1  -3  -6  142.77   15.06
  -1   3   6  151.66   19.63
   1  -3  -5   13.10    6.13
  -1   3   5    8.31    4.90
  -1   3   5   11.74    6.82
   1  -3  -5   24.81    6.29
  -1   3   4  319.39   24.93
   1  -3  -4  279.84   21.75
   1  -3  -4  282.06   20.60
   1  -3  -3 1843.27   62.76
  -1   3   3 1861.17   67.54
   1  -3  -3 1853.93   62.16
   1  -3  -2 2750.11   84.51
  -1   3   2 2919.29   88.77
  -1   3   1 3422.27   99.40
  -1   3   0  343.91   22.76
  -1   3  -1    7.34    4.75
  -1   3  -2 2353.59   77.99
  -1   3  -2 2439.82   63.18
  -1   3  -3 2404.91   68.46
   1  -3   3 2576.67   82.12
  -1   3  -3 2605.02   83.81
  -1   3  -4 1519.57   51.16
  -1   3  -4 1587.98   62.78
   1  -3   4 1583.59   60.63
  -1   3  -5 1129.98   53.67
   1  -3   5  988.51   48.46
   1  -3   5 1261.60   56.63
  -1   3  -5 1135.59   45.13
  -1   3  -6   75.69   11.34
   1  -3   6   66.33   12.94
   1  -3   6   79.42   13.57
  -1   3  -6   79.05   14.20
   1  -3   7   14.95    7.35
   1  -3   7   34.39    9.79
   1  -3   7   18.33    8.33
  -1   3  -7   42.05    9.34
   1  -3   8  287.04   28.61
   1  -3   8  315.03   30.69
  -1   3  -8  296.59   26.53
   1  -3   8  289.72   28.92
   1  -3   9  217.90   27.29
  -1   3  -9  220.27   24.57
   1  -3   9  251.44   28.10
  -1   3 -10  201.73   25.06
   1  -3  10  203.30   26.30
   1  -3  10  172.17   25.31
   1  -3  11  455.65   43.57
   1  -3  11  366.59   37.51
  -1   3 -11  392.92   37.58
   1  -3  12  460.95   43.65
   1  -3  12  323.49   38.88
  -1   3 -12  347.91   37.02
   1  -3  13  434.54   47.15
   1  -3  14   31.47   16.02
   1  -3  15    0.22    7.24
  -1   2  16  -16.96   13.15
  -1   2  15   12.08    9.78
   1  -2 -15   15.06   13.29
   1  -2 -14  311.90   42.26
  -1   2  14  292.13   38.51
  -1   2  14  315.06   42.41
   1  -2 -13  479.36   50.06
  -1   2  13  494.97   48.57
  -1   2  13  467.59   49.74
  -1   2  12 1503.91   88.36
   1  -2 -12 1487.22   87.03
  -1   2  12 1372.29   80.40
  -1   2  11  489.87   46.65
  -1   2  11  464.67   42.48
   1  -2 -11  522.65   46.68
  -1   2  10   92.57   20.04
  -1   2  10  131.81   21.52
   1  -2 -10  123.83   21.83
  -1   2   9  445.35   39.62
  -1   2   9  392.99   35.33
   1  -2  -9  450.31   39.02
  -1   2   8 2324.08   97.08
   1  -2  -8 2292.72   93.31
  -1   2   8 2391.57   93.73
   1  -2  -7 1298.13   62.31
  -1   2   7 1301.74   61.61
  -1   2   7 1397.31   66.44
   1  -2  -6 2429.33   88.01
  -1   2   6 2411.41   87.68
  -1   2   6 2582.79   92.74
  -1   2   5  303.00   24.26
  -1   2   5  261.79   23.42
   1  -2  -5  303.83   23.83
   1  -2  -4  248.04   16.45
  -1   2   4  212.52   19.56
   1  -2  -4  267.87   20.54
  -1   2   4  251.36   20.56
   1  -2  -3    3.21    2.89
  -1   2   3    4.83    4.17
   1  -2  -3    4.82    3.49
   1  -2  -2  179.70   13.43
  -1   2   2  199.51   15.87
  -1   2   1  760.55   31.82
  -1   2   0  460.32   22.85
  -1   2  -1  342.11   19.71
   1  -2   2 1300.35   46.38
  -1   2  -2 1255.20   45.66
  -1   2  -2 1277.67   38.38
  -1   2  -3  104.48   12.04
  -1   2  -3   86.21    8.68
   1  -2   3  107.48   12.02
   1  -2   4    3.81    5.20
  -1   2  -4    3.43    2.80
   1  -2   4    1.77    3.15
  -1   2  -4    3.85    3.00
   1  -2   5  985.55   47.00
   1  -2   5  925.27   44.57
  -1   2  -5  915.90   44.48
  -1   2  -5  900.41   39.95
   1  -2   6 1661.28   66.72
   1  -2   6 1553.20   65.16
   1  -2   6 1698.79   67.05
  -1   2  -6 1576.52   61.16
   1  -2   7 1276.74   60.12
   1  -2   7 1331.20   60.87
  -1   2  -7 1256.73   56.30
   1  -2   8  578.61   40.17
  -1   2  -8  495.31   35.69
   1  -2   8  585.33   40.45
   1  -2   9  884.05   53.32
   1  -2   9  832.89   52.40
  -1   2  -9  829.93   50.13
  -1   2 -10   72.61   15.26
   1  -2  10   73.37   15.94
   1  -2  10   62.56   14.87
   1  -2  11    2.91    4.93
  -1   2 -11   -0.61    6.80
   1  -2  11   -6.91    6.95
   1  -2  12  265.86   34.35
  -1   2 -12  221.94   30.44
   1  -2  12  254.79   32.11
   1  -2  13  939.71   68.74
   1  -2  13  901.24   64.71
  -1   2 -13  837.16   63.14
  -1   2 -14  315.87   39.61
   1  -2  14  279.26   38.73
  -1   2 -15  290.27   40.17
   1  -2  15  240.22   37.42
  -1   1  16  612.70   63.65
  -1   1  15   52.43   16.81
   1  -1 -15   55.59   19.67
   1  -1 -14   59.86   18.73
  -1   1  14   40.63   15.96
   1  -1 -13   41.54   15.36
  -1   1  13   80.30   19.80
  -1   1  13   78.10   18.49
  -1   1  12  910.05   61.31
  -1   1  12  826.98   62.87
   1  -1 -12  869.92   64.02
  -1   1  11 1100.88   65.22
  -1   1  11  989.47   66.27
   1  -1 -11 1114.33   69.69
  -1   1  10 2380.94   97.96
  -1   1  10 2168.01  100.21
   1  -1 -10 2344.34  102.16
   1  -1  -9  394.04   35.44
  -1   1   9  354.17   34.42
  -1   1   9  301.27   29.54
  -1   1   8   30.03    9.02
  -1   1   8   25.44    9.48
   1  -1  -8   25.77    9.10
   1  -1  -7 1073.11   55.48
  -1   1   7 1179.97   59.18
   1  -1  -7 1156.90   31.97
  -1   1   7 1181.56   55.13
   1  -1  -6  408.84   29.79
  -1   1   6  367.74   26.93
  -1   1   6  379.75   29.48
  -1   1   5  519.15   32.30
  -1   1   5  510.02   29.78
   1  -1  -5  451.78   29.44
  -1   1   4  706.40   33.04
  -1   1   4  671.02   34.72
   1  -1  -4  663.66   33.29
  -1   1   3   63.15    9.39
  -1   1   3   83.51    9.75
   1  -1  -3   79.66    9.77
   1  -1  -3   88.24    7.41
  -1   1   2 1920.13   60.00
   1  -1  -2 2045.50   53.54
   1  -1  -2 2083.35   59.47
  -1   1   1  216.05   13.23
  -1   1   0  266.36   13.26
   1  -1   1  975.12   32.94
  -1   1  -1  915.95   30.36
   1  -1   2 2113.44   61.19
   1  -1   2 1965.45   62.16
  -1   1  -2 2108.37   58.96
  -1   1  -2 2103.56   56.72
  -1   1  -3 5620.38  137.94
   1  -1   3 5619.98  144.23
  -1   1  -3 5653.83  140.05
   1  -1   4 4751.45  127.67
  -1   1  -4 4594.53  122.76
   1  -1   4 4813.91  128.44
   1  -1   4 4674.32  123.85
  -1   1  -5 1638.01   59.23
   1  -1   5 1709.10   60.54
   1  -1   5 1639.81   62.18
   1  -1   6   40.33    8.51
   1  -1   6   27.78    7.89
  -1   1  -6   18.26    6.75
   1  -1   7 1103.95   32.39
  -1   1  -7 1148.72   53.61
   1  -1   7 1062.36   52.00
   1  -1   7 1218.99   56.73
   1  -1   8 1402.36   65.26
  -1   1  -8 1342.07   64.01
   1  -1   8 1571.67   69.11
  -1   1  -9  964.00   55.50
   1  -1   9 1063.00   58.91
   1  -1   9 1065.04   58.50
   1  -1  10  544.54   42.91
   1  -1  10  523.43   42.29
  -1   1 -10  513.62   41.38
   1  -1  11  382.96   37.59
   1  -1  11  307.87   34.08
  -1   1 -11  358.31   36.44
   1  -1  12    4.04    6.82
   1  -1  12    6.87    8.43
  -1   1 -12   -3.58    8.20
  -1   1 -13   -2.85    8.00
   1  -1  13   -9.52    9.02
   1  -1  13    2.44    7.79
   1  -1  14  214.21   32.25
  -1   1 -14  295.78   38.53
   1  -1  14  241.23   34.78
  -1   1 -15   73.38   20.36
   1  -1  15   67.38   20.04
   1   0 -15  570.16   58.03
  -1   0  15  449.43   51.91
  -1   0  14  508.40   52.97
   1   0 -14  504.89   52.57
   1   0 -13  139.58   26.17
  -1   0  13  190.40   30.98
  -1   0  12   39.89   12.52
   1   0 -12   37.24   13.30
  -1   0  12   49.25   14.84
  -1   0  11   -2.91    5.65
  -1   0  11   -0.72    6.31
   1   0 -11   -2.70    6.70
   1   0 -10  488.73   42.45
  -1   0  10  517.52   44.16
  -1   0  10  558.16   41.30
  -1   0   9  247.70   28.80
   1   0  -9  253.87   28.34
  -1   0   9  288.28   27.76
  -1   0   8 1069.04   52.65
   1   0  -8  985.70   54.81
  -1   0   8  968.90   55.90
  -1   0   7  149.78   19.45
  -1   0   7  118.60   15.40
   1   0  -7  117.00   16.70
  -1   0   6   26.38    7.25
  -1   0   6   11.18    6.08
   1   0  -6    8.76    5.42
   1   0  -5  482.68   29.58
   1   0  -5  502.44   16.12
  -1   0   5  522.18   27.97
  -1   0   5  532.32   32.24
  -1   0   4   58.11    8.15
   1   0  -4   68.03    5.27
   1   0  -4   76.58   10.50
  -1   0   4   54.69    9.28
  -1   0   3   68.19    9.15
   1   0  -3   67.56    5.74
  -1   0   3   71.04    7.86
   1   0  -3   60.60    8.09
  -1   0   2 2135.98   61.57
   1   0  -2 2142.72   60.40
  -1   0   2 2101.85   56.27
   1   0  -2 2198.13   55.91
  -1   0  -2   79.71    7.51
   1   0   2   79.57    8.12
   1   0   2   72.92    6.85
  -1   0  -3 1209.68   40.95
   1   0   3 1181.13   42.50
   1   0   3 1089.83   36.88
   1   0   3 1208.30   34.49
  -1   0  -4 5497.70  144.25
   1   0   4 5707.85  147.45
   1   0   4 5673.21  141.01
   1   0   4 5697.30  129.51
   1   0   5 5608.07  115.00
   1   0   5 4343.31  130.02
  -1   0  -5 4298.44  132.68
   1   0   5 4416.15  134.86
   1   0   6 1757.22   66.62
  -1   0  -6 1580.11   63.20
   1   0   6 1611.21   61.72
  -1   0  -7  263.77   23.98
   1   0   7  298.97   24.87
   1   0   7  258.93   24.51
  -1   0  -8  297.42   27.50
   1   0   8  327.65   29.34
   1   0   8  273.74   26.14
  -1   0  -9  149.80   21.34
   1   0   9  170.39   22.53
   1   0   9  154.51   20.81
  -1   0 -10   27.21    9.61
   1   0  10   40.67   12.25
   1   0  10   27.81   10.15
  -1   0 -11  141.76   23.60
   1   0  11  156.20   23.57
   1   0  11  164.91   24.72
  -1   0 -12   35.02   13.18
   1   0  12   18.66   10.20
   1   0  12   12.13    8.17
   1   0  13  286.11   35.94
   1   0  13  329.29   38.01
  -1   0 -13  275.19   35.83
   1   0  14  134.43   26.09
  -1   0 -14  109.72   24.20
   1   0  14   98.35   22.27
  -1   0 -15   24.64   14.62
   1   1 -15   67.25   20.48
  -1  -1  15   44.75   16.42
  -1  -1  14  372.79   45.17
   1   1 -14  238.75   35.58
  -1  -1  13   15.10    8.23
   1   1 -13   30.22   13.96
  -1  -1  12  623.11   54.54
   1   1 -12  682.38   55.10
  -1  -1  11  834.19   53.33
   1   1 -11  778.21   56.47
  -1  -1  11  845.48   60.43
   1   1 -10  738.81   51.61
  -1  -1  10  654.03   50.83
  -1  -1  10  696.41   45.92
   1   1  -9  493.52   39.37
  -1  -1   9  473.17   40.42
  -1  -1   9  537.37   37.24
  -1  -1   8  141.43   20.60
   1   1  -8  124.85   18.01
  -1  -1   8  146.04   17.72
   1   1  -7  233.34   23.12
  -1  -1   7  277.41   26.59
  -1  -1   7  227.13   20.56
  -1  -1   6 2532.33   90.57
   1   1  -6 2505.32   86.73
  -1  -1   6 2657.91   82.38
   1   1  -5  770.15   23.58
   1   1  -5  725.90   36.66
  -1  -1   5  773.20   39.81
  -1  -1   5  747.77   33.50
  -1  -1   4 1879.91   66.54
   1   1  -4 2073.44   52.20
  -1  -1   4 2008.89   59.88
   1   1  -4 2013.62   65.25
  -1  -1   3 1162.61   35.10
   1   1  -3 1101.55   39.56
  -1  -1   3 1162.53   32.12
   1   1  -3 1052.35   32.31
  -1  -1   3 1008.25   40.93
   1   1  -2  272.14   14.68
   1   1  -2  268.04   12.57
  -1  -1   2  269.96   10.99
  -1  -1   2  272.02   16.18
  -1  -1   1  613.78   22.42
  -1  -1   1  612.45   17.91
   1   1   2 2685.97   66.51
  -1  -1  -2 2652.27   70.64
   1   1   2 2696.70   64.85
   1   1   2 2675.63   72.29
   1   1   3 3923.83   92.54
   1   1   3 3952.00   96.94
  -1  -1  -3 3801.69  101.69
   1   1   3 3758.90  103.56
  -1  -1  -4  247.91   18.46
   1   1   4  254.34   19.55
   1   1   4  296.31   17.97
   1   1   4  278.97   12.33
   1   1   5  310.71   12.85
   1   1   5  281.72   20.28
  -1  -1  -5  318.45   23.03
   1   1   5  338.01   24.26
   1   1   6  233.46   19.98
   1   1   6  188.66   19.56
  -1  -1  -6  188.31   19.19
   1   1   7 1423.72   63.60
  -1  -1  -7 1443.69   63.14
   1   1   7 1430.65   60.77
  -1  -1  -8  107.47   17.07
   1   1   8  102.63   16.90
   1   1   8  132.93   17.79
   1   1   9  449.63   35.76
   1   1   9  508.20   39.95
  -1  -1  -9  499.83   39.55
   1   1  10   48.20   13.19
  -1  -1 -10   48.88   12.83
   1   1  10   81.72   15.97
  -1  -1 -11  186.21   27.07
   1   1  11  194.73   26.90
   1   1  11  173.91   24.92
   1   1  12   36.41   13.19
  -1  -1 -12   16.52    8.59
   1   1  12   24.88   11.04
   1   1  13  201.30   30.95
   1   1  13  196.74   29.26
  -1  -1 -13  184.10   29.82
   1   1  14  140.75   27.06
  -1  -1 -14  121.86   25.47
   1   1  14  119.25   24.94
   1   1  15 1113.56   80.20
  -1  -1 -15 1071.87   80.46
   1   2 -15  290.07   40.46
  -1  -2  15  276.09   41.20
  -1  -2  14  348.48   44.54
   1   2 -14  366.92   43.46
   1   2 -13  271.00   35.94
  -1  -2  13  255.44   36.70
  -1  -2  12   16.01   11.22
   1   2 -12   19.15   11.78
  -1  -2  11  185.77   28.95
   1   2 -11  222.06   29.08
  -1  -2  10 1469.05   68.73
  -1  -2  10 1345.85   77.11
   1   2 -10 1386.74   73.18
   1   2  -9 1179.27   62.98
  -1  -2   9 1282.78   59.79
  -1  -2   9 1134.73   66.45
   1   2  -8  407.88   33.08
  -1  -2   8  521.37   33.73
  -1  -2   8  433.63   36.56
  -1  -2   7   23.60    8.42
  -1  -2   7   26.20    7.09
   1   2  -7   28.30    7.77
   1   2  -6  859.98   42.87
  -1  -2   6  839.06   46.16
  -1  -2   6  865.05   39.32
  -1  -2   5 1804.70   58.56
   1   2  -5 1865.09   64.72
  -1  -2   5 1878.68   60.66
  -1  -2   5 1823.47   69.98
  -1  -2   4 1811.30   65.43
  -1  -2   4 1871.67   56.15
   1   2  -4 1778.66   58.93
  -1  -2   4 1796.63   55.30
  -1  -2   3 2295.82   61.05
  -1  -2   3 2304.28   59.34
   1   2  -3 2204.85   64.25
   1   2  -3 2202.76   62.86
  -1  -2   3 2194.69   71.17
   1   2  -2  669.14   26.99
   1   2  -2  729.41   31.20
  -1  -2   1  200.69   11.96
   1   2  -1  201.98   13.16
   1   2  -1  193.62   13.21
  -1  -2   0  492.87   20.81
   1   2   0  514.23   20.84
   1   2   0  472.61   21.52
   1   2   1   15.35    4.00
  -1  -2  -1   15.77    2.96
   1   2   1   13.13    3.34
   1   2   1   20.29    4.41
   1   2   2  156.08   10.69
   1   2   2  150.89   11.16
   1   2   2  137.79   12.10
  -1  -2  -2  152.59   10.99
  -1  -2  -3 2134.12   64.25
   1   2   3 1968.14   65.79
   1   2   3 2152.36   59.98
   1   2   3 2166.53   60.44
   1   2   4 2826.78   80.72
   1   2   4 2852.30   87.86
   1   2   4 2851.57   75.87
  -1  -2  -4 2829.08   85.04
   1   2   5 3186.65   93.61
   1   2   5 3105.42   99.49
  -1  -2  -5 3205.82   97.66
  -1  -2  -6  874.29   44.50
   1   2   6  869.94   46.25
   1   2   6  911.23   43.26
   1   2   7   89.85   15.07
   1   2   7   52.51   10.78
  -1  -2  -7   55.01   11.41
   1   2   8  115.43   17.07
  -1  -2  -8   98.29   16.68
   1   2   8   92.45   16.01
   1   2   9 1539.77   72.46
   1   2   9 1507.87   75.01
  -1  -2  -9 1535.77   74.37
   1   2  10  972.82   58.35
  -1  -2 -10  935.70   59.22
   1   2  10  915.29   59.18
  -1  -2 -11 1081.76   68.38
   1   2  11 1162.62   68.07
   1   2  11 1172.30   70.62
  -1  -2 -12  225.15   31.77
   1   2  12  274.65   34.67
   1   2  12  275.86   33.45
   1   2  13   21.87   11.51
   1   2  13    3.42    9.71
  -1  -2 -13   23.61   12.18
   1   2  14   30.33   14.12
   1   2  14    9.12    9.10
  -1  -2 -14   31.25   14.14
   1   2  15  157.72   29.98
  -1  -2 -15  113.06   26.11
   1   2  16  162.90   31.83
  -1  -3  14  316.96   43.46
   1   3 -13 1198.07   76.45
  -1  -3  13 1077.63   79.48
  -1  -3  12  501.13   50.46
   1   3 -12  463.70   44.17
   1   3 -11  302.29   33.51
  -1  -3  11  347.78   39.98
   1   3 -10  129.64   20.33
  -1  -3  10  158.48   25.55
  -1  -3   9  726.72   53.16
  -1  -3   9  911.34   48.66
   1   3  -9  799.86   50.09
   1   3  -8 1176.44   58.93
  -1  -3   8 1342.17   57.86
  -1  -3   8 1231.17   66.77
  -1  -3   7  746.13   37.74
  -1  -3   7  678.57   37.49
  -1  -3   7  755.54   47.61
   1   3  -7  698.20   40.46
  -1  -3   6  304.95   27.86
  -1  -3   6  339.05   23.42
   1   3  -6  311.24   23.80
  -1  -3   6  339.19   23.56
  -1  -3   5   37.90    7.50
  -1  -3   5   32.01    6.76
   1   3  -5   19.57    5.53
  -1  -3   5   23.48    7.83
  -1  -3   4   48.78    7.41
  -1  -3   4   41.05    6.49
   1   3  -4   45.44    7.14
   1   3  -4   50.70   10.02
   1   3  -3    1.52    4.20
  -1  -3   3   20.62    4.52
   1   3  -2   39.03    7.96
  -1  -3   1   -1.61    2.74
   1   3  -1   11.44    5.10
   1   3  -1   10.41    4.62
   1   3   0  634.84   29.04
   1   3   0  672.06   30.76
  -1  -3   0  664.09   29.67
  -1  -3   0  662.68   19.24
  -1  -3  -1 2717.25   80.09
   1   3   1 2760.98   78.24
   1   3   1 2692.76   80.29
  -1  -3  -1 2856.08   69.78
   1   3   2 5777.28  148.04
   1   3   2 5934.92  152.74
   1   3   2 6183.40  151.85
  -1  -3  -2 6087.21  144.67
  -1  -3  -3  240.51   16.54
   1   3   3  204.82   17.78
   1   3   3  210.93   16.31
  -1  -3  -4   49.03    8.55
   1   3   4   70.55    9.54
   1   3   4   64.82   11.10
  -1  -3  -5 2625.06   85.04
   1   3   5 2572.40   89.23
   1   3   5 2516.61   81.07
   1   3   6 2581.57   94.67
   1   3   6 2622.59   87.88
  -1  -3  -6 2715.09   91.64
   1   3   7 1174.27   55.13
  -1  -3  -7 1115.20   55.97
   1   3   7 1162.27   59.95
   1   3   8  937.94   51.93
   1   3   8  865.90   53.82
  -1  -3  -8  945.01   53.49
   1   3   9   -8.38    7.68
   1   3   9    5.08    4.35
  -1  -3  -9   -2.67    6.44
  -1  -3 -10   24.67   10.43
   1   3  10   36.48   13.74
   1   3  10   16.57    9.02
  -1  -3 -11  565.02   48.60
   1   3  11  541.93   48.36
   1   3  11  653.91   50.94
  -1  -3 -12  169.03   27.72
   1   3  12  165.74   28.05
   1   3  12  125.37   23.57
   1   3  13  208.68   31.36
  -1  -3 -13  193.59   31.35
   1   3  13  171.98   29.75
   1   3  14   55.99   18.21
   1   3  14   50.68   16.87
  -1  -3 -14   48.59   16.90
   1   3  15   15.38   11.73
  -1  -3 -15   52.95   18.96
   1   3  16   75.13   22.23
  -1  -4  14   14.33   10.67
  -1  -4  13   -5.80    8.84
  -1  -4  12  232.20   35.17
  -1  -4  11  423.20   45.06
  -1  -4  10  489.51   46.11
   1   4 -10  510.64   40.74
  -1  -4   9  520.16   45.49
   1   4  -9  545.56   39.70
  -1  -4   8   10.66    5.72
  -1  -4   8    1.46    4.55
  -1  -4   8    1.26    7.16
   1   4  -8    7.31    4.90
  -1  -4   7    9.00    4.94
   1   4  -7   -4.29    3.72
  -1  -4   7   -1.64    4.15
  -1  -4   7    0.44    5.85
  -1  -4   6  401.43   33.83
  -1  -4   6  434.83   29.80
  -1  -4   6  425.95   27.60
   1   4  -6  445.83   28.00
   1   4  -5 1134.92   45.51
  -1  -4   5 1132.02   45.77
  -1  -4   5 1214.91   48.20
   1   4  -5 1155.82   58.57
   1   4  -4 2325.48   85.93
  -1  -4   4 2318.06   72.77
   1   4  -3 1808.74   70.09
   1   4  -2  927.72   44.63
   1   4  -1   22.39    6.69
   1   4   0  231.38   18.67
  -1  -4   0  184.98   16.99
  -1  -4  -1 1184.08   34.25
   1   4   1 1040.76   44.93
  -1  -4  -1 1068.45   46.49
  -1  -4  -2 4397.67  127.15
   1   4   2 4524.21  124.63
  -1  -4  -2 4646.49  114.37
   1   4   3 4940.37  141.22
  -1  -4  -3 5156.76  131.32
   1   4   3 5044.51  137.35
   1   4   4 1447.02   56.55
   1   4   4 1385.50   60.40
  -1  -4  -4 1410.16   53.47
   1   4   5    0.88    3.54
   1   4   5    4.43    5.74
  -1  -4  -5   -3.69    3.89
  -1  -4  -6  250.09   23.23
   1   4   6  244.63   22.67
   1   4   6  247.32   25.72
  -1  -4  -7 1082.30   55.13
   1   4   7 1077.84   53.18
   1   4   7  946.33   56.11
   1   4   8  178.73   21.82
  -1  -4  -8  144.73   21.04
   1   4   8  205.59   25.96
   1   4   9  463.81   37.87
  -1  -4  -9  414.48   37.23
   1   4   9  378.76   37.55
   1   4  10  219.36   29.48
  -1  -4 -10  142.82   23.29
   1   4  10  196.72   26.45
   1   4  11   20.36   10.63
   1   4  11   42.01   13.32
  -1  -4 -11   24.04   11.13
   1   4  12   94.10   20.72
  -1  -4 -12   77.95   19.08
   1   4  12   60.35   17.74
   1   4  13   -0.45    3.89
   1   4  13   -1.00    5.79
  -1  -4 -13  -12.33    9.81
   1   4  14    5.66    7.22
  -1  -4 -14   11.20    8.33
   1   4  15  143.65   29.73
  -1  -4 -15  208.75   36.04
  -1  -5  13  130.28   28.63
  -1  -5  12   66.32   19.42
  -1  -5  11   18.39   10.51
  -1  -5  10  188.71   29.62
  -1  -5   9  652.17   53.40
  -1  -5   8 1012.48   54.80
  -1  -5   8  840.86   59.09
  -1  -5   7  859.94   57.49
  -1  -5   7 1028.69   49.64
  -1  -5   7 1042.72   54.28
  -1  -5   6  142.36   16.32
  -1  -5   6  108.49   13.91
   1   5  -6  135.01   21.08
   1   5  -5  102.24   17.35
  -1  -5   5   90.90   12.39
  -1  -5   4  873.94   41.28
   1   5  -4  873.21   50.23
   1   5  -3 1351.06   62.52
   1   5  -2 1644.66   68.52
   1   5  -1 1213.85   55.33
  -1  -5   0  221.67   20.93
   1   5   0  224.35   20.91
  -1  -5  -1  205.29   20.21
  -1  -5  -1  207.24   11.22
   1   5   1  236.54   21.17
  -1  -5  -2   30.49    8.83
  -1  -5  -2   40.70    6.02
   1   5   2   18.52    6.69
  -1  -5  -3  386.56   22.84
   1   5   3  399.73   28.63
  -1  -5  -3  411.34   30.25
   1   5   4 1920.95   77.12
   1   5   4 1858.01   72.30
  -1  -5  -4 2036.21   76.61
  -1  -5  -4 1811.61   65.81
  -1  -5  -5 1110.15   50.77
   1   5   5 1043.58   52.61
   1   5   5 1250.58   60.80
   1   5   6  894.17   50.03
   1   5   6  909.72   54.44
  -1  -5  -6 1002.06   50.37
  -1  -5  -7  279.28   27.03
   1   5   7  280.38   30.64
   1   5   7  256.86   25.85
   1   5   8   24.01   10.24
   1   5   8   24.79    8.50
  -1  -5  -8   15.46    7.48
   1   5   9   15.11    7.41
   1   5   9    9.82    8.61
  -1  -5  -9    5.44    6.57
   1   5  10  242.35   29.58
  -1  -5 -10  203.98   28.23
   1   5  10  234.81   31.98
   1   5  11  649.80   51.28
   1   5  11  510.46   49.66
  -1  -5 -11  452.63   44.63
  -1  -5 -12  434.10   45.87
   1   5  12  395.21   42.60
   1   5  12  345.05   42.57
   1   5  13  255.92   35.76
  -1  -5 -13  230.23   34.90
   1   5  13  259.83   37.85
   1   5  14   88.49   23.19
  -1  -5 -14   85.16   22.86
   1   5  15   22.24   12.60
  -1  -5 -15   29.52   16.37
  -1  -6  12  503.34   54.44
  -1  -6  11 1312.30   87.68
  -1  -6  10  233.51   34.72
  -1  -6   9   -2.18    5.88
  -1  -6   8  560.67   49.29
  -1  -6   7 1541.10   83.72
  -1  -6   7 1805.33   80.36
  -1  -6   6  849.75   45.62
   1   6  -6  924.83   59.86
   1   6  -5  423.22   38.29
  -1  -6   5  459.59   31.98
  -1  -6   4   -0.22    3.94
   1   6  -4    9.23    7.80
   1   6  -3   41.48   11.41
   1   6  -2   68.00   13.37
   1   6  -1   -2.85    4.28
   1   6   0   98.56   15.46
   1   6   1  409.63   31.37
  -1  -6  -1  364.63   30.14
  -1  -6  -2 1656.24   72.02
  -1  -6  -2 1718.71   52.57
   1   6   2 1593.07   69.73
   1   6   3 1619.59   70.79
  -1  -6  -3 1777.14   58.53
  -1  -6  -3 1673.99   73.34
  -1  -6  -4 1529.32   69.47
  -1  -6  -4 1496.98   57.81
   1   6   4 1500.23   67.48
   1   6   5    3.76    4.46
  -1  -6  -5    2.17    4.68
  -1  -6  -5    5.53    5.01
   1   6   6  240.54   27.89
   1   6   6  213.33   24.49
  -1  -6  -6  267.19   25.11
  -1  -6  -6  192.98   23.75
   1   6   7 1183.30   68.02
  -1  -6  -7 1095.28   58.15
  -1  -6  -7 1078.51   60.51
   1   6   7 1072.56   60.47
  -1  -6  -8 1723.07   79.98
  -1  -6  -8 1629.92   77.47
   1   6   8 1612.28   80.07
   1   6   8 1577.33   84.63
   1   6   9  197.10   29.37
  -1  -6  -9  154.78   23.37
   1   6  10  165.98   28.52
   1   6  10  186.77   26.93
  -1  -6 -10  155.39   24.82
   1   6  11  230.49   31.60
  -1  -6 -11  250.11   32.85
   1   6  11  263.43   36.95
   1   6  12  322.52   38.44
  -1  -6 -12  211.60   31.91
   1   6  12  202.44   33.42
  -1  -6 -12  203.86   27.88
   1   6  13  417.53   46.53
  -1  -6 -13  441.24   49.17
   1   6  13  449.18   51.86
  -1  -6 -14  428.12   50.13
   1   6  14  378.07   49.26
  -1  -7  11  421.38   50.08
  -1  -7  10  351.27   43.97
  -1  -7   9  644.46   58.03
  -1  -7   8  132.29   25.42
   1   7  -7   10.76    8.50
   1   7  -6  243.36   31.53
   1   7  -5  781.39   55.78
  -1  -7   5  712.70   44.33
  -1  -7   4  510.44   36.26
   1   7  -4  434.74   40.35
   1   7  -3  776.36   52.88
   1   7  -2  456.67   38.58
   1   7  -1  597.47   43.43
   1   7   0  702.21   46.74
  -1  -7  -1    7.24    5.17
   1   7   1   19.32    7.25
   1   7   2  162.01   21.38
  -1  -7  -2  199.79   24.03
  -1  -7  -3 1006.36   58.48
   1   7   3 1081.28   59.32
  -1  -7  -3 1090.03   43.44
  -1  -7  -4 1949.20   88.05
   1   7   4 2079.67   88.13
  -1  -7  -4 2134.76   72.87
  -1  -7  -5 1152.83   52.79
   1   7   5 1120.43   61.78
  -1  -7  -5 1010.35   60.34
  -1  -7  -6  345.71   34.19
  -1  -7  -6  357.85   29.69
   1   7   6  306.98   31.75
  -1  -7  -7  140.86   22.37
   1   7   7  103.35   19.16
  -1  -7  -7  137.25   19.58
   1   7   8  657.42   50.31
  -1  -7  -8  720.46   51.96
  -1  -7  -8  718.55   49.11
  -1  -7  -9 1086.56   66.87
   1   7   9 1165.20   70.99
  -1  -7  -9 1153.05   67.55
   1   7   9 1034.82   72.56
   1   7  10  595.89   51.74
  -1  -7 -10  625.44   49.89
   1   7  10  500.88   50.99
  -1  -7 -10  580.32   49.61
   1   7  11   64.83   20.68
  -1  -7 -11   61.42   17.18
   1   7  11   76.15   20.29
  -1  -7 -11   55.06   15.02
  -1  -7 -12   72.89   18.61
   1   7  12   78.76   21.31
   1   7  12   87.85   23.43
  -1  -7 -12  135.98   25.89
   1   7  13   -6.52    8.81
  -1  -7 -13   10.97   13.09
   1   7  13   26.68   15.61
   1   7  14   42.73   16.97
   1   7  14   -0.91   11.19
  -1  -7 -14    8.59   11.71
  -1  -8  10   16.85   10.68
  -1  -8   9   77.47   21.72
  -1  -8   8  255.22   36.33
   1   8  -7  872.44   67.39
   1   8  -6  772.13   61.19
  -1  -8   5  509.93   39.33
   1   8  -5  401.32   42.26
   1   8  -4    4.68    8.66
  -1  -8   4   -4.40    5.07
   1   8  -3   64.76   16.76
   1   8  -2  523.32   44.47
   1   8  -1  484.14   42.49
   1   8   0  840.76   55.73
   1   8   1  975.01   60.21
  -1  -8  -2   24.05   10.67
   1   8   2   50.83   13.71
   1   8   3   13.29    8.07
  -1  -8  -3   10.98    7.91
  -1  -8  -4  432.44   39.83
   1   8   4  505.00   42.28
  -1  -8  -5  340.70   36.00
   1   8   5  337.03   34.89
   1   8   6  673.75   51.47
  -1  -8  -6  719.04   53.79
  -1  -8  -6  802.47   46.29
   1   8   7  171.76   26.07
  -1  -8  -7  169.79   26.11
  -1  -8  -7  193.79   23.65
  -1  -8  -8  108.43   21.21
  -1  -8  -8  106.14   18.76
   1   8   8  117.85   22.44
  -1  -8  -9   20.84   10.65
   1   8   9  -10.45    7.83
  -1  -8  -9    6.79    7.71
   1   8  10  150.49   26.96
  -1  -8 -10  189.21   29.05
  -1  -8 -10  195.01   28.86
  -1  -8 -11   16.65    8.11
   1   8  11   30.62   12.93
  -1  -8 -11   13.03    8.74
   1   8  12  209.60   34.45
  -1  -8 -12  184.84   31.21
  -1  -8 -12  270.54   35.79
   1   8  13  112.51   26.69
  -1  -8 -13   95.91   23.17
   1   8  14  364.22   48.78
  -1  -8 -14  321.68   45.08
  -1  -9   9  481.16   54.49
  -1  -9   8   82.95   22.68
   1   9  -7   83.71   22.28
   1   9  -6  917.75   71.07
   1   9  -5 1571.64   92.22
   1   9  -4  840.74   64.61
  -1  -9   4 1006.45   60.75
   1   9  -3  208.14   30.82
   1   9  -2   -1.15    7.14
   1   9  -1    3.01    5.37
   1   9   0   22.67   10.89
   1   9   1   39.49   12.73
   1   9   2  365.56   38.04
   1   9   3  229.84   29.93
   1   9   4  153.19   25.23
  -1  -9  -4  256.97   32.77
  -1  -9  -5  209.11   29.74
   1   9   5  164.38   26.08
  -1  -9  -6   12.74    9.48
   1   9   6   -6.84    6.54
  -1  -9  -7   63.70   17.47
   1   9   7   61.69   16.86
  -1  -9  -8  722.16   58.87
   1   9   8  682.48   57.19
   1   9   9  613.44   55.66
  -1  -9  -9  719.57   58.98
   1   9  10  510.86   51.87
  -1  -9 -10  510.50   50.16
   1   9  11   60.84   19.04
  -1  -9 -11   92.64   21.69
  -1  -9 -11   58.07   17.57
  -1  -9 -12   16.55   11.13
   1   9  12   22.94   12.51
  -1  -9 -12    6.98    8.90
   1   9  13   15.03   10.94
  -1  -9 -13   -8.19    9.76
   1  10  -7  314.36   44.48
   1  10  -6   29.24   14.41
   1  10  -5  103.55   24.45
   1  10  -4  223.48   34.38
   1  10  -3  295.81   39.18
   1  10  -2   19.68   11.52
   1  10  -1  103.34   21.75
   1  10   0   63.53   17.80
   1  10   1  137.17   25.78
   1  10   2  100.69   21.25
   1  10   3   88.96   20.16
   1  10   4  447.14   45.81
   1  10   5 1105.17   74.51
  -1 -10  -5  984.12   71.25
   1  10   6 1311.51   82.50
  -1 -10  -6 1150.41   78.37
   1  10   7  521.21   51.43
  -1 -10  -7  525.24   51.54
  -1 -10  -8   13.82    9.65
   1  10   8  -17.69   10.58
   1  10   9  262.83   37.82
  -1 -10  -9  289.59   39.10
  -1 -10 -10  920.45   72.05
   1  10  10  901.15   73.26
   1  10  11  561.41   58.78
  -1 -10 -11  494.69   52.81
   1  10  12  181.70   33.60
  -1 -10 -12  187.80   32.05
   1  11  -5  234.92   38.09
   1  11  -4   80.77   22.01
   1  11  -3   19.58   11.99
   1  11  -2    2.03   10.34
   1  11  -1   58.97   17.65
   1  11   0  172.77   30.66
   1  11   1  373.12   44.54
   1  11   2  328.48   41.63
   1  11   3  338.34   42.15
   1  11   4    8.21    7.60
   1  11   5   80.50   21.49
   1  11   6  507.64   52.85
   1  11   7  723.61   64.68
  -1 -11  -8  345.37   44.78
   1  11   8  294.59   41.50
  -1 -11  -9   66.92   21.34
   1  11   9   54.34   18.75
  -1 -11 -10   25.81   12.38
   1  11  10    6.26    8.15
   1  12  -2  357.70   47.85
   1  12  -1    0.11    5.35
   1  12   0   59.08   19.78
   1  12   1  126.79   27.49
   1  12   2  127.06   27.38
   1  12   3   97.98   24.08
   1  12   4  201.16   34.61
   1  12   5  160.56   31.05
   1  12   6   26.90   13.33
   1  12   7    4.68    8.64
   1  12   8  132.61   29.80
  -2  11   6   67.50   21.79
  -2  11   5   48.13   18.51
  -2  11   4  227.53   38.05
  -2  11   3   97.76   24.37
  -2  11   2  490.25   55.45
  -2  11   1   14.52   10.58
  -2  11   0  126.99   28.01
  -2  11  -1  887.77   76.13
  -2  11  -2 1198.80   88.99
   2 -11   2 1133.51   83.85
   2 -11   3  366.97   47.06
  -2  11  -3  457.44   54.16
   2 -11   4  149.88   30.27
   2 -11   5   61.99   19.96
  -2  10   9   61.44   21.14
  -2  10   8  488.76   56.33
  -2  10   7   22.67   12.76
  -2  10   6   35.92   15.41
  -2  10   5   19.62   11.98
  -2  10   4   73.65   21.42
  -2  10   3   45.21   17.88
  -2  10   2  720.47   63.60
  -2  10   1  329.23   42.47
  -2  10   0  783.50   66.65
  -2  10  -1   45.44   16.15
  -2  10  -2  203.04   34.04
   2 -10   2  294.39   39.70
   2 -10   3  697.59   61.96
  -2  10  -3  769.55   66.90
  -2  10  -4 1101.25   82.39
   2 -10   4 1087.45   78.71
  -2  10  -5   89.68   24.30
   2 -10   5  141.61   28.24
   2 -10   6  237.37   39.86
  -2  10  -6  216.32   37.34
   2 -10   6  320.11   41.49
  -2   9  10  180.20   34.52
  -2   9   9    4.43    7.30
  -2   9   8  619.01   60.82
  -2   9   7  640.79   60.85
  -2   9   6  837.53   68.31
  -2   9   5    1.49    8.78
  -2   9   4    0.50    6.65
  -2   9   3  179.65   30.11
  -2   9   2  214.20   32.40
  -2   9   1    6.63    7.78
  -2   9   0  574.90   52.81
  -2   9  -1  122.26   24.38
  -2   9  -2  731.10   61.01
   2  -9   3  111.87   23.78
  -2   9  -3   93.12   22.05
   2  -9   4   67.54   18.00
  -2   9  -4  100.98   23.05
  -2   9  -5    1.46    5.32
   2  -9   5   13.42   10.07
  -2   9  -6  314.07   41.47
   2  -9   6  247.01   38.48
   2  -9   6  273.16   37.08
  -2   9  -7  101.34   24.40
   2  -9   7  166.47   32.25
   2  -9   7  192.33   31.33
   2  -9   8  761.61   70.02
  -2   9  -8  720.28   67.56
   2  -9   9   75.96   22.27
  -2   8  12  300.86   45.97
  -2   8  11  279.54   42.88
  -2   8  10  996.57   79.72
  -2   8   9  305.94   42.17
  -2   8   8   23.18   11.70
  -2   8   7   47.72   15.88
  -2   8   6  847.73   65.33
  -2   8   5  100.39   22.39
  -2   8   4  645.28   54.13
  -2   8   3  111.51   21.76
  -2   8   2  433.82   43.43
  -2   8   1  294.53   34.91
  -2   8   0   30.48   11.07
  -2   8  -1    7.23    7.10
  -2   8  -2 1326.91   79.39
   2  -8   3  592.74   50.59
  -2   8  -3  623.13   52.94
   2  -8   4 1756.20   92.59
  -2   8  -4 1773.53   95.94
  -2   8  -5  208.02   31.61
   2  -8   5  245.52   32.74
   2  -8   6   -3.50    9.37
  -2   8  -6    7.15    5.98
   2  -8   6   15.41    9.39
   2  -8   7  102.58   22.05
  -2   8  -7  149.73   27.76
   2  -8   7  144.97   28.30
  -2   8  -8  475.03   50.94
   2  -8   8  411.49   48.43
   2  -8   9  153.65   29.43
   2  -8  10  324.99   44.06
  -2   7  13  107.85   28.67
  -2   7  12   15.89   12.38
  -2   7  11   36.42   16.87
  -2   7  10  236.33   37.06
  -2   7   9  185.83   31.25
  -2   7   8  758.90   62.24
  -2   7   7   99.91   21.57
  -2   7   6   37.83   13.21
  -2   7   5   98.30   20.31
  -2   7   4   30.89   11.11
  -2   7   3  145.33   24.03
  -2   7   2  939.14   60.80
  -2   7   1  454.18   41.07
  -2   7   0 1898.70   89.86
  -2   7  -1 1313.27   72.54
  -2   7  -2  206.84   27.83
  -2   7  -3   26.66   12.54
   2  -7   3    8.55    7.43
  -2   7  -4 1895.99   93.38
   2  -7   4 1787.79   89.20
  -2   7  -5 1119.54   71.27
   2  -7   5 1238.06   72.10
   2  -7   6 1530.86   88.76
   2  -7   6 1569.55   84.10
  -2   7  -6 1457.87   84.69
   2  -7   7    9.41    8.62
  -2   7  -7  -15.37   10.39
   2  -7   7    7.60    9.59
  -2   7  -8  105.67   22.84
   2  -7   8   70.79   19.34
   2  -7   9  112.42   24.08
   2  -7   9  104.85   23.30
   2  -7  10  125.68   26.41
   2  -7  10  208.59   33.97
   2  -7  11   16.10   13.51
  -2   6  14  -10.17   10.42
  -2   6  13  -12.19   11.42
  -2   6  12   71.33   22.31
  -2   6  11  560.62   57.36
  -2   6  10  639.19   58.91
  -2   6   9  683.32   58.26
  -2   6   9  684.10   58.81
  -2   6   8  179.20   28.66
  -2   6   7  384.80   39.88
  -2   6   6 1824.79   90.26
  -2   6   5  895.18   58.70
  -2   6   4  661.04   48.09
  -2   6   3  441.46   37.85
  -2   6   2    1.13    5.91
  -2   6   1    5.11    6.72
  -2   6   0 1162.66   62.66
  -2   6  -1   21.02    8.97
  -2   6  -2 1152.34   63.39
  -2   6  -3  464.32   39.71
   2  -6   3  511.79   40.58
   2  -6   4  256.12   29.37
  -2   6  -4  238.82   28.94
  -2   6  -5  134.10   21.88
   2  -6   5  158.26   23.05
   2  -6   6  551.71   45.40
  -2   6  -6  746.24   54.02
   2  -6   6  698.21   54.39
  -2   6  -7   73.07   18.31
   2  -6   7   78.47   18.84
   2  -6   7   98.71   19.98
   2  -6   8  707.65   58.12
  -2   6  -8  783.08   59.81
   2  -6   9   51.61   15.52
   2  -6   9   49.45   15.55
   2  -6   9   44.79   15.00
   2  -6  10  260.85   36.07
   2  -6  10  361.14   42.21
   2  -6  11   88.43   22.09
   2  -6  12   -4.54    9.43
  -2   5  14   78.84   23.96
  -2   5  13  343.09   46.80
  -2   5  12   -6.35    8.05
  -2   5  11   61.45   18.08
  -2   5  10 1177.24   78.96
  -2   5   9 2236.37  110.01
   2  -5  -9 2376.56   91.61
  -2   5   8 1143.02   72.01
   2  -5  -8 1231.68   60.95
  -2   5   7  468.80   42.29
   2  -5  -7  480.53   35.46
  -2   5   6  962.96   59.71
  -2   5   6  900.61   57.96
  -2   5   5  200.40   25.38
  -2   5   4 1941.35   84.52
  -2   5   3  216.59   24.32
  -2   5   2  328.13   29.63
  -2   5   1  581.91   39.45
  -2   5   0    5.72    5.81
  -2   5  -1  628.48   40.99
  -2   5  -2  240.22   25.45
  -2   5  -2  281.93   16.50
  -2   5  -3   16.05    7.55
   2  -5   3    8.33    5.90
  -2   5  -3   18.40    4.37
  -2   5  -4 2425.56   97.55
  -2   5  -4 2626.65   75.04
   2  -5   4 2273.94   94.85
  -2   5  -5 1385.56   70.01
   2  -5   5 1332.28   68.02
  -2   5  -6 1004.51   60.11
   2  -5   6 1035.83   59.58
   2  -5   6  940.75   61.29
  -2   5  -7  260.44   30.74
   2  -5   7  259.02   31.72
   2  -5   8  487.80   43.03
  -2   5  -8  477.67   43.78
   2  -5   8  491.60   45.09
   2  -5   9   51.70   15.22
   2  -5   9   35.14   13.51
   2  -5   9   74.29   18.56
   2  -5  10  736.89   58.61
   2  -5  10  808.66   60.00
   2  -5  10  807.40   61.59
   2  -5  11  222.33   33.30
   2  -5  11  297.61   36.80
   2  -5  12  427.33   47.15
   2  -5  13   97.42   24.00
  -2   4  15   52.56   19.18
  -2   4  14  266.55   41.73
  -2   4  13  514.66   56.05
  -2   4  12  359.76   44.56
   2  -4 -12  274.33   37.57
  -2   4  11  887.73   68.69
   2  -4 -11  803.61   62.59
  -2   4  10   48.36   16.68
   2  -4 -10   36.11   14.04
   2  -4  -9   26.87   11.24
  -2   4   9   28.86   12.38
   2  -4  -8 1390.99   73.41
  -2   4   8 1440.39   78.63
   2  -4  -8 1423.83   61.40
  -2   4   7 1516.81   77.99
   2  -4  -7 1549.97   64.13
   2  -4  -6  232.18   21.82
  -2   4   6  208.79   25.52
  -2   4   5  353.23   31.79
  -2   4   4  607.57   40.64
  -2   4   4  630.84   41.50
  -2   4   3  194.34   21.51
  -2   4   2  402.09   30.03
  -2   4   1   56.66   11.13
  -2   4   0  514.14   33.62
  -2   4  -1 3021.01  100.00
  -2   4  -2  632.95   26.99
  -2   4  -2  566.10   36.52
  -2   4  -3 4070.99  129.13
   2  -4   3 4352.77  132.45
  -2   4  -3 4196.60  109.95
   2  -4   4  240.77   24.38
  -2   4  -4  255.79   24.73
  -2   4  -4  230.26   17.11
  -2   4  -5  268.78   20.01
   2  -4   5  229.87   24.76
   2  -4   5  262.99   28.21
  -2   4  -5  289.60   27.51
  -2   4  -6 2324.09   95.13
  -2   4  -6 2487.64   82.45
   2  -4   6 2480.80   96.85
   2  -4   6 2653.47  104.38
  -2   4  -7 2099.01   90.95
   2  -4   7 2111.09   94.60
  -2   4  -7 2039.09   76.71
   2  -4   8   72.73   16.30
  -2   4  -8   72.78   13.29
   2  -4   8  105.06   18.94
   2  -4   8  109.38   19.40
   2  -4   9   37.99   11.96
   2  -4   9   45.43   13.45
   2  -4   9   34.71   12.52
   2  -4  10  857.22   60.52
   2  -4  10  891.89   61.39
   2  -4  11   89.78   20.40
   2  -4  11   88.58   19.65
   2  -4  12  423.87   44.96
   2  -4  12  403.08   43.62
   2  -4  13   48.61   17.52
  -2   3  15   28.38   14.64
  -2   3  14    3.08    7.11
   2  -3 -13   32.25   15.47
  -2   3  13   -1.14    5.56
  -2   3  12    4.87    6.66
   2  -3 -12  -15.45   11.29
  -2   3  12   19.73   13.23
   2  -3 -11  426.19   44.01
  -2   3  11  452.99   47.04
  -2   3  11  363.93   39.37
  -2   3  10  245.09   32.68
  -2   3  10  261.05   30.87
   2  -3 -10  173.62   26.97
  -2   3   9 1477.99   82.32
  -2   3   9 1548.51   78.83
   2  -3  -9 1556.30   80.35
   2  -3  -8  123.08   14.48
  -2   3   8   79.60   17.16
   2  -3  -8  129.18   21.19
   2  -3  -7  372.30   25.39
  -2   3   7  367.27   34.54
   2  -3  -7  357.74   32.87
  -2   3   6  562.21   41.13
   2  -3  -6  601.01   40.01
   2  -3  -6  597.20   32.43
   2  -3  -5 2307.63   75.33
  -2   3   5 2197.90   86.97
  -2   3   4 1333.37   60.39
  -2   3   3 5278.97  150.65
  -2   3   2    5.28    4.11
  -2   3   1 1840.11   66.44
  -2   3   0  371.67   25.26
  -2   3  -1  101.82   12.93
   2  -3   2 1721.85   66.80
  -2   3  -2 1828.95   65.85
  -2   3  -3 3284.16   88.48
  -2   3  -3 3132.10   99.04
   2  -3   3 2965.30  100.63
  -2   3  -4  390.27   28.14
   2  -3   4  352.97   28.01
  -2   3  -4  376.49   22.80
   2  -3   4  347.00   29.48
  -2   3  -5 1135.48   53.75
   2  -3   5 1025.99   55.65
  -2   3  -5 1130.35   46.56
   2  -3   5 1088.74   54.14
  -2   3  -6 1019.99   47.03
  -2   3  -6 1082.54   54.56
   2  -3   6  984.41   56.42
   2  -3   7   -1.98    5.95
  -2   3  -7    6.98    5.74
   2  -3   7    2.29    4.76
   2  -3   8 1143.51   61.91
   2  -3   8 1179.57   65.14
  -2   3  -8 1124.51   56.16
   2  -3   8 1113.77   63.02
   2  -3   9  409.65   37.92
  -2   3  -9  359.61   31.95
   2  -3   9  367.43   34.82
   2  -3  10   75.25   17.02
  -2   3 -10  109.32   18.71
   2  -3  10  105.53   20.10
   2  -3  11  323.41   36.86
   2  -3  11  321.56   35.91
  -2   3 -11  272.31   31.26
   2  -3  12    3.17    6.79
   2  -3  12    2.26    7.53
  -2   3 -12   25.85   11.65
   2  -3  13  172.14   29.41
   2  -3  13  177.25   29.65
  -2   2  15  214.29   36.95
  -2   2  14   -2.95    7.28
   2  -2 -14    6.63    7.97
  -2   2  13  374.58   41.11
  -2   2  13  414.35   47.94
   2  -2 -13  330.18   42.58
  -2   2  12  103.07   21.16
  -2   2  12   90.80   21.57
   2  -2 -12  129.63   25.39
  -2   2  11   80.70   17.16
  -2   2  11  104.83   22.72
   2  -2 -11   60.13   16.56
  -2   2  10   -0.98    5.28
  -2   2  10    6.34    9.79
   2  -2 -10    1.60    5.73
  -2   2   9 1739.63   87.62
   2  -2  -9 1720.15   83.95
  -2   2   9 1666.47   78.95
  -2   2   8  627.21   42.72
   2  -2  -8  581.90   30.09
  -2   2   8  692.03   49.30
   2  -2  -8  571.93   43.16
  -2   2   7 3548.25  127.79
   2  -2  -7 3760.37  125.68
   2  -2  -7 3594.39  101.96
  -2   2   7 3702.22  121.64
  -2   2   6  398.75   33.18
   2  -2  -6  456.72   33.47
   2  -2  -6  392.97   22.80
   2  -2  -5  199.16   20.70
   2  -2  -5  202.00   15.38
  -2   2   5  221.35   22.71
  -2   2   4  962.53   47.68
  -2   2   3 3192.96   99.05
  -2   2   2  934.10   41.82
  -2   2   1 2895.69   85.84
  -2   2   0   83.60   10.23
  -2   2  -1 2681.53   79.23
   2  -2   2  153.77   15.62
  -2   2  -2  155.39   14.09
   2  -2   3   54.48    9.88
   2  -2   3   55.92   11.06
  -2   2  -3   62.06    8.40
  -2   2  -3   64.61    9.75
  -2   2  -4  540.11   30.58
   2  -2   4  577.99   35.99
  -2   2  -4  539.49   28.23
   2  -2   4  494.11   31.77
  -2   2  -5 2936.63   94.11
  -2   2  -5 2880.13   89.75
   2  -2   5 2869.39  101.06
   2  -2   6  678.84   42.40
  -2   2  -6  686.57   37.72
   2  -2   6  745.65   44.80
   2  -2   7  823.63   46.39
  -2   2  -7  922.29   47.39
   2  -2   7  843.47   50.45
   2  -2   7  924.50   52.27
   2  -2   8    4.44    4.99
  -2   2  -8    1.57    5.77
   2  -2   8   -2.48    5.56
  -2   2  -9    5.37    4.50
   2  -2   9    7.41    7.09
   2  -2   9    1.64    6.11
   2  -2  10  642.19   47.19
   2  -2  10  681.51   50.88
  -2   2 -10  648.87   46.85
   2  -2  11  665.09   52.48
  -2   2 -11  632.75   48.80
   2  -2  11  686.96   51.58
  -2   2 -12  495.89   45.38
   2  -2  12  576.09   49.33
   2  -2  12  482.75   46.64
  -2   2 -13  521.68   48.73
   2  -2  13  437.06   46.47
   2  -2  13  547.29   50.62
  -2   2 -14   75.16   19.78
   2  -2  14   74.70   20.37
  -2   1  15    4.95   10.78
   2  -1 -14   16.22   11.29
  -2   1  14    0.80    6.86
  -2   1  13  287.00   39.53
   2  -1 -13  256.37   36.92
  -2   1  12  428.28   40.95
  -2   1  12  389.35   44.01
   2  -1 -12  422.28   44.72
  -2   1  11 1640.78   90.43
  -2   1  11 1640.73   81.59
   2  -1 -11 1576.58   87.64
  -2   1  10  769.77   57.23
  -2   1  10  917.62   55.31
   2  -1 -10  745.43   55.18
  -2   1   9   81.96   15.10
  -2   1   9   80.78   17.78
   2  -1  -9   83.67   16.96
   2  -1  -8  213.25   14.95
  -2   1   8  268.60   29.69
  -2   1   8  259.32   25.57
   2  -1  -8  238.36   26.91
  -2   1   7 3224.72  105.46
   2  -1  -7 2855.44   86.12
  -2   1   7 3151.87  113.91
   2  -1  -7 3322.64   84.65
   2  -1  -7 3131.31  110.93
  -2   1   6 1253.67   53.75
  -2   1   6 1173.94   58.27
   2  -1  -6 1136.80   42.97
   2  -1  -6 1128.51   55.51
   2  -1  -6 1168.59   38.53
  -2   1   5 5618.34  151.68
   2  -1  -5 5397.35  156.30
   2  -1  -5 5700.51  134.40
  -2   1   5 5550.33  159.87
  -2   1   4    7.84    4.94
   2  -1  -4   15.77    3.67
  -2   1   3   22.45    6.64
  -2   1   2  737.12   33.73
  -2   1   1  417.46   22.29
  -2   1   0 4801.18  118.49
  -2   1  -1   88.00    8.74
   2  -1   1   76.34   10.22
   2  -1   1   61.42    8.75
   2  -1   2  373.38   23.83
   2  -1   2  355.94   22.48
  -2   1  -2  396.55   19.46
  -2   1  -3 7093.68  170.46
   2  -1   3 7182.21  177.28
  -2   1  -3 7076.17  168.66
   2  -1   3 6217.43  177.33
  -2   1  -4  739.80   34.67
   2  -1   4  807.26   41.57
  -2   1  -4  790.60   34.45
  -2   1  -5  702.32   35.81
   2  -1   5  652.60   37.96
   2  -1   5  695.80   40.03
  -2   1  -6  404.25   28.47
   2  -1   6  441.09   32.09
   2  -1   6  413.49   27.44
   2  -1   7 3862.61  121.27
   2  -1   7 4037.55  107.69
   2  -1   7 4346.00  133.89
  -2   1  -7 3924.05  124.66
   2  -1   8 1209.64   58.01
  -2   1  -8 1207.32   60.12
   2  -1   8 1322.95   65.87
   2  -1   9 3883.08  135.91
  -2   1  -9 3710.89  129.96
   2  -1   9 3842.82  127.89
   2  -1  10   11.72    7.49
  -2   1 -10   14.15    8.07
   2  -1  10   12.22    9.09
   2  -1  11    3.23    5.91
   2  -1  11    4.22    6.40
  -2   1 -11   -8.38    7.16
   2  -1  12  620.74   52.53
  -2   1 -12  568.05   49.22
   2  -1  12  584.44   48.83
   2  -1  13  515.93   49.71
   2  -1  13  492.91   46.79
  -2   1 -13  410.87   44.04
   2  -1  14   93.82   22.18
  -2   1 -14   49.85   16.54
  -2   1 -15  141.32   28.23
  -2   0  15  120.85   27.85
  -2   0  14   17.48   11.12
  -2   0  13   14.68    9.82
   2   0 -13   39.67   15.02
   2   0 -12   -2.22    5.57
  -2   0  12    1.12    7.99
  -2   0  11  566.19   50.58
   2   0 -11  581.42   49.87
  -2   0  11  671.07   47.39
  -2   0  10  308.75   35.02
  -2   0  10  272.94   28.14
   2   0 -10  260.60   31.24
   2   0  -9 1874.34   87.72
  -2   0   9 2042.97   92.74
  -2   0   9 2059.15   82.53
  -2   0   8  972.25   49.49
  -2   0   8  897.99   55.31
   2   0  -8  956.61   55.28
  -2   0   7  836.99   50.34
   2   0  -7  902.40   29.28
   2   0  -7  810.85   48.27
  -2   0   7  854.49   43.53
   2   0  -6  280.08   15.19
   2   0  -6  240.39   23.18
  -2   0   6  226.33   23.70
  -2   0   6  276.13   21.62
   2   0  -5  379.18   13.70
  -2   0   5  388.27   23.99
  -2   0   5  351.58   27.44
   2   0  -5  370.51   27.22
   2   0  -5  359.87   18.80
  -2   0   4  812.88   40.57
   2   0  -4  809.47   31.76
  -2   0   4  800.92   33.58
   2   0  -3 6481.72  161.36
  -2   0   3 6719.05  168.97
  -2   0   2  181.96   14.62
   2   0  -2  195.88   14.58
  -2   0   1 3494.45   91.23
   2   0  -1 3457.26   95.49
   2   0  -1 3575.39   87.05
   2   0   0  826.29   29.35
   2   0   0  789.50   30.31
  -2   0   0  841.02   27.37
   2   0   1   45.89    7.40
  -2   0  -1   64.04    4.84
   2   0   1   45.45    6.83
   2   0   2   39.73    7.87
   2   0   2   40.04    7.68
  -2   0  -2   49.97    7.20
  -2   0  -2   49.47    4.84
   2   0   3 5293.78  140.79
  -2   0  -3 5443.80  137.66
   2   0   3 5452.73  137.07
   2   0   4 1235.23   41.61
   2   0   4 1201.41   50.34
   2   0   4 1282.76   43.99
  -2   0  -4 1229.09   47.69
   2   0   5 6510.72  165.15
  -2   0  -5 6533.63  172.93
   2   0   5 6756.12  178.65
   2   0   5 6689.09  160.41
   2   0   6  170.67   16.07
   2   0   6  159.24   18.88
  -2   0  -6  155.00   17.69
   2   0   6  151.49   11.31
   2   0   7  204.58   22.80
   2   0   7  169.84   11.07
   2   0   7  159.47   17.13
  -2   0  -7  141.03   18.17
  -2   0  -8  664.77   42.65
   2   0   8  607.45   38.25
   2   0   8  680.41   45.33
   2   0   9 1065.19   60.33
  -2   0  -9  964.61   55.94
   2   0   9  921.91   52.10
   2   0  10  326.57   31.56
  -2   0 -10  353.78   34.63
   2   0  10  342.59   35.13
   2   0  11  893.31   56.80
  -2   0 -11  905.40   60.48
   2   0  11  979.98   64.18
   2   0  12    0.51    4.60
  -2   0 -12   20.28    9.96
   2   0  12   -4.61    7.52
   2   0  13  189.19   27.86
   2   0  13  177.18   29.04
  -2   0 -13  202.24   30.77
   2   0  14    0.94    5.71
  -2   0 -14  -13.31   10.30
   2   0  15    4.65    6.66
  -2   0 -15    9.00    8.81
  -2  -1  15  507.12   56.62
  -2  -1  14   73.60   21.37
   2   1 -13   69.28   18.84
  -2  -1  13   73.09   20.55
  -2  -1  12   82.66   20.32
   2   1 -12   54.76   16.43
   2   1 -11   68.32   17.04
  -2  -1  11   69.92   17.72
  -2  -1  10  408.59   33.37
   2   1 -10  371.18   36.88
  -2  -1  10  410.77   41.15
  -2  -1   9   18.03    9.16
  -2  -1   9   26.97    8.10
   2   1  -9   19.30    8.43
  -2  -1   8    4.45    6.09
   2   1  -8   -0.90    4.57
  -2  -1   8    4.73    3.91
  -2  -1   7 2451.32   96.19
  -2  -1   7 2522.68   82.53
   2   1  -7 2490.81   64.12
   2   1  -7 2371.13   91.34
  -2  -1   6 1526.84   68.50
   2   1  -6 1543.60   65.66
   2   1  -6 1680.43   47.69
  -2  -1   6 1594.00   57.52
  -2  -1   5 1582.75   65.12
   2   1  -5 1534.71   47.30
   2   1  -5 1557.63   61.82
  -2  -1   5 1653.00   53.39
  -2  -1   4 1142.01   49.74
   2   1  -4 1165.19   38.53
  -2  -1   4 1168.59   39.16
   2   1  -3 2440.33   67.19
  -2  -1   3 2303.21   74.95
  -2  -1   3 2409.41   62.31
  -2  -1   2  171.21   13.97
   2   1  -2  172.64   12.45
  -2  -1   1 6682.51  157.01
   2   1  -1 6557.06  158.64
   2   1   0 1102.43   38.59
  -2  -1   0 1151.58   33.14
   2   1   1 2503.40   67.39
   2   1   1 2534.64   70.21
   2   1   2  611.31   27.28
   2   1   2  615.35   25.95
  -2  -1  -2  643.74   27.41
   2   1   3  175.77   12.50
  -2  -1  -3  166.01   14.00
   2   1   3  169.62   15.06
   2   1   3  194.69    9.93
   2   1   4   53.99    6.64
   2   1   4   48.30    9.14
  -2  -1  -4   52.15    9.09
   2   1   4   52.23    6.57
   2   1   5 4981.83  117.40
  -2  -1  -5 4594.71  132.06
   2   1   5 4691.82  135.72
   2   1   5 4550.24  122.61
   2   1   6  528.65   29.53
   2   1   6  570.37   36.49
   2   1   6  572.25   23.17
  -2  -1  -6  605.81   36.10
  -2  -1  -7 3278.80  111.29
   2   1   7 3425.99  105.05
   2   1   7 3425.10   85.44
   2   1   7 3365.32  115.28
   2   1   8  175.59   22.34
  -2  -1  -8  173.23   21.43
   2   1   8  192.91   20.25
   2   1   9    2.49    4.16
  -2  -1  -9    4.86    5.78
   2   1   9    2.50    5.70
   2   1  10    2.68    6.21
   2   1  10   -2.63    4.59
  -2  -1 -10    5.59    7.43
   2   1  11  529.36   42.11
  -2  -1 -11  466.48   42.98
   2   1  11  541.49   46.78
   2   1  12   21.05   10.91
   2   1  12   15.18    8.50
  -2  -1 -12    4.39    7.08
  -2  -1 -13  363.33   42.60
   2   1  13  349.32   41.78
   2   1  13  433.60   42.21
  -2  -1 -14   82.36   20.68
   2   1  14  103.67   23.50
   2   1  15  469.48   52.41
  -2  -1 -15  458.09   51.49
   2   1  16  101.01   25.86
  -2  -2  15   -0.12    5.82
  -2  -2  14   51.80   18.20
  -2  -2  13   92.34   22.95
  -2  -2  12    0.54    6.65
   2   2 -12    9.07    8.19
  -2  -2  11  598.76   53.01
   2   2 -11  551.40   47.56
  -2  -2  10 1211.61   73.31
   2   2 -10 1104.64   65.90
  -2  -2   9  931.18   47.88
  -2  -2   9  844.72   58.21
   2   2  -9  907.91   55.50
  -2  -2   8 2233.03   96.81
   2   2  -8 2262.42   91.20
  -2  -2   8 2388.02   81.31
  -2  -2   7  192.06   23.95
  -2  -2   7  232.06   19.19
   2   2  -7  249.15   24.47
   2   2  -6  133.93   16.69
   2   2  -6  157.42   12.01
  -2  -2   6  160.39   19.73
  -2  -2   6  150.06   13.89
   2   2  -5 6600.17  159.96
  -2  -2   5 6482.90  153.46
  -2  -2   5 6619.34  181.12
  -2  -2   5 6775.41  160.68
  -2  -2   4 1375.11   55.93
   2   2  -4 1274.01   44.62
  -2  -2   4 1352.44   38.83
  -2  -2   4 1372.51   40.71
   2   2  -3  824.95   32.82
  -2  -2   3  846.58   24.76
  -2  -2   3  811.88   37.99
  -2  -2   2   42.01    7.47
   2   2  -2   41.15    6.60
  -2  -2   2   41.85    4.70
  -2  -2   1 4934.61  123.63
   2   2  -1 4925.27  125.08
   2   2  -1 4996.34  123.57
   2   2   0 1194.46   42.18
   2   2   0 1279.30   34.55
   2   2   0 1174.59   37.26
   2   2   1 4917.17  120.09
   2   2   1 4971.98  114.52
   2   2   1 4908.46  124.39
  -2  -2  -2 1758.55   54.78
   2   2   2 1808.71   46.52
   2   2   2 1790.21   55.20
   2   2   2 1704.81   55.38
   2   2   3 1067.17   31.95
   2   2   3 1069.85   43.15
  -2  -2  -3 1034.01   40.85
   2   2   3 1148.67   39.45
   2   2   4 1263.28   41.87
   2   2   4 1137.45   49.02
  -2  -2  -4 1164.75   47.00
   2   2   4 1152.64   38.50
  -2  -2  -5 1121.49   48.94
   2   2   5 1050.24   50.13
   2   2   5 1184.49   40.26
   2   2   5 1133.93   41.64
   2   2   6 2941.06  100.61
   2   2   6 2893.57   88.27
  -2  -2  -6 2826.43   96.82
   2   2   6 2992.22   80.03
   2   2   7  560.26   23.83
  -2  -2  -7  478.56   34.84
   2   2   7  508.72   31.97
   2   2   7  507.61   37.24
   2   2   8  347.44   27.87
  -2  -2  -8  303.89   28.97
   2   2   8  269.55   28.55
   2   2   9 4169.12  145.41
  -2  -2  -9 4232.35  143.09
   2   2   9 4262.21  135.93
   2   2  10  919.40   54.36
  -2  -2 -10  832.09   56.03
   2   2  10  915.19   59.96
   2   2  11  493.19   45.13
  -2  -2 -11  429.50   41.30
   2   2  11  448.86   39.62
   2   2  12    3.43    6.73
  -2  -2 -12    2.21    7.86
   2   2  12    7.81    6.63
  -2  -2 -13  325.11   40.13
   2   2  13  456.10   47.76
  -2  -2 -14   45.59   17.28
   2   2  14   80.85   20.97
  -2  -2 -15  633.35   61.68
   2   2  15  701.00   64.72
   2   2  16  112.69   27.86
  -2  -3  14  857.69   73.85
  -2  -3  13  166.61   31.44
  -2  -3  12  156.19   29.01
  -2  -3  11  164.14   28.33
   2   3 -10   56.90   14.27
  -2  -3  10   59.45   16.18
   2   3  -9  715.97   48.14
  -2  -3   9  745.93   54.42
  -2  -3   8 1012.91   60.98
  -2  -3   8 1048.62   47.36
   2   3  -8  996.67   54.63
  -2  -3   7  860.28   39.22
  -2  -3   7  833.47   51.74
  -2  -3   6 1174.97   60.71
  -2  -3   6 1322.35   47.08
  -2  -3   6 1373.03   48.54
  -2  -3   5  736.74   43.23
   2   3  -5  744.41   34.14
  -2  -3   5  807.03   31.18
  -2  -3   4  311.17   15.66
   2   3  -4  316.90   20.71
  -2  -3   4  341.80   26.29
   2   3  -3 3277.00   94.33
  -2  -3   3 3315.27   81.00
  -2  -3   3 3351.45   80.37
  -2  -3   3 3250.01  100.41
  -2  -3   2 1020.59   36.56
   2   3  -2 1050.33   41.36
   2   3  -2  931.80   41.42
  -2  -3   1  717.58   29.74
   2   3  -1  642.19   30.73
   2   3  -1  736.92   33.30
   2   3   0 1900.21   63.95
   2   3   0 2034.99   60.87
   2   3   0 2070.63   55.96
  -2  -3  -1  233.99   14.06
   2   3   1  205.75   13.73
   2   3   1  203.97   16.43
   2   3   1  235.88   15.18
   2   3   2  558.94   27.76
   2   3   2  547.96   28.02
  -2  -3  -2  545.46   25.13
   2   3   2  534.81   23.57
   2   3   3  873.49   36.77
   2   3   3  860.36   32.44
   2   3   3  784.93   37.82
  -2  -3  -3  876.28   36.49
  -2  -3  -4   16.46    5.90
   2   3   4   20.79    6.43
   2   3   4   13.84    4.61
   2   3   4   12.55    3.76
   2   3   5 2353.56   71.23
   2   3   5 2285.03   69.94
  -2  -3  -5 2192.16   77.78
   2   3   5 2268.51   82.59
  -2  -3  -6 2731.82   93.27
   2   3   6 2599.83   83.03
   2   3   6 2835.17   80.70
   2   3   6 2566.16   95.41
  -2  -3  -7 1793.39   75.59
   2   3   7 1818.89   69.05
   2   3   7 1964.15   61.58
   2   3   7 1865.60   80.06
   2   3   8  931.34   48.77
   2   3   8  956.09   56.58
  -2  -3  -8 1001.98   55.27
   2   3   9  781.95   53.36
   2   3   9  781.52   47.46
  -2  -3  -9  797.76   51.73
   2   3  10  995.27   63.63
   2   3  10  936.67   56.10
  -2  -3 -10  792.77   55.58
   2   3  11 1866.83   88.88
   2   3  11 1831.53   94.78
  -2  -3 -11 1875.94   93.41
   2   3  12  469.08   43.25
  -2  -3 -12  459.27   45.71
   2   3  12  425.27   44.85
   2   3  13  107.62   23.56
  -2  -3 -13   72.66   19.98
  -2  -3 -14   17.63   12.86
   2   3  14   30.25   14.72
   2   3  15  -29.47   14.94
  -2  -3 -15    3.50   12.72
   2   3  16  -31.40   15.50
  -2  -4  14  128.31   29.04
  -2  -4  13  167.10   32.04
  -2  -4  12  503.03   53.25
  -2  -4  11   -0.76    8.00
  -2  -4  10  179.40   28.52
  -2  -4   9    8.64    8.79
  -2  -4   8   31.03   11.12
  -2  -4   7   59.54   13.85
  -2  -4   7   56.04    9.75
  -2  -4   6 1749.05   58.58
  -2  -4   6 1667.65   62.36
  -2  -4   6 1708.53   77.27
  -2  -4   5  799.19   47.74
  -2  -4   5  928.46   35.81
  -2  -4   4 2726.69   95.74
   2   4  -4 2780.52   97.46
  -2  -4   4 2777.80   75.71
   2   4  -4 2675.67   87.33
  -2  -4   4 2771.80   76.02
   2   4  -3  158.37   18.10
   2   4  -3  182.93   17.58
   2   4  -2   66.38   10.84
  -2  -4   2   75.43   10.07
   2   4  -2   64.15   11.05
  -2  -4   1 1283.65   48.29
   2   4  -1 1237.78   50.99
   2   4  -1 1165.63   48.76
  -2  -4   0  615.63   31.73
   2   4   0  597.71   32.97
   2   4   0  551.26   29.78
  -2  -4   0  628.34   22.86
   2   4   1  793.57   34.16
   2   4   1  740.00   37.22
  -2  -4  -1  731.22   28.01
   2   4   1  728.41   33.53
   2   4   2 3320.61   96.07
   2   4   2 3377.06  102.52
  -2  -4  -2 3607.86   93.16
   2   4   2 3385.85  100.06
   2   4   3   14.21    5.99
   2   4   3    1.00    3.69
  -2  -4  -3    8.00    4.25
   2   4   3    3.72    3.15
   2   4   4  746.54   35.21
   2   4   4  674.00   39.14
  -2  -4  -4  738.70   36.37
   2   4   4  703.17   36.09
   2   4   5  804.66   38.71
  -2  -4  -5  815.50   41.30
   2   4   5  816.93   39.16
   2   4   5  740.98   44.04
   2   4   6  394.09   26.53
  -2  -4  -6  401.74   30.11
   2   4   6  418.38   33.49
   2   4   7 2286.50   80.32
   2   4   7 2149.59   91.47
  -2  -4  -7 2301.82   88.03
  -2  -4  -8 1833.61   81.29
   2   4   8 1985.61   76.55
   2   4   8 1913.94   88.09
   2   4   9  718.33   44.37
  -2  -4  -9  531.30   42.86
   2   4   9  638.68   49.47
   2   4  10  149.06   21.07
  -2  -4 -10  176.50   25.50
   2   4  10   98.85   20.54
   2   4  11  467.60   40.61
  -2  -4 -11  337.62   37.84
   2   4  11  348.45   39.94
   2   4  12   23.37   12.89
   2   4  12    3.43    8.01
  -2  -4 -12   10.96    9.12
   2   4  13  119.32   25.85
  -2  -4 -13  176.73   29.65
  -2  -4 -14   18.55   13.25
   2   4  14   -9.56    9.20
   2   4  15   81.99   23.62
  -2  -4 -15   56.71   19.40
  -2  -5  13  -20.09   13.42
  -2  -5  12   -6.66    9.05
  -2  -5  11    9.57    7.57
  -2  -5  10  149.34   26.68
  -2  -5   9  175.23   27.72
  -2  -5   8 2106.98   99.22
  -2  -5   7  562.50   35.59
  -2  -5   7  576.18   45.66
  -2  -5   6  985.28   58.54
   2   5  -5  508.43   40.03
  -2  -5   5  502.08   39.11
  -2  -5   5  595.05   29.38
  -2  -5   5  559.87   29.03
   2   5  -4 2950.04  106.19
  -2  -5   4 2908.86   86.41
   2   5  -3 2923.81  101.87
   2   5  -2 3305.13  108.04
   2   5  -1   37.28    8.89
  -2  -5   1   34.86    8.09
   2   5  -1   37.54    9.48
  -2  -5   1   38.43    4.10
  -2  -5   0    7.28    2.33
   2   5   0    5.42    5.07
  -2  -5   0    0.86    3.45
   2   5   0    5.84    4.17
  -2  -5  -1 3146.30   79.38
  -2  -5  -1 2945.75   97.17
   2   5   1 2996.81   99.33
   2   5   1 2814.48   93.01
   2   5   2  477.37   29.65
   2   5   2  501.54   33.13
  -2  -5  -2  553.46   25.48
  -2  -5  -2  550.59   34.19
   2   5   3  956.82   44.12
   2   5   3  858.59   45.53
   2   5   3  891.50   46.05
  -2  -5  -3 1056.61   41.33
   2   5   4  316.37   24.65
   2   5   4  381.30   29.86
  -2  -5  -4  359.20   24.81
   2   5   5   57.84   12.76
   2   5   5   63.22   11.08
  -2  -5  -5   72.13   11.84
  -2  -5  -6 1691.93   69.19
   2   5   6 1590.13   66.24
   2   5   6 1563.97   74.16
  -2  -5  -7   25.61    8.44
   2   5   7   16.66    9.40
   2   5   8  287.70   26.76
   2   5   8  247.92   30.28
  -2  -5  -8  312.43   30.50
   2   5   9  418.57   34.64
  -2  -5  -9  511.71   41.56
   2   5   9  402.57   40.26
  -2  -5 -10  673.92   51.37
   2   5  10  675.33   47.41
   2   5  10  747.74   58.18
  -2  -5 -11  677.84   54.50
   2   5  11  743.18   59.96
   2   5  11  645.98   49.03
  -2  -5 -12  482.25   47.87
   2   5  12  552.21   53.94
   2   5  13    8.14    8.85
  -2  -5 -13    0.88    6.73
   2   5  14   20.94   13.63
  -2  -5 -14   -7.21    9.10
   2   5  15  268.32   41.90
  -2  -5 -15  239.44   38.61
  -2  -6  12  314.68   43.59
  -2  -6  11   57.07   18.58
  -2  -6  10    6.67    9.51
  -2  -6   9   34.86   14.40
  -2  -6   8  604.24   51.78
  -2  -6   7  598.18   49.27
  -2  -6   6 1608.14   81.69
  -2  -6   5  264.85   21.48
   2   6  -5  193.74   25.92
  -2  -6   4   54.47    9.77
   2   6  -4   44.95   12.60
   2   6  -3  753.78   47.71
   2   6  -2 1445.25   67.29
   2   6  -1  995.94   51.97
  -2  -6   1  908.98   48.55
  -2  -6   0 1953.83   75.72
  -2  -6   0 1799.77   46.06
   2   6   0 1947.09   75.38
   2   6   1    4.13    4.08
  -2  -6  -1   12.44    7.39
  -2  -6  -1    5.53    2.07
  -2  -6  -2  411.00   22.37
  -2  -6  -2  472.66   34.58
   2   6   2  518.66   33.96
  -2  -6  -3   18.37    5.40
  -2  -6  -3    7.17    5.73
   2   6   3   23.48    7.71
  -2  -6  -4   12.43    6.14
   2   6   4   14.66    6.51
   2   6   4   24.82    8.50
  -2  -6  -4   19.31    5.97
   2   6   5  155.93   21.53
   2   6   5  193.13   21.39
  -2  -6  -5  205.80   20.38
   2   6   6 1250.99   61.00
   2   6   6 1291.22   69.03
  -2  -6  -6 1408.05   62.27
   2   6   7 1179.42   60.68
   2   6   7 1260.82   70.64
  -2  -6  -7 1183.15   60.72
   2   6   8 2130.84  101.85
  -2  -6  -8 2408.84   97.19
   2   6   8 2290.62   94.39
   2   6   9   86.92   20.44
   2   6   9   68.30   15.47
  -2  -6  -9   62.65   15.33
   2   6  10   59.09   18.28
  -2  -6 -10   91.32   21.30
  -2  -6 -11  688.72   56.20
   2   6  11  864.76   57.68
   2   6  11  682.44   60.45
  -2  -6 -12  744.61   60.36
   2   6  12  689.69   62.89
   2   6  13  438.54   51.78
  -2  -6 -13  473.79   50.28
   2   6  14  355.91   48.07
  -2  -6 -14  292.50   41.57
  -2  -7  11  190.85   34.29
  -2  -7  10  408.93   47.87
  -2  -7   9   18.24   11.95
  -2  -7   8   18.58    9.14
  -2  -7   7   20.80   11.68
   2   7  -6  709.02   55.32
   2   7  -5   19.27   10.34
   2   7  -4 1277.02   70.85
   2   7  -3    8.38    7.82
   2   7  -2  291.03   30.12
   2   7  -1   39.14   11.30
   2   7   0  330.10   30.61
  -2  -7   0  361.68   31.98
   2   7   1  101.79   16.77
  -2  -7  -1   97.28   16.98
   2   7   2 1259.99   62.05
  -2  -7  -2 1268.70   43.05
  -2  -7  -2 1200.56   63.27
   2   7   3   71.68   13.89
  -2  -7  -3   77.41   15.54
  -2  -7  -3   81.98   10.55
   2   7   4 2590.31   99.65
  -2  -7  -4 2809.90   88.76
  -2  -7  -4 2647.12  105.30
  -2  -7  -5  428.36   37.45
   2   7   5  406.64   34.09
  -2  -7  -5  419.30   29.90
  -2  -7  -6  309.78   27.45
   2   7   6  291.35   29.19
  -2  -7  -6  251.80   29.14
   2   7   6  276.93   31.72
  -2  -7  -7  191.80   22.93
   2   7   7  132.87   23.27
  -2  -7  -7  150.88   23.02
   2   7   7  158.14   22.12
   2   7   8 1831.05   85.33
  -2  -7  -8 1874.40   84.58
   2   7   8 1687.62   91.46
  -2  -7  -9  716.49   51.80
   2   7   9  679.17   56.93
   2   7   9  677.06   50.80
   2   7  10  911.55   62.13
  -2  -7 -10 1052.23   66.44
   2   7  10  807.21   65.87
  -2  -7 -11    5.08    7.36
   2   7  11    9.80   12.59
   2   7  11    3.52    6.30
   2   7  12   33.83   14.46
   2   7  12   33.53   12.84
  -2  -7 -12   40.23   14.90
   2   7  13  573.24   60.14
   2   7  13  592.65   56.10
  -2  -7 -13  490.06   48.17
  -2  -7 -13  497.44   52.50
  -2  -7 -14  443.93   51.20
   2   7  14  410.15   52.72
  -2  -8  10   29.62   15.21
  -2  -8   9   -0.30    6.14
  -2  -8   8  363.77   43.94
  -2  -8   7  356.25   41.74
   2   8  -6  591.80   52.95
   2   8  -5   72.59   18.05
   2   8  -4  189.54   27.99
   2   8  -3  426.66   40.50
   2   8  -2 3713.23  137.44
   2   8  -1 1260.42   69.83
   2   8   0 1302.53   69.89
  -2  -8  -1    9.12    6.47
   2   8   1   13.81    8.26
   2   8   2  533.63   42.15
  -2  -8  -2  577.86   45.10
   2   8   3  109.73   18.87
  -2  -8  -3  129.85   21.70
  -2  -8  -4  486.90   42.66
   2   8   4  597.82   44.29
  -2  -8  -5   12.96    7.39
  -2  -8  -5   34.28    9.06
   2   8   5    3.36    5.16
   2   8   6  566.61   45.05
  -2  -8  -6  636.61   40.72
  -2  -8  -6  653.83   50.78
   2   8   7   40.56   12.13
  -2  -8  -7   61.08   15.73
  -2  -8  -7   77.11   15.01
  -2  -8  -8   88.09   19.46
   2   8   8   86.81   17.97
  -2  -8  -8   95.65   18.24
  -2  -8  -9    3.05    5.49
   2   8   9    9.93    7.72
   2   8   9   -9.96    8.01
  -2  -8  -9    6.06    7.96
   2   8  10  243.06   32.21
  -2  -8 -10  191.55   29.40
   2   8  10  163.04   30.27
  -2  -8 -10  173.15   27.62
  -2  -8 -11   86.55   20.51
   2   8  11   98.20   21.72
  -2  -8 -11  117.70   23.20
   2   8  11   88.39   23.31
   2   8  12  794.48   64.79
  -2  -8 -12  737.77   60.91
  -2  -8 -12  771.87   63.40
   2   8  12  813.07   71.89
   2   8  13  238.77   41.94
  -2  -8 -13  155.51   27.88
  -2  -8 -13  187.28   32.47
  -2  -8 -14  116.13   27.09
  -2  -9   9   60.21   19.51
  -2  -9   8   23.55   12.62
  -2  -9   7  120.55   26.16
   2   9  -6 1075.56   76.75
   2   9  -5  915.68   68.56
   2   9  -4  512.22   49.16
   2   9  -3  374.60   40.63
   2   9  -2  336.49   37.51
   2   9  -1  472.46   44.20
   2   9   0 2104.58   99.27
   2   9   1  522.21   44.96
   2   9   2  196.53   27.35
  -2  -9  -2  248.34   31.13
   2   9   3   25.70   10.28
  -2  -9  -3   21.81   10.20
   2   9   4   64.10   15.63
  -2  -9  -4   29.47   11.89
  -2  -9  -5   16.77   10.83
   2   9   5    6.55    5.83
   2   9   6  157.93   24.91
  -2  -9  -6  181.35   28.20
   2   9   7   52.29   15.02
  -2  -9  -7   60.16   16.78
   2   9   8  743.70   57.14
  -2  -9  -8  665.06   56.70
  -2  -9  -9  307.48   38.61
   2   9   9  379.10   41.28
   2   9  10  213.61   31.43
  -2  -9 -10  153.14   27.76
  -2  -9 -10  229.47   31.71
   2   9  11   14.34   10.54
  -2  -9 -11    6.29   10.12
  -2  -9 -11   10.87   10.15
  -2  -9 -12   88.29   21.25
   2   9  12   99.80   23.64
  -2  -9 -12  105.83   23.65
  -2  -9 -13  313.74   41.37
  -2  -9 -13  232.93   36.63
  -2 -10   8   87.17   23.81
   2  10  -7   99.88   23.97
  -2 -10   7  121.75   26.95
   2  10  -6   94.28   24.37
   2  10  -5   63.16   20.00
   2  10  -4  821.48   66.24
   2  10  -3  330.21   40.68
   2  10  -2  358.01   41.10
   2  10  -1  122.77   23.97
   2  10   0   73.95   19.06
   2  10   1    2.08    8.45
   2  10   2  257.47   33.55
   2  10   3   12.32    8.97
  -2 -10  -3   18.77   11.30
  -2 -10  -4  268.14   35.53
   2  10   4  238.64   32.01
  -2 -10  -5  339.31   40.31
   2  10   5  387.05   41.03
  -2 -10  -6  428.85   46.37
   2  10   6  435.94   44.37
  -2 -10  -7  189.85   31.03
   2  10   7  195.06   30.55
  -2 -10  -8   73.02   19.45
   2  10   8   29.96   12.38
  -2 -10  -9  265.40   39.56
   2  10   9  372.08   43.28
  -2 -10 -10 1297.25   87.69
   2  10  10 1362.51   87.69
   2  10  11  481.01   51.99
  -2 -10 -11  546.28   55.84
  -2 -10 -12  144.69   28.94
   2  11  -6   85.60   24.66
   2  11  -5  376.95   47.83
   2  11  -4   50.75   16.38
   2  11  -3   37.07   14.56
   2  11  -2  332.97   42.39
   2  11  -1  495.08   51.65
   2  11   0  853.91   67.51
   2  11   1  441.38   47.60
   2  11   2   15.05    7.51
   2  11   3   -1.60    6.40
   2  11   4  459.68   48.38
   2  11   5  131.61   25.46
  -2 -11  -5  217.83   34.60
  -2 -11  -6  607.55   58.63
   2  11   6  706.34   60.40
   2  11   7  263.64   37.25
  -2 -11  -7  258.75   38.51
   2  11   8  112.28   24.47
  -2 -11  -8  159.04   30.79
   2  11   9  120.75   26.11
  -2 -11  -9  135.76   28.12
  -2 -11 -10   27.55   13.35
   2  11  10   38.74   15.67
   2  12  -3  841.43   73.46
   2  12  -2   40.55   17.27
   2  12  -1   -7.29    8.39
   2  12   0  639.55   61.54
   2  12   1  481.95   52.46
   2  12   2  492.23   52.87
   2  12   3  293.02   41.01
   2  12   4   12.11    9.68
   2  12   5    5.93    7.89
   2  12   6  175.60   31.43
   2  12   7   32.62   14.42
  -2 -12  -7    8.22   10.69
   2  12   8   85.82   22.90
   2  12   9   61.52   19.23
   2  13   2  142.64   30.42
   2  13   3   17.53   13.43
   2  13   4   27.43   14.50
   2  13   5   59.59   19.44
  -3  11   2   11.00    9.66
  -3  11   1  171.35   33.05
  -3  11   0  191.11   36.09
   3 -11   1  203.77   36.02
  -3  10   7   48.57   18.71
  -3  10   6    1.65    6.75
  -3  10   5   91.89   24.52
  -3  10   4  411.58   50.04
  -3  10   3  359.09   46.41
  -3  10   2  413.37   49.42
  -3  10   1   44.24   16.32
  -3  10   0  -11.22    9.43
  -3  10  -1  236.41   37.07
   3 -10   1  255.98   38.33
   3 -10   2  238.96   38.05
  -3  10  -2  272.62   40.11
   3 -10   3  523.42   55.41
  -3  10  -3  389.99   48.94
   3 -10   4  400.43   49.09
  -3  10  -4  384.47   48.39
   3 -10   5  144.25   30.09
   3 -10   5  193.31   37.05
  -3  10  -5  185.67   34.15
   3 -10   6   67.11   20.77
  -3   9   9   71.42   21.51
  -3   9   8  889.04   76.15
  -3   9   7  879.23   73.99
  -3   9   6  654.51   62.31
  -3   9   5    9.29    9.18
  -3   9   4  179.12   31.13
  -3   9   3  676.24   60.49
  -3   9   2  633.73   57.99
  -3   9   1  248.72   35.91
  -3   9   0   71.41   19.79
  -3   9  -1   10.01    8.25
  -3   9  -2    0.61    4.64
   3  -9   2    9.61    6.68
   3  -9   3   -1.32    4.86
  -3   9  -3   -1.29    7.08
  -3   9  -4   37.83   14.50
   3  -9   4   33.10   16.27
  -3   9  -5  231.78   35.67
   3  -9   5  264.62   40.48
   3  -9   5  279.85   39.10
  -3   9  -6  315.51   43.03
   3  -9   6  310.41   45.11
   3  -9   6  381.67   46.61
  -3   9  -7  881.35   73.61
   3  -9   7 1110.07   86.31
   3  -9   7  807.26   69.11
  -3   8  11  446.68   55.71
  -3   8  10  475.88   55.87
  -3   8   9   92.38   23.91
  -3   8   8   26.52   13.14
  -3   8   7   89.09   22.94
  -3   8   6  713.26   62.00
  -3   8   5  256.81   35.65
  -3   8   4  244.75   33.90
  -3   8   3    7.59    8.11
  -3   8   2  149.78   26.10
  -3   8   1   70.25   18.16
  -3   8   0  115.32   22.80
  -3   8  -1   81.69   18.81
  -3   8  -2  311.32   37.71
   3  -8   2  324.94   38.59
  -3   8  -3  467.25   46.65
   3  -8   3  449.31   46.02
  -3   8  -4  488.23   48.19
   3  -8   4  438.88   45.98
  -3   8  -5  192.57   30.69
   3  -8   5  168.01   28.89
   3  -8   5  177.52   31.97
   3  -8   6   -8.09    9.25
   3  -8   6    3.81    8.30
  -3   8  -6   20.71   12.77
  -3   8  -7  206.19   33.74
   3  -8   7  293.77   38.56
   3  -8   7  203.70   34.79
  -3   8  -8  857.15   70.21
   3  -8   8  691.28   66.46
  -3   8  -9  873.24   73.33
   3  -8   9 1013.94   81.71
   3  -8  10  233.47   39.14
  -3   7  12   -4.82    9.81
  -3   7  11   18.44   12.41
  -3   7  10  306.83   43.64
  -3   7   9  210.03   34.57
  -3   7   8  260.76   37.05
  -3   7   7  155.90   27.78
  -3   7   6   69.26   18.38
  -3   7   5    8.23    8.75
  -3   7   4  424.10   42.73
  -3   7   3  733.25   56.01
  -3   7   2 1128.93   69.84
  -3   7   1  289.44   33.26
  -3   7   0  366.72   37.61
  -3   7  -1   63.61   16.16
  -3   7  -2   14.81    9.14
   3  -7   2   37.17   12.99
  -3   7  -3  566.09   48.27
   3  -7   3  543.51   47.92
  -3   7  -4  908.64   63.70
   3  -7   4  978.20   66.07
  -3   7  -5  943.60   65.27
   3  -7   5  833.04   65.78
   3  -7   5  892.27   64.07
   3  -7   6  390.61   42.10
   3  -7   6  457.99   48.66
  -3   7  -6  375.72   41.46
   3  -7   7  -12.98    9.59
  -3   7  -7   -6.91    7.11
   3  -7   7   18.08   12.48
  -3   7  -8    5.50   10.56
   3  -7   8  -12.71    9.67
   3  -7   9  434.81   50.72
   3  -7   9  402.69   45.68
   3  -7  10  229.97   35.79
   3  -7  10  244.94   38.54
   3  -7  11  239.84   37.31
  -3   6  13  -17.79   14.19
  -3   6  12   23.34   12.92
  -3   6  11  109.24   27.02
  -3   6  10   55.20   18.48
  -3   6   9   77.03   20.45
  -3   6   8  154.76   27.65
  -3   6   7  207.28   30.70
  -3   6   6 1131.95   71.77
  -3   6   5 1456.75   80.47
  -3   6   4  473.74   42.69
  -3   6   3   18.37   11.80
  -3   6   2 1025.34   61.72
  -3   6   1 1827.49   85.80
  -3   6   0 1071.51   62.21
  -3   6  -1  473.59   39.90
  -3   6  -2  200.65   25.98
   3  -6   2  256.19   30.17
   3  -6   3    2.23    6.22
  -3   6  -3    4.55    7.28
  -3   6  -4   56.22   14.42
   3  -6   4   54.27   15.81
  -3   6  -5  377.09   37.89
   3  -6   5  351.44   37.18
   3  -6   5  297.98   36.54
  -3   6  -6  398.08   39.81
   3  -6   6  370.45   39.29
   3  -6   6  293.56   37.83
  -3   6  -7  568.47   49.44
   3  -6   7  562.77   52.82
   3  -6   7  452.49   44.54
  -3   6  -8  277.73   35.30
   3  -6   8  286.63   38.19
   3  -6   9  361.19   41.39
   3  -6   9  317.29   41.55
   3  -6  10   52.09   17.05
   3  -6  10   54.18   17.28
   3  -6  10   29.58   13.97
   3  -6  11   22.53   12.22
   3  -6  12  107.73   24.44
  -3   5  13   32.75   16.40
  -3   5  12  112.65   27.07
  -3   5  11  201.76   34.55
  -3   5  10  555.64   55.10
  -3   5   9  831.14   65.54
  -3   5   8  116.44   23.97
  -3   5   7   70.73   17.35
  -3   5   6  559.42   47.00
  -3   5   5  667.57   49.44
  -3   5   4 1849.56   85.04
  -3   5   3  740.05   49.15
  -3   5   2   73.63   15.16
  -3   5   1    1.97    6.27
  -3   5   0  660.79   44.26
  -3   5  -1   14.86    8.21
  -3   5  -2  250.74   18.67
  -3   5  -2  241.51   26.37
   3  -5   2  233.47   27.31
  -3   5  -3  195.66   16.71
   3  -5   3  226.21   26.76
  -3   5  -3  221.43   25.46
   3  -5   4  609.86   45.59
  -3   5  -4  494.71   39.46
  -3   5  -5  785.51   51.71
   3  -5   5  768.23   55.90
   3  -5   5  722.60   51.64
   3  -5   6  419.11   41.72
  -3   5  -6  362.62   35.29
   3  -5   6  336.15   35.42
  -3   5  -7   44.82   13.45
   3  -5   7   56.34   16.40
  -3   5  -8  226.49   29.82
   3  -5   8  198.24   30.57
   3  -5   9  651.70   54.84
   3  -5   9  538.18   51.61
   3  -5   9  642.59   52.31
   3  -5  10 1110.66   75.32
   3  -5  10 1153.77   73.91
   3  -5  11  459.88   47.46
   3  -5  11  582.98   54.96
   3  -5  12   31.55   12.87
  -3   4  14  268.79   42.86
  -3   4  13  404.94   50.81
  -3   4  12   87.37   23.69
  -3   4  11   38.73   16.09
  -3   4  10  415.47   45.78
  -3   4   9  443.68   45.55
  -3   4   8 1142.38   72.16
  -3   4   7 1424.61   78.26
  -3   4   6  185.33   25.76
  -3   4   5   76.64   15.71
  -3   4   4  513.58   39.27
  -3   4   3  526.62   38.01
  -3   4   2  933.85   51.17
  -3   4   1  664.92   41.09
  -3   4   0  636.73   39.57
  -3   4  -1  243.35   23.50
   3  -4   2  156.43   20.56
  -3   4  -2  135.41   17.98
  -3   4  -3    9.75    4.84
  -3   4  -3    4.31    5.06
   3  -4   3    7.19    6.48
  -3   4  -4  207.38   18.18
   3  -4   4  225.59   25.67
   3  -4   4  203.87   25.69
  -3   4  -4  194.21   22.30
   3  -4   5  868.65   57.19
  -3   4  -5  857.88   50.56
  -3   4  -5  874.85   42.15
   3  -4   5  939.38   55.48
   3  -4   6 1674.79   84.93
  -3   4  -6 1861.90   80.44
  -3   4  -6 1693.08   66.93
   3  -4   6 1529.19   77.44
  -3   4  -7 1581.35   76.33
   3  -4   7 1523.25   81.74
  -3   4  -7 1426.08   63.64
   3  -4   8  655.56   50.99
   3  -4   8  644.07   52.86
  -3   4  -8  625.63   41.10
   3  -4   9   15.53    9.21
   3  -4   9   31.89   13.12
   3  -4   9   23.99   10.89
   3  -4  10  167.42   25.82
   3  -4  10  197.59   29.92
   3  -4  11  854.51   65.60
   3  -4  11  943.84   65.61
   3  -4  12  320.89   38.86
   3  -4  12  287.79   38.86
  -3   3  14  216.03   37.23
  -3   3  13  439.98   51.91
  -3   3  12    6.60    9.27
  -3   3  11  166.98   29.60
  -3   3  10   12.63   10.10
  -3   3   9  221.75   31.63
  -3   3   8  132.36   23.38
  -3   3   7   10.72    6.56
  -3   3   6  261.98   29.36
  -3   3   5 2271.08   92.05
  -3   3   4 1136.68   58.28
  -3   3   3 1443.48   64.80
  -3   3   2   11.31    6.68
  -3   3   1  742.75   40.18
  -3   3   0 1760.90   67.03
   3  -3   1 5740.10  163.91
  -3   3  -1 5893.12  159.64
  -3   3  -2 1693.42   64.49
   3  -3   2 1581.48   67.84
  -3   3  -3  904.48   44.68
   3  -3   3  827.12   49.30
  -3   3  -3  858.86   38.86
   3  -3   3  877.33   48.36
  -3   3  -4   55.91   10.87
   3  -3   4   72.25   14.67
  -3   3  -4   70.25   10.56
   3  -3   4   57.05   12.22
   3  -3   5  157.10   22.12
  -3   3  -5  154.60   16.56
   3  -3   5  127.64   18.55
  -3   3  -5  133.97   17.43
  -3   3  -6   40.76   10.48
   3  -3   6   40.65   12.79
  -3   3  -6   54.55   10.54
   3  -3   7  574.30   44.29
  -3   3  -7  616.92   41.99
   3  -3   7  583.99   46.51
  -3   3  -7  539.87   36.62
   3  -3   8  534.27   45.94
  -3   3  -8  581.81   39.80
   3  -3   8  480.44   42.85
   3  -3   8  618.74   43.27
   3  -3   9  344.61   33.49
  -3   3  -9  309.56   30.21
   3  -3   9  309.85   35.01
   3  -3  10  101.51   19.33
  -3   3 -10   57.00   13.96
   3  -3  10   64.11   16.27
   3  -3  11   74.86   18.23
  -3   3 -11   50.45   14.25
   3  -3  11   73.90   18.24
   3  -3  12   29.46   11.68
   3  -3  12   39.09   15.30
   3  -3  13  214.32   33.95
  -3   2  14   28.40   14.82
  -3   2  13    7.72    9.88
  -3   2  12    5.70    8.95
  -3   2  11   56.34   17.15
  -3   2  10   22.65   10.67
  -3   2   9  607.41   51.44
  -3   2   8  257.15   31.50
   3  -2  -8  292.35   23.94
  -3   2   7 1856.09   86.86
  -3   2   6  189.61   24.07
  -3   2   5  264.85   26.67
  -3   2   4 1926.77   77.08
  -3   2   3 4255.81  128.56
  -3   2   2 2701.46   89.34
  -3   2   1 1684.47   61.13
  -3   2   0  281.31   20.64
   3  -2   1   68.16   11.57
  -3   2  -1    7.72    4.22
  -3   2  -2 1252.01   48.30
   3  -2   2 1239.53   55.95
   3  -2   2 1194.37   53.68
   3  -2   3  534.80   36.45
  -3   2  -3  536.52   29.45
  -3   2  -3  552.61   30.24
   3  -2   3  563.60   35.49
  -3   2  -4  410.82   26.72
   3  -2   4  420.57   33.75
   3  -2   4  445.75   32.57
  -3   2  -4  520.76   29.98
  -3   2  -5  174.65   17.85
   3  -2   5  172.79   21.76
  -3   2  -5  152.53   16.79
  -3   2  -6  284.12   24.72
   3  -2   6  291.03   29.48
  -3   2  -6  262.35   23.47
   3  -2   7  243.32   23.63
  -3   2  -7  198.88   21.86
   3  -2   7  211.09   25.67
   3  -2   8   50.44   11.56
  -3   2  -8   59.34   12.88
   3  -2   8   67.45   15.74
   3  -2   9  207.40   27.75
  -3   2  -9  172.12   22.87
   3  -2   9  169.91   22.23
  -3   2 -10  592.35   46.14
   3  -2  10  768.15   56.62
   3  -2  10  674.57   47.75
   3  -2  11  456.53   40.70
  -3   2 -11  416.23   39.87
   3  -2  11  585.21   50.80
   3  -2  12  654.52   52.57
  -3   2 -12  671.20   53.53
   3  -2  12  781.30   62.08
  -3   2 -13   27.80   12.38
   3  -2  13   55.85   17.95
  -3   2 -14   40.42   16.39
   3  -2  14    8.97    9.09
  -3   1  15   70.48   22.07
  -3   1  14  113.63   26.08
  -3   1  13  525.54   55.54
  -3   1  12  355.61   43.17
  -3   1  11  176.91   29.24
  -3   1  10   18.20    9.55
  -3   1   9  240.22   31.05
  -3   1   8  705.36   51.10
  -3   1   7 2220.50   94.61
   3  -1  -7 2223.47   73.48
  -3   1   6 3010.11  107.39
   3  -1  -6 2616.43   88.93
  -3   1   5 1310.18   62.23
  -3   1   4    7.93    6.14
  -3   1   3  991.62   46.81
  -3   1   2 1928.17   67.50
  -3   1   1 1226.31   47.23
  -3   1   0  955.59   36.84
   3  -1   0  946.25   40.26
   3  -1   0  949.37   41.88
  -3   1  -1  349.52   19.20
   3  -1   1  344.42   24.93
   3  -1   1  362.11   23.95
  -3   1  -2 1158.56   40.11
   3  -1   2 1081.37   49.64
   3  -1   2 1064.93   47.46
  -3   1  -3   91.85    9.89
   3  -1   3   99.50   14.62
  -3   1  -3   69.70   10.29
   3  -1   3   88.27   13.43
  -3   1  -4   67.03    9.26
   3  -1   4   69.56   13.13
  -3   1  -4   71.47   10.98
  -3   1  -5   12.10    5.26
   3  -1   5   16.84    8.20
  -3   1  -5   10.66    5.06
   3  -1   6  733.08   37.85
   3  -1   6  764.45   40.28
   3  -1   6  726.03   45.37
  -3   1  -6  779.98   42.24
   3  -1   7  972.36   46.83
   3  -1   7 1034.51   45.89
   3  -1   7  878.13   53.47
  -3   1  -7  946.87   50.59
   3  -1   8 2488.52  100.60
   3  -1   8 2210.43   84.43
  -3   1  -8 2328.90   91.86
   3  -1   9  809.78   55.83
  -3   1  -9  931.52   55.24
   3  -1   9  831.66   48.37
  -3   1 -10   -0.03    5.54
   3  -1  10   -0.39    4.75
   3  -1  10    1.86    6.52
  -3   1 -11  417.28   39.68
   3  -1  11  463.93   44.87
   3  -1  11  384.45   36.34
  -3   1 -12 1148.36   72.60
   3  -1  12 1206.28   78.39
  -3   1 -13  913.69   66.30
   3  -1  13  733.25   62.61
  -3   1 -14  537.67   52.81
   3  -1  14  523.89   54.34
   3  -1  15   38.49   16.42
  -3   1 -15   57.88   18.11
  -3   0  14   11.27   13.89
  -3   0  13  322.37   42.47
  -3   0  12  209.72   32.84
  -3   0  11  743.27   60.20
  -3   0  10   60.03   13.51
  -3   0  10   64.45   17.14
  -3   0   9  131.04   22.64
  -3   0   9  163.16   20.30
  -3   0   8   13.46    7.13
  -3   0   8   24.58   10.75
  -3   0   7   92.98   13.41
  -3   0   7   76.32   16.05
   3   0  -7   84.99    9.97
  -3   0   6    7.55    6.67
   3   0  -6    7.33    3.71
  -3   0   5 1840.79   75.66
   3   0  -5 1942.61   64.88
  -3   0   4 1185.25   53.95
   3   0  -4 1290.05   49.21
   3   0  -4 1156.43   32.00
  -3   0   3 2716.10   88.66
   3   0  -3 2758.03   86.78
   3   0  -3 2839.07   70.98
   3   0  -2 1006.47   44.04
   3   0  -2 1019.19   34.69
  -3   0   2  934.90   41.13
  -3   0   1  412.79   22.45
   3   0  -1  381.67   20.95
   3   0  -1  339.03   24.41
   3   0  -1  343.09   19.42
  -3   0   0   19.59    4.42
   3   0   0   31.35    6.71
   3   0   0   20.85    6.83
   3   0   0   26.18    6.15
   3   0   1  651.42   35.17
  -3   0  -1  669.34   23.57
   3   0   1  700.57   34.49
   3   0   1  649.42   31.24
   3   0   2  843.37   40.99
   3   0   2  882.67   41.48
  -3   0  -2  859.02   27.67
  -3   0  -3 2265.55   60.22
   3   0   3 2294.70   75.91
  -3   0  -3 2068.53   70.85
   3   0   4  505.07   32.21
  -3   0  -4  519.18   30.31
   3   0   4  492.32   29.30
   3   0   5  383.10   21.38
   3   0   5  427.21   26.78
  -3   0  -5  389.47   27.63
   3   0   5  381.40   29.39
   3   0   6    2.57    3.01
  -3   0  -6    0.41    3.90
   3   0   6    9.19    4.39
   3   0   6   13.57    6.60
   3   0   7  411.51   23.66
   3   0   7  333.37   31.01
   3   0   7  386.02   25.96
  -3   0  -7  404.16   31.62
   3   0   8 1163.20   52.57
  -3   0  -8 1081.14   58.10
   3   0   8 1048.33   60.46
   3   0   9 1151.04   66.06
   3   0   9 1139.74   56.08
  -3   0  -9 1009.89   59.25
   3   0  10 1280.94   63.98
  -3   0 -10 1185.18   68.14
   3   0  10 1317.53   74.76
   3   0  11  149.16   21.70
  -3   0 -11  129.35   22.71
   3   0  11  187.44   28.23
   3   0  12    0.08    6.09
  -3   0 -12  -17.57    9.48
  -3   0 -13   80.30   19.56
   3   0  13   86.89   21.74
   3   0  14  296.66   40.69
  -3   0 -14  255.63   36.45
  -3   0 -15   69.38   19.74
   3   0  15  108.35   25.53
  -3  -1  14   56.37   18.79
  -3  -1  13   42.47   16.31
  -3  -1  12    0.65    6.44
  -3  -1  11  145.78   26.29
  -3  -1  10   24.96   11.99
  -3  -1   9  340.04   36.19
  -3  -1   9  402.61   30.38
  -3  -1   8  364.51   35.37
  -3  -1   8  375.79   27.38
  -3  -1   7 2195.69   91.36
   3   1  -7 2156.60   65.24
  -3  -1   7 2113.34   72.95
  -3  -1   6 1099.81   58.16
   3   1  -6 1147.21   42.73
  -3  -1   6 1132.02   45.13
  -3  -1   5 1552.45   67.16
   3   1  -5 1567.81   53.95
  -3  -1   4  134.38   16.43
   3   1  -4  147.46   13.81
  -3  -1   3 1097.52   47.27
   3   1  -3 1036.71   42.79
   3   1  -3 1089.10   30.55
   3   1  -2 1812.24   62.39
   3   1  -2 1879.13   49.98
  -3  -1   2 1897.84   62.89
  -3  -1   1 7135.52  172.57
   3   1  -1 7105.69  179.52
  -3  -1   0 1992.75   55.84
   3   1   0 1960.67   66.13
  -3  -1  -1  258.11   11.33
   3   1   1  259.59   19.49
   3   1   2  392.72   23.98
   3   1   2  345.70   21.90
   3   1   3 1002.67   26.53
   3   1   3 1014.99   41.57
   3   1   3  940.54   42.48
  -3  -1  -3  953.11   41.53
   3   1   4 1395.16   57.58
  -3  -1  -4 1449.81   55.80
   3   1   4 1433.72   51.52
   3   1   4 1394.55   40.55
   3   1   5  865.49   37.36
   3   1   5  898.80   33.68
   3   1   5  941.05   47.26
  -3  -1  -5  867.94   43.55
   3   1   6  784.69   33.93
  -3  -1  -6  729.01   41.91
   3   1   6  777.85   34.48
   3   1   6  720.08   44.00
   3   1   7  279.78   21.47
  -3  -1  -7  267.12   26.00
   3   1   7  286.29   18.47
   3   1   7  277.66   28.13
  -3  -1  -8   14.13    6.71
   3   1   8   39.98    9.10
   3   1   8   25.63    9.94
   3   1   8   31.82    5.69
   3   1   9    2.55    4.26
  -3  -1  -9    1.53    6.89
   3   1   9   -0.15    6.53
   3   1  10   28.03   11.71
   3   1  10   37.19   10.39
  -3  -1 -10   31.48   10.76
   3   1  11  133.03   24.03
   3   1  11  140.19   20.79
  -3  -1 -11  144.64   23.98
  -3  -1 -12  447.32   44.56
   3   1  12  611.29   53.75
   3   1  13  274.21   37.51
  -3  -1 -13  304.36   38.42
  -3  -1 -14  409.62   46.88
   3   1  14  428.55   48.84
   3   1  15    3.40    7.61
  -3  -1 -15    3.95    8.94
  -3  -2  14  142.35   30.22
  -3  -2  13  234.31   36.80
  -3  -2  12  118.64   25.30
  -3  -2  11  126.41   25.24
  -3  -2  10  480.23   46.13
  -3  -2   9  126.28   22.55
  -3  -2   8  266.00   30.45
  -3  -2   7  698.22   47.57
   3   2  -7  606.66   29.10
  -3  -2   7  631.86   31.79
  -3  -2   6 1928.01   81.69
   3   2  -6 1919.57   63.05
  -3  -2   6 2024.78   62.01
  -3  -2   5 2661.01   93.98
   3   2  -5 2582.11   77.79
  -3  -2   5 2490.55   69.30
  -3  -2   4 3713.20  115.86
   3   2  -4 3786.01  105.10
  -3  -2   3  391.56   26.43
   3   2  -3  405.30   24.19
  -3  -2   3  433.59   14.98
  -3  -2   2   78.32   10.55
   3   2  -2   45.61    7.83
  -3  -2   1 3526.59   95.46
   3   2  -1 3564.91   83.05
   3   2  -1 3534.01  100.45
   3   2   0 6517.07  166.80
  -3  -2   0 6861.36  155.83
   3   2   0 6382.51  153.24
   3   2   1 3337.39   91.85
  -3  -2  -1 3552.30   83.22
   3   2   1 3497.34   99.21
   3   2   2  266.17   19.20
   3   2   2  272.03   18.57
   3   2   3   28.53    2.99
   3   2   3   25.02    6.75
  -3  -2  -3   24.33    7.12
   3   2   3   34.70    7.21
   3   2   4   30.62    3.61
  -3  -2  -4   51.74    9.38
   3   2   4   34.55    6.88
   3   2   4   18.08    5.72
   3   2   5   12.61    3.22
   3   2   5   11.70    6.37
   3   2   5   13.36    4.18
  -3  -2  -5   19.93    7.21
   3   2   6   59.05    8.06
  -3  -2  -6   60.35   11.59
   3   2   6   57.33    8.46
   3   2   6   57.97   12.69
   3   2   7  285.50   21.27
   3   2   7  305.54   19.73
   3   2   7  289.69   28.46
  -3  -2  -7  295.32   27.29
   3   2   8 1331.09   56.88
   3   2   8 1408.12   47.92
  -3  -2  -8 1286.58   65.51
   3   2   8 1305.55   68.32
   3   2   9  735.66   43.01
  -3  -2  -9  776.80   50.94
   3   2   9  718.62   51.77
   3   2  10  625.87   41.66
  -3  -2 -10  477.12   42.33
   3   2  10  647.57   50.64
  -3  -2 -11  215.98   30.03
   3   2  11  264.79   33.57
   3   2  12  120.24   24.00
  -3  -2 -12  120.51   22.99
  -3  -2 -13  438.91   46.86
   3   2  13  435.94   47.23
  -3  -2 -14 1144.69   81.57
   3   2  14 1362.14   89.95
  -3  -2 -15  647.32   62.05
   3   2  15  607.69   61.28
  -3  -3  14  516.76   57.67
  -3  -3  13  123.90   27.52
  -3  -3  12   79.74   22.13
  -3  -3  11  615.18   56.01
  -3  -3  10  463.26   46.06
  -3  -3   9  446.92   42.98
  -3  -3   8  750.44   53.39
   3   3  -7   27.74    6.44
  -3  -3   7   30.74   10.92
  -3  -3   6   22.22    4.45
  -3  -3   6   13.84    7.47
   3   3  -6   17.14    5.27
  -3  -3   5  698.37   42.87
  -3  -3   5  690.25   24.57
   3   3  -5  784.74   36.48
  -3  -3   4  215.11   21.39
   3   3  -4  231.15   18.87
  -3  -3   3  972.62   45.59
   3   3  -3  962.64   42.38
  -3  -3   2 1173.61   47.77
  -3  -3   2 1204.15   39.70
   3   3  -2 1072.64   46.18
  -3  -3   1  627.00   29.75
   3   3  -1  570.31   28.53
   3   3  -1  613.86   32.44
   3   3   0  458.67   22.18
   3   3   0  388.51   25.32
   3   3   0  426.61   18.38
   3   3   1  155.19   15.44
   3   3   1  159.44   11.29
   3   3   1  147.26   12.15
   3   3   2  549.42   29.91
   3   3   2  503.00   27.12
  -3  -3  -2  505.28   26.94
   3   3   2  518.05   20.62
   3   3   3   71.57   11.04
   3   3   3   76.95    7.09
   3   3   3   91.16   11.96
  -3  -3  -3   74.54   10.59
   3   3   4  665.57   26.50
   3   3   4  701.18   34.53
  -3  -3  -4  719.88   36.61
   3   3   4  649.54   37.10
   3   3   5 1310.23   51.02
   3   3   5 1329.55   42.70
  -3  -3  -5 1294.43   56.30
   3   3   5 1349.59   59.91
   3   3   6  934.98   36.29
   3   3   6  863.80   39.01
  -3  -3  -6  903.42   47.55
   3   3   6  764.46   46.81
   3   3   7  487.65   27.32
  -3  -3  -7  462.11   34.81
   3   3   7  453.02   26.41
   3   3   7  382.30   33.47
   3   3   8  341.11   25.47
   3   3   8  383.87   23.53
   3   3   8  338.83   33.56
  -3  -3  -8  346.03   32.19
  -3  -3  -9  699.77   48.91
   3   3   9  656.15   49.48
   3   3   9  673.95   40.34
   3   3  10 2023.13   82.37
   3   3  10 1885.79   94.30
  -3  -3 -10 1855.29   90.21
  -3  -3 -11  886.74   61.80
   3   3  11  874.98   63.96
  -3  -3 -12  536.17   50.00
   3   3  12  506.15   50.41
   3   3  13    5.54   10.78
  -3  -3 -13   49.37   17.29
   3   3  14  365.15   46.25
  -3  -3 -14  293.66   40.74
   3   3  15  172.12   33.62
  -3  -3 -15  178.60   33.30
  -3  -4  13  830.85   72.86
  -3  -4  12  202.81   34.11
  -3  -4  11    8.31   11.37
  -3  -4  10    6.32    8.26
  -3  -4   9  178.90   27.63
  -3  -4   8  261.29   31.67
  -3  -4   7  524.95   42.51
  -3  -4   6  834.28   52.43
   3   4  -6  942.05   44.40
  -3  -4   5  542.11   38.93
   3   4  -5  610.72   34.67
  -3  -4   4  287.49   26.10
   3   4  -4  298.89   23.72
  -3  -4   4  306.39   13.16
   3   4  -3   41.46    9.07
  -3  -4   3   38.28    9.44
   3   4  -2  285.24   22.64
  -3  -4   2  276.88   19.09
   3   4  -2  248.58   21.51
   3   4  -1 1641.56   58.79
  -3  -4   1 1581.02   56.11
   3   4  -1 1507.40   60.75
   3   4   0 2131.78   68.59
   3   4   0 2001.82   73.33
   3   4   0 2168.32   61.15
   3   4   1 2119.52   66.04
   3   4   1 2064.78   65.58
   3   4   1 2175.40   75.56
  -3  -4  -1 2260.44   66.59
   3   4   2  325.56   22.41
   3   4   2  338.76   19.66
   3   4   2  388.51   26.63
  -3  -4  -2  346.09   21.50
   3   4   3   15.97    6.28
   3   4   3   16.47    6.09
  -3  -4  -3   16.79    5.06
   3   4   3   24.88    5.23
   3   4   4  158.82   13.51
   3   4   4  141.26   15.97
   3   4   4  150.87   17.58
  -3  -4  -4  164.89   16.94
   3   4   5  525.48   27.73
   3   4   5  474.20   34.65
  -3  -4  -5  589.13   35.36
   3   4   5  577.02   33.04
   3   4   6 1198.14   61.86
   3   4   6 1336.92   54.53
  -3  -4  -6 1282.03   59.43
   3   4   7 1234.62   49.69
   3   4   7 1168.73   63.98
   3   4   7 1210.46   51.38
  -3  -4  -7 1232.07   61.10
   3   4   8  469.31   30.72
   3   4   8  565.67   32.01
   3   4   8  459.17   40.07
  -3  -4  -8  535.85   40.23
   3   4   9  183.14   19.84
   3   4   9  148.20   24.17
  -3  -4  -9  218.55   27.10
   3   4  10   89.61   19.92
  -3  -4 -10   77.33   17.76
   3   4  10  104.44   16.26
   3   4  11  120.01   24.74
  -3  -4 -11   76.42   18.35
   3   4  12  451.68   48.09
  -3  -4 -12  419.51   44.31
  -3  -4 -13  453.43   48.79
   3   4  13  531.26   54.47
   3   4  14  355.56   46.27
  -3  -4 -14  266.92   38.65
   3   4  15  221.18   37.79
  -3  -4 -15  194.94   35.07
  -3  -5  13   74.26   23.16
  -3  -5  12  300.83   42.91
  -3  -5  11   30.27   15.01
  -3  -5  10  104.68   23.38
  -3  -5   9   50.08   14.81
  -3  -5   8  245.40   31.57
  -3  -5   7   97.81   18.83
  -3  -5   6   -1.10    6.67
   3   5  -5 1031.21   51.55
  -3  -5   5 1128.57   60.58
  -3  -5   4 2933.08  106.15
  -3  -5   4 3072.09   80.96
   3   5  -4 2753.65   98.87
   3   5  -3 2934.08  103.10
   3   5  -3 2993.85  100.92
   3   5  -2 1701.21   68.06
  -3  -5   2 1655.55   61.73
   3   5  -2 1599.69   67.56
   3   5  -1   42.41   10.15
  -3  -5   1   51.56    9.69
   3   5  -1   32.09    8.27
   3   5   0 1460.53   59.38
  -3  -5   0 1635.68   62.68
   3   5   0 1586.04   65.54
  -3  -5  -1 3575.17   97.16
   3   5   1 3473.02  104.32
   3   5   1 3466.47  112.82
   3   5   1 3734.35  104.47
   3   5   2 1832.92   64.71
   3   5   2 1885.77   73.72
   3   5   2 1860.96   67.88
  -3  -5  -2 2012.92   63.14
  -3  -5  -3  915.75   40.74
   3   5   3  822.72   38.63
   3   5   3  897.01   46.44
   3   5   3  875.84   44.75
   3   5   4   58.74   11.25
  -3  -5  -4   55.11   10.24
   3   5   4   63.11    9.87
   3   5   4   60.35   12.03
   3   5   5   63.18   13.22
  -3  -5  -5   63.72   11.64
   3   5   5   60.38   11.98
   3   5   5   54.33    9.26
   3   5   6  290.44   23.25
   3   5   6  284.75   25.00
   3   5   6  289.31   29.31
  -3  -5  -6  291.66   26.63
   3   5   7  299.34   25.04
  -3  -5  -7  266.45   27.11
   3   5   7  302.98   25.38
   3   5   7  276.53   29.98
  -3  -5  -8   95.68   17.61
   3   5   8  115.58   20.90
   3   5   9  723.34   42.30
   3   5   9  630.24   51.52
  -3  -5  -9  589.28   46.09
  -3  -5 -10  467.57   42.40
   3   5  10  443.20   44.50
   3   5  11  797.42   63.27
  -3  -5 -11  726.69   56.65
   3   5  12  180.72   31.12
  -3  -5 -12  188.25   30.14
  -3  -5 -13   38.23   15.95
   3   5  13   21.39   12.32
   3   5  14  156.15   31.38
  -3  -5 -14   95.59   24.28
   3   5  15  318.87   46.74
  -3  -5 -15  315.99   44.92
  -3  -6  12  133.37   30.22
  -3  -6  11   45.22   16.74
  -3  -6  10  156.65   28.80
  -3  -6   9  310.06   38.72
  -3  -6   8  879.95   63.88
  -3  -6   7  354.98   37.96
  -3  -6   6  762.85   54.22
  -3  -6   5  113.10   19.52
   3   6  -4    0.94    5.60
   3   6  -3  711.16   45.85
   3   6  -3  643.38   42.61
   3   6  -2 1289.32   62.51
  -3  -6   2 1391.65   59.73
   3   6  -2 1348.25   64.65
   3   6  -1 1167.51   56.29
  -3  -6   1 1232.37   38.55
  -3  -6   1  996.87   51.38
   3   6  -1 1052.99   56.60
  -3  -6   0  267.54   24.63
   3   6   0  231.82   24.65
  -3  -6   0  272.54   15.82
   3   6   0  240.93   23.02
   3   6   1   66.24   13.37
  -3  -6  -1   61.88    8.27
  -3  -6  -1   76.11   13.67
   3   6   1   78.41   12.68
   3   6   2  147.16   17.06
   3   6   2  116.08   17.31
  -3  -6  -2  117.40   16.87
  -3  -6  -2  143.37   13.44
   3   6   3  413.30   29.07
  -3  -6  -3  506.13   28.75
   3   6   3  482.10   35.62
   3   6   3  423.66   31.81
   3   6   4  643.46   42.07
   3   6   4  654.09   37.80
   3   6   4  635.11   42.06
  -3  -6  -4  707.09   37.53
   3   6   5  533.20   38.00
   3   6   5  557.91   41.17
   3   6   5  575.40   35.46
  -3  -6  -5  573.69   35.96
   3   6   6  489.82   33.38
   3   6   6  420.33   37.50
  -3  -6  -6  479.39   34.81
   3   6   7  472.02   34.00
  -3  -6  -7  497.30   37.68
   3   6   7  422.96   39.43
   3   6   8  177.39   26.57
   3   6   8  188.57   22.35
  -3  -6  -8  208.29   25.71
  -3  -6  -9  117.09   20.54
   3   6   9  142.41   20.07
   3   6   9  152.29   26.46
   3   6  10  135.07   20.79
   3   6  10  105.05   22.48
  -3  -6 -10  135.11   23.21
  -3  -6 -11  693.28   56.27
   3   6  11  822.14   65.56
   3   6  12  977.34   75.47
  -3  -6 -12  966.55   70.07
   3   6  13  654.77   63.25
  -3  -6 -13  549.12   54.70
   3   6  14   18.27   14.17
  -3  -6 -14   15.67    9.33
  -3  -7  11  412.42   50.30
  -3  -7  10  127.75   27.53
  -3  -7   9   31.35   13.42
  -3  -7   8  246.50   34.12
  -3  -7   7  214.58   31.10
  -3  -7   6  382.90   39.50
  -3  -7   5  122.63   21.16
   3   7  -5  146.51   23.87
   3   7  -4  616.58   47.57
   3   7  -3   62.99   14.88
   3   7  -2    4.27    7.21
  -3  -7   1  394.45   32.31
   3   7  -1  376.21   33.12
  -3  -7   0  959.68   54.01
   3   7   0  996.27   54.08
  -3  -7  -1  628.22   42.86
   3   7   1  596.00   39.77
  -3  -7  -2  855.36   51.87
  -3  -7  -2  872.34   36.51
   3   7   2  832.53   47.33
  -3  -7  -3  592.34   42.93
   3   7   3  554.53   37.63
  -3  -7  -3  597.74   32.08
  -3  -7  -4  358.54   33.72
   3   7   4  267.40   25.81
  -3  -7  -4  321.40   24.68
   3   7   4  309.76   31.12
  -3  -7  -5   79.38   13.27
   3   7   5   47.84   13.23
   3   7   5   61.43   12.60
   3   7   6  351.09   30.50
  -3  -7  -6  304.35   27.81
   3   7   6  333.41   34.57
  -3  -7  -7  988.27   55.33
   3   7   7  901.87   52.50
   3   7   7  850.93   59.98
   3   7   8 1043.56   58.30
  -3  -7  -8  995.27   59.20
   3   7   8  980.26   66.72
   3   7   9  791.17   52.15
  -3  -7  -9  771.13   54.36
   3   7   9  774.18   61.31
   3   7  10  447.04   47.72
   3   7  10  350.48   35.47
  -3  -7 -10  415.68   41.22
   3   7  11  -10.38   10.21
  -3  -7 -11   25.09   10.59
   3   7  12  216.02   36.04
  -3  -7 -12  290.86   38.17
  -3  -7 -13  534.93   54.02
   3   7  13  466.10   55.50
   3   7  14  304.69   45.64
  -3  -7 -14  433.41   50.86
  -3  -8  10  293.94   42.11
  -3  -8   9   33.16   13.37
  -3  -8   8   47.04   17.80
  -3  -8   7   29.29   13.10
  -3  -8   6   13.61   10.52
   3   8  -5   63.29   16.86
   3   8  -4   65.81   17.59
   3   8  -3  682.94   51.64
   3   8  -2 1499.87   77.17
   3   8  -1  728.18   50.67
   3   8   0   26.17    9.20
  -3  -8   0    7.15    6.54
   3   8   1  539.53   41.39
  -3  -8  -1  571.90   43.79
  -3  -8  -2 1198.11   66.90
   3   8   2 1148.67   62.06
   3   8   3 1605.23   74.96
  -3  -8  -3 1618.92   81.34
  -3  -8  -4  945.88   60.86
   3   8   4 1094.62   59.41
  -3  -8  -5  479.94   42.87
   3   8   5  447.83   37.27
  -3  -8  -5  517.80   34.20
  -3  -8  -6    0.25    4.24
  -3  -8  -6    3.21    5.99
   3   8   6   15.50    8.61
   3   8   7   35.28   13.87
  -3  -8  -7   48.96   14.47
   3   8   7   43.40   12.92
  -3  -8  -7   30.51   10.86
   3   8   8   86.12   17.48
   3   8   8   89.24   21.72
  -3  -8  -8   82.13   17.16
   3   8   9  223.43   33.87
   3   8   9  213.92   27.99
  -3  -8  -9  267.18   31.29
   3   8  10   84.79   22.37
   3   8  10   65.35   16.41
  -3  -8 -10   76.62   17.94
  -3  -8 -11  488.31   47.87
   3   8  11  541.43   56.37
   3   8  12  138.19   30.02
  -3  -8 -12  120.07   25.25
   3   8  13   42.42   17.86
  -3  -8 -13   83.48   22.68
  -3  -8 -14    7.45    9.96
  -3  -9   9   14.30   13.59
  -3  -9   8  113.24   26.07
  -3  -9   7  135.20   27.09
   3   9  -6  388.74   45.08
  -3  -9   6  394.78   44.87
   3   9  -5  285.86   37.32
   3   9  -4  132.32   24.59
   3   9  -3    0.87    6.90
   3   9  -2  780.77   57.41
   3   9  -1 1463.26   79.52
   3   9   0 1495.79   79.54
  -3  -9  -1  575.93   47.28
   3   9   1  574.44   46.23
  -3  -9  -2    0.65    6.66
   3   9   2   -0.59    5.41
   3   9   3  120.62   20.67
  -3  -9  -3  182.58   26.84
   3   9   4  212.99   27.86
  -3  -9  -4  233.68   30.96
  -3  -9  -5  278.86   34.21
   3   9   5  232.75   28.76
  -3  -9  -6   73.99   18.58
   3   9   6   69.81   16.57
  -3  -9  -7   68.95   18.25
   3   9   7   82.41   17.53
  -3  -9  -8   50.57   16.54
   3   9   8   61.61   15.26
  -3  -9  -9  149.11   27.26
   3   9   9  133.33   23.55
  -3  -9  -9  143.70   23.27
  -3  -9 -10   76.67   20.19
   3   9  10  121.32   23.08
  -3  -9 -10   89.04   20.33
   3   9  11   -4.02    9.20
  -3  -9 -11    1.35    6.65
  -3  -9 -11    9.00    8.04
   3   9  12  140.20   32.17
  -3  -9 -12  131.03   26.88
  -3  -9 -12  211.61   33.29
  -3  -9 -13  615.21   59.44
  -3  -9 -13  659.14   61.80
  -3 -10   8    2.75    7.44
  -3 -10   7   31.63   14.62
   3  10  -6  274.73   39.22
  -3 -10   6  320.64   42.46
   3  10  -5  506.20   52.65
   3  10  -4  611.80   56.03
   3  10  -3  337.87   40.49
   3  10  -2  195.67   30.34
   3  10  -1   37.53   13.95
   3  10   0  234.34   31.56
   3  10   1  467.74   44.51
  -3 -10  -2  768.07   59.08
   3  10   2  737.39   56.21
  -3 -10  -3  194.82   29.82
   3  10   3  263.46   32.85
   3  10   4  179.45   26.96
  -3 -10  -4  147.73   26.08
   3  10   5   -8.49    7.80
  -3 -10  -5    5.32    9.09
   3  10   6    2.23    6.48
  -3 -10  -6    4.26    5.03
  -3 -10  -7   65.74   18.54
   3  10   7   60.75   17.21
  -3 -10  -8  162.38   29.22
   3  10   8  170.11   27.77
  -3 -10  -9  622.58   58.64
   3  10   9  548.26   50.91
  -3 -10 -10  778.67   66.83
  -3 -10 -11  169.22   31.57
  -3 -10 -12   58.47   18.11
   3  11  -6    5.14    7.99
  -3 -11   6    1.23    7.03
   3  11  -5   35.84   15.29
   3  11  -4   -1.66    6.82
   3  11  -3    8.25    9.54
   3  11  -2  209.00   32.89
   3  11  -1  539.26   52.61
   3  11   0  673.65   58.32
   3  11   1  238.91   34.01
   3  11   2  -11.43    9.51
  -3 -11  -3  529.13   52.52
   3  11   3  465.88   47.01
  -3 -11  -4  877.90   69.36
   3  11   4  841.44   63.94
   3  11   5  637.97   55.16
  -3 -11  -5  559.51   55.13
   3  11   6  380.10   42.27
  -3 -11  -6  321.84   42.10
   3  11   7   56.56   16.84
  -3 -11  -7   59.95   19.36
   3  11   8    6.45    7.97
  -3 -11  -8   19.09   11.50
  -3 -11  -9   52.17   17.92
  -3 -11 -10  186.42   33.76
   3  12  -4  230.32   38.40
   3  12  -3  219.49   36.53
   3  12  -2   -7.65    9.70
   3  12  -1   32.25   15.45
   3  12   0  666.68   61.65
   3  12   1  836.17   68.95
   3  12   2  746.72   64.10
   3  12   3  233.98   34.93
   3  12   4   73.03   19.98
  -3 -12  -5  185.46   33.51
   3  12   5  192.59   32.26
   3  12   6  276.17   38.56
  -3 -12  -6  248.82   39.27
   3  12   7  122.53   25.88
  -3 -12  -7   84.69   23.11
   3  12   8   95.13   23.09
  -3 -12  -8   63.74   22.08
   3  13   0   45.21   18.60
   3  13   1  253.23   39.16
   3  13   2  479.60   54.32
   3  13   3  435.21   51.14
   3  13   4  273.86   40.50
   3  13   5   28.52   13.45
   3  13   6  -33.77   14.81
   3  13   7   11.89    9.52
  -4  10   5  648.17   66.28
  -4  10   4  760.36   71.08
  -4  10   3 1127.02   86.23
  -4  10   2  122.20   27.66
  -4  10   1   12.20   10.51
  -4  10   0  412.49   50.11
   4 -10   0  402.44   49.87
  -4  10  -1  656.58   63.70
   4 -10   1  621.16   62.68
   4 -10   2  277.42   42.07
  -4  10  -2  216.62   36.96
  -4  10  -3  405.34   50.56
   4 -10   3  428.57   52.57
  -4   9   8  323.79   46.90
  -4   9   7  643.31   65.32
  -4   9   6  259.63   40.63
  -4   9   5    1.15    6.49
  -4   9   4   83.03   22.45
  -4   9   3  993.26   77.04
  -4   9   2  360.53   44.73
  -4   9   1  414.19   48.09
  -4   9   0   14.02   12.50
  -4   9  -1   55.65   17.52
   4  -9   1  101.17   24.81
  -4   9  -2   80.72   22.30
   4  -9   2  106.65   25.30
   4  -9   3  249.56   38.03
  -4   9  -3  197.44   32.92
   4  -9   4   29.88   13.31
  -4   9  -4   35.79   13.91
   4  -9   4   43.41   16.22
  -4   9  -5  281.75   40.32
   4  -9   5  241.38   40.63
   4  -9   5  222.74   36.34
   4  -9   6   43.76   20.08
  -4   9  -6   84.55   22.41
   4  -9   6  100.81   25.66
   4  -9   7  357.36   47.40
  -4   9  -7  351.93   45.96
  -4   8   9   55.60   20.48
  -4   8   8    4.86    7.87
  -4   8   7  896.75   74.05
  -4   8   6  492.45   53.46
  -4   8   5  932.80   72.68
  -4   8   4   83.85   20.87
  -4   8   3  100.94   22.86
  -4   8   2  138.77   25.89
  -4   8   1  961.10   69.74
  -4   8   0   29.81   12.00
  -4   8  -1  562.03   51.89
   4  -8   1  401.57   45.31
  -4   8  -2   19.20   12.19
   4  -8   2   16.18   10.93
   4  -8   3   26.30   13.54
  -4   8  -3   28.55   12.61
   4  -8   4   56.46   18.18
  -4   8  -4   63.08   18.67
   4  -8   4   68.82   19.87
  -4   8  -5   37.90   13.36
   4  -8   5   -9.97    9.49
   4  -8   5   32.23   14.88
   4  -8   6   18.13   13.98
  -4   8  -6   15.21   10.05
   4  -8   6   12.00    9.50
  -4   8  -7  772.99   66.47
   4  -8   7  915.34   78.82
   4  -8   7  933.02   74.01
   4  -8   8  705.92   70.29
  -4   8  -8  745.28   66.14
  -4   8  -9  789.96   69.80
   4  -8   9  796.10   71.19
  -4   7  11  496.34   59.69
  -4   7  10   90.48   24.80
  -4   7   9  -23.86   12.85
  -4   7   8   57.27   18.76
  -4   7   7   15.73   10.58
  -4   7   6  123.66   25.20
  -4   7   5  382.19   42.84
  -4   7   4  173.31   28.93
  -4   7   3 1046.48   70.39
  -4   7   2  446.34   43.95
  -4   7   1   78.48   18.59
  -4   7   0   26.43   10.14
  -4   7  -1  954.77   65.10
   4  -7   1  934.12   66.22
  -4   7  -2  458.89   43.97
   4  -7   2  413.77   43.71
  -4   7  -3 1383.02   80.78
   4  -7   3 1381.06   83.84
  -4   7  -4  157.72   26.22
   4  -7   4  200.99   32.51
   4  -7   4  188.38   30.33
  -4   7  -5   92.09   20.33
   4  -7   5   89.65   22.78
   4  -7   5  107.70   23.44
   4  -7   6    9.67    9.27
  -4   7  -6    0.29    4.65
   4  -7   6    5.99    8.55
   4  -7   7  140.48   27.18
  -4   7  -7  164.47   27.64
   4  -7   7   78.60   23.19
  -4   7  -8   69.73   18.61
   4  -7   8   63.99   20.39
   4  -7   9 1026.94   79.00
  -4   7  -9 1170.29   81.29
   4  -7   9 1039.80   83.42
   4  -7  10  166.59   30.96
   4  -7  10  162.00   32.50
   4  -7  10  233.74   37.53
  -4   6  12   50.36   19.56
  -4   6  11   76.16   23.88
  -4   6  11   80.07   22.79
  -4   6  10   17.58   12.26
  -4   6   9   39.02   15.66
  -4   6   8   10.69    9.40
  -4   6   7   85.88   20.96
  -4   6   6 1389.20   83.33
  -4   6   5  359.80   39.58
  -4   6   4  507.34   45.75
  -4   6   3  534.34   46.02
  -4   6   2  829.50   57.51
  -4   6   1 2079.36   95.86
  -4   6   0 1189.91   68.53
  -4   6  -1  114.05   20.15
   4  -6   1   71.48   18.34
  -4   6  -2   32.06   11.72
   4  -6   2   63.77   17.67
  -4   6  -3 1125.17   67.43
   4  -6   3 1178.79   72.24
   4  -6   4   96.86   21.93
   4  -6   4   98.91   20.71
  -4   6  -4   97.72   19.17
   4  -6   5  603.49   55.23
   4  -6   5  618.76   53.06
  -4   6  -5  634.68   50.43
   4  -6   6   59.94   17.62
  -4   6  -6   67.86   17.03
   4  -6   6   38.53   14.12
  -4   6  -7  175.54   27.31
   4  -6   7   89.91   22.85
  -4   6  -8  206.57   30.59
   4  -6   8  176.41   31.98
   4  -6   9    7.35   10.88
   4  -6   9    7.81   11.80
   4  -6  10    8.18    8.38
   4  -6  10    9.78   10.81
   4  -6  10   -6.18    9.48
   4  -6  11  377.36   48.00
  -4   5  13  169.94   34.51
  -4   5  12  442.71   54.94
  -4   5  11  161.24   31.97
  -4   5  10  276.02   39.92
  -4   5   9    6.68    6.36
  -4   5   8   94.29   21.42
  -4   5   7  175.50   28.31
  -4   5   7  173.43   28.23
  -4   5   6  284.12   34.97
  -4   5   5 1408.56   77.98
  -4   5   4 2301.38  101.68
  -4   5   3  262.52   29.92
  -4   5   2  301.33   31.30
  -4   5   1 1512.18   74.54
  -4   5   0  817.95   52.24
   4  -5   1 1570.47   78.62
  -4   5  -1 1543.94   74.17
  -4   5  -2  453.86   37.52
   4  -5   2  376.98   36.70
  -4   5  -3    2.94    3.40
   4  -5   3    8.14    7.02
  -4   5  -3    1.24    4.76
  -4   5  -4   16.44    7.20
   4  -5   4   13.10    8.34
   4  -5   4   30.04   13.70
  -4   5  -5  169.03   23.67
   4  -5   5  113.52   22.32
   4  -5   5   96.70   20.03
   4  -5   6  130.45   23.72
   4  -5   6  106.96   22.62
  -4   5  -6   80.95   16.94
  -4   5  -7  292.11   33.17
   4  -5   7  225.66   33.34
  -4   5  -8  183.10   27.37
   4  -5   8  168.32   29.78
   4  -5   9  906.22   68.71
   4  -5   9  920.69   71.73
   4  -5  10 1319.15   80.64
   4  -5  10 1346.96   87.32
   4  -5  11  191.55   33.07
   4  -5  12   40.26   15.45
  -4   4  13   41.77   17.29
  -4   4  12   91.70   24.29
  -4   4  11  527.98   56.13
  -4   4  10  649.53   60.08
  -4   4   9  305.53   39.23
  -4   4   8  541.37   50.82
  -4   4   7   10.11    9.65
  -4   4   6   74.00   17.59
  -4   4   5   95.69   19.23
  -4   4   4   53.14   12.82
  -4   4   3  367.15   33.11
  -4   4   2 1050.40   57.16
  -4   4   1  248.57   25.77
  -4   4   0  596.87   40.23
   4  -4   1  697.80   46.76
  -4   4  -1  635.01   41.47
  -4   4  -2   17.67    6.75
   4  -4   2   26.95    9.07
   4  -4   3 1094.57   64.07
   4  -4   3  993.35   59.33
  -4   4  -3 1031.36   54.67
  -4   4  -3  988.92   46.88
   4  -4   4  708.96   49.88
  -4   4  -4  666.27   37.87
   4  -4   4  678.64   51.36
  -4   4  -4  638.61   42.73
  -4   4  -5  497.99   38.39
  -4   4  -5  522.49   34.06
   4  -4   5  531.74   46.09
   4  -4   5  545.81   44.45
  -4   4  -6 1441.79   70.94
   4  -4   6 1340.26   79.66
   4  -4   6 1442.99   77.91
  -4   4  -6 1463.88   63.96
  -4   4  -7    2.14    4.26
   4  -4   7   18.79   10.66
  -4   4  -7   12.26    6.10
  -4   4  -8  167.67   24.20
   4  -4   8   86.19   20.49
   4  -4   8  133.53   24.06
   4  -4   9  577.66   46.80
   4  -4   9  607.53   53.75
   4  -4  10  318.36   35.69
   4  -4  10  302.21   38.54
   4  -4  11  848.03   68.91
   4  -4  12  533.88   55.16
   4  -4  13   76.08   23.28
  -4   3  13  602.36   63.17
  -4   3  12  637.57   62.64
  -4   3  11   14.16   12.79
  -4   3  10    3.21    8.04
  -4   3   9   71.34   18.28
  -4   3   8  179.69   28.01
  -4   3   7   47.61   13.95
  -4   3   6  869.48   57.87
  -4   3   5   20.77    8.86
  -4   3   4 1692.26   77.72
  -4   3   3   34.20   10.10
  -4   3   3   45.59   12.01
  -4   3   2    3.91    5.41
  -4   3   1 1103.53   53.45
  -4   3   0 4634.72  137.45
   4  -3   0 4636.09  143.36
  -4   3  -1 1180.43   54.17
   4  -3   1 1213.78   59.82
   4  -3   2 1356.33   67.38
  -4   3  -2 1411.46   59.07
   4  -3   2 1242.99   63.44
   4  -3   3  395.44   34.06
   4  -3   3  396.28   35.64
  -4   3  -3  430.97   30.27
  -4   3  -3  389.35   27.37
  -4   3  -4   -0.19    4.13
   4  -3   4    2.41    5.59
  -4   3  -4    6.17    4.29
   4  -3   4   10.99    8.05
  -4   3  -5  776.15   44.66
   4  -3   5  708.25   52.08
  -4   3  -5  845.74   44.45
   4  -3   5  805.42   52.08
   4  -3   6  508.90   44.41
  -4   3  -6  463.84   33.89
  -4   3  -6  587.71   39.02
  -4   3  -7  471.90   36.77
   4  -3   7  519.40   46.19
  -4   3  -7  471.60   35.33
   4  -3   8  918.02   63.65
  -4   3  -8 1011.49   56.59
   4  -3   9    8.74    7.36
   4  -3   9   15.16    9.02
  -4   3  -9   10.93    7.04
   4  -3  10  252.52   29.77
   4  -3  10  249.66   34.56
  -4   3 -10  279.85   31.38
   4  -3  11   51.66   15.96
   4  -3  12   62.16   19.12
   4  -3  13  265.86   39.38
   4  -3  14  292.65   43.07
  -4   2  14   16.81   12.82
  -4   2  13  228.65   37.80
  -4   2  12  535.98   56.46
  -4   2  11   68.58   19.93
  -4   2  10  413.70   45.43
  -4   2   9    8.80   10.74
  -4   2   8  570.46   49.35
   4  -2  -8  600.71   38.66
   4  -2  -7  109.20   16.66
  -4   2   7  128.35   22.25
  -4   2   6    4.29    4.90
  -4   2   5   24.17   10.32
  -4   2   4 2858.95  104.40
  -4   2   3 1230.51   59.14
  -4   2   2 5090.24  149.15
  -4   2   1   11.63    6.14
  -4   2   0  625.03   33.90
   4  -2   0  613.95   37.91
   4  -2   0  570.73   35.95
  -4   2  -1 4978.00  134.99
   4  -2   1 4815.76  146.42
   4  -2   1 4750.44  143.91
   4  -2   2 8964.35  238.29
   4  -2   2 8603.42  232.95
  -4   2  -2 8808.83  218.60
   4  -2   3  392.32   33.35
   4  -2   3  345.32   30.48
  -4   2  -3  384.90   25.55
   4  -2   4 1382.52   68.50
  -4   2  -4 1190.44   54.72
  -4   2  -4 1347.96   54.21
   4  -2   4 1280.67   63.86
  -4   2  -5  513.51   32.02
   4  -2   5  532.28   41.63
  -4   2  -5  469.64   32.66
  -4   2  -6   10.67    6.19
   4  -2   6    8.98    8.17
  -4   2  -6    6.48    5.01
  -4   2  -7    8.12    5.41
   4  -2   7   16.30    9.56
   4  -2   8   91.83   18.94
   4  -2   8   87.62   14.96
   4  -2   8   99.80   16.16
  -4   2  -8   98.99   17.16
   4  -2   9   20.51    9.21
  -4   2  -9   14.37    9.20
   4  -2   9   11.79    9.32
   4  -2  10  600.93   44.40
  -4   2 -10  754.97   52.72
   4  -2  10  549.42   50.43
  -4   2 -11  101.20   20.65
   4  -2  11  131.15   25.77
  -4   2 -12  799.10   59.99
   4  -2  12  918.10   70.53
   4  -2  13   42.12   18.38
  -4   2 -13   11.40   11.06
   4  -2  14   89.47   22.54
  -4   1  14  822.90   75.00
  -4   1  13  536.37   57.81
  -4   1  12  116.58   25.99
  -4   1  11   33.69   14.98
  -4   1  10  430.81   45.66
  -4   1   9   94.70   21.21
  -4   1   8  938.76   62.46
  -4   1   7   64.04   15.56
   4  -1  -7   61.14   11.49
  -4   1   6  299.88   31.39
   4  -1  -6  360.50   28.23
  -4   1   5    0.80    4.40
   4  -1  -5    6.81    6.56
  -4   1   4  314.25   28.40
  -4   1   3   -1.61    3.63
  -4   1   2 3685.55  113.30
   4  -1  -2 3720.50  106.50
  -4   1   1  699.03   36.36
   4  -1  -1  693.44   36.14
   4  -1  -1  713.81   36.46
  -4   1   0 4742.89  125.22
   4  -1   0 4769.23  134.77
   4  -1   0 4465.01  131.70
  -4   1  -1  262.15   17.87
   4  -1   1  203.80   21.26
   4  -1   1  229.42   21.42
  -4   1  -2   -1.41    2.23
   4  -1   2   -2.47    4.99
   4  -1   2    3.02    4.85
   4  -1   3  256.39   25.80
  -4   1  -3  307.65   19.33
   4  -1   3  306.45   26.30
  -4   1  -4  902.13   38.03
   4  -1   4  948.40   53.16
  -4   1  -4  823.84   43.28
   4  -1   5   39.15   10.00
  -4   1  -5   34.47    9.35
  -4   1  -5   26.16    6.32
   4  -1   6 1648.27   69.30
  -4   1  -6 1519.51   67.55
   4  -1   6 1594.02   75.00
   4  -1   7   16.24    5.89
   4  -1   7   15.91    8.29
  -4   1  -7   30.16   10.01
   4  -1   7   22.48    7.28
   4  -1   8  965.38   48.44
   4  -1   8  961.75   48.87
   4  -1   8  980.02   61.55
  -4   1  -8  944.78   55.25
   4  -1   9   11.32    6.76
  -4   1  -9   -6.68    6.11
   4  -1   9  -22.59   11.15
   4  -1  10  114.03   22.98
  -4   1 -10  120.98   21.97
   4  -1  11  274.66   36.54
  -4   1 -11  357.63   37.91
   4  -1  12 1457.00   89.79
  -4   1 -12 1370.10   81.57
  -4   1 -13  327.54   39.83
   4  -1  13  377.75   46.03
   4  -1  14  276.02   40.41
  -4   1 -14  259.59   37.24
   4  -1  15   49.90   18.68
  -4   1 -15   79.77   21.68
  -4   0  14  166.92   33.38
  -4   0  13  335.64   45.28
  -4   0  12 1596.77   98.25
  -4   0  11  643.86   57.57
  -4   0  10   66.08   17.92
  -4   0   9   -1.91    7.76
  -4   0   8 1414.34   76.98
   4   0  -7  166.55   17.00
  -4   0   7  183.73   24.35
  -4   0   6 1350.36   68.43
   4   0  -6 1416.25   57.63
   4   0  -5  161.08   18.04
  -4   0   5  143.23   19.29
  -4   0   4  715.07   42.69
   4   0  -4  716.34   40.06
   4   0  -4  757.50   26.73
  -4   0   3  675.46   38.64
   4   0  -3  670.69   38.70
   4   0  -3  661.49   27.98
  -4   0   2  104.90   13.64
   4   0  -2  104.39   11.46
   4   0  -2  101.89   11.34
   4   0  -2  101.29   15.04
  -4   0   1  159.09   15.19
   4   0  -1  145.61   18.01
   4   0  -1  148.10   14.38
   4   0  -1  156.36   15.33
  -4   0   0 2433.15   74.16
   4   0   0 2538.52   89.33
   4   0   0 2554.65   82.46
   4   0   0 2476.32   79.26
   4   0   1  860.26   46.05
  -4   0  -1  874.65   31.24
   4   0   1  852.21   40.85
   4   0   1  790.29   41.91
   4   0   2 4754.50  145.72
  -4   0  -2 5059.35  120.35
   4   0   3 1215.48   55.79
  -4   0  -3 1131.49   37.03
  -4   0  -4  252.16   22.35
   4   0   4  277.23   24.45
  -4   0  -4  239.97   15.15
  -4   0  -5   39.38    9.65
   4   0   5   24.43    8.44
   4   0   5   42.32   10.94
   4   0   6  693.34   32.42
   4   0   6  722.13   39.06
  -4   0  -6  646.25   41.19
   4   0   6  672.71   45.04
   4   0   7  178.99   16.76
   4   0   7  188.67   18.61
  -4   0  -7  151.79   20.24
   4   0   7  172.39   23.40
  -4   0  -8 1214.70   64.31
   4   0   8 1264.69   54.20
   4   0   8 1365.11   54.45
   4   0   8 1214.67   69.26
   4   0   9  660.22   39.77
  -4   0  -9  696.12   49.11
   4   0   9  576.55   48.10
  -4   0 -10  879.41   58.29
   4   0  10  853.80   61.59
  -4   0 -11   49.36   15.22
   4   0  11   79.36   19.64
  -4   0 -12   46.09   14.83
   4   0  12   63.59   18.29
   4   0  13  308.75   41.30
  -4   0 -13  316.43   39.38
  -4   0 -14  850.40   68.63
   4   0  14  815.65   70.24
   4   0  15  175.35   33.49
  -4   0 -15  178.97   32.29
  -4  -1  14   75.99   23.11
  -4  -1  13   16.92   12.16
  -4  -1  12  239.23   36.18
  -4  -1  11  294.75   38.72
  -4  -1  10  626.18   53.93
  -4  -1   9  177.15   26.90
  -4  -1   8   10.45    8.23
   4   1  -7   10.55    4.38
  -4  -1   7   12.95    8.43
  -4  -1   6   89.06   16.89
   4   1  -6  116.51   13.74
  -4  -1   5  583.63   39.75
   4   1  -5  565.96   32.85
   4   1  -5  589.41   21.54
  -4  -1   4  727.65   42.96
   4   1  -4  846.52   41.53
   4   1  -4  830.32   28.24
  -4  -1   3  646.45   36.77
   4   1  -3  612.86   35.33
   4   1  -3  614.77   24.75
  -4  -1   2 5769.20  153.88
   4   1  -2 5751.33  159.57
   4   1  -2 5803.74  142.10
  -4  -1   1 5699.87  143.38
   4   1  -1 5271.45  153.35
  -4  -1   0  387.94   20.99
   4   1   0  401.00   28.98
  -4  -1  -1   50.90    6.12
   4   1   1   46.88    9.83
   4   1   2 5694.59  158.73
   4   1   3 2244.69   79.28
   4   1   3 2225.37   78.57
  -4  -1  -3 2213.38   76.93
  -4  -1  -4 5865.80  162.34
   4   1   4 5818.08  134.04
   4   1   4 6063.07  161.72
   4   1   4 5802.71  165.15
   4   1   5  129.27    9.76
   4   1   5  139.88   15.97
  -4  -1  -5  123.98   16.15
   4   1   5  142.75   18.55
   4   1   6    8.60    3.47
   4   1   6   12.85    5.76
  -4  -1  -6   11.53    6.48
   4   1   6   10.79    7.02
   4   1   7  291.23   20.23
   4   1   7  249.44   20.68
   4   1   7  243.97   27.45
  -4  -1  -7  256.13   26.30
   4   1   8  725.03   37.85
   4   1   8  738.56   51.37
   4   1   8  812.02   37.94
  -4  -1  -8  685.64   47.37
   4   1   9  123.26   15.83
  -4  -1  -9  121.55   20.38
   4   1   9  114.90   20.50
  -4  -1 -10  429.78   40.36
   4   1  10  440.93   43.07
  -4  -1 -11    6.19    6.83
   4   1  11   25.16   12.98
  -4  -1 -12  706.46   57.16
   4   1  12  651.43   58.05
   4   1  13  218.40   34.53
  -4  -1 -13  238.67   34.13
  -4  -1 -14   35.17   15.94
   4   1  14   31.51   12.93
   4   1  15   -6.05   10.59
  -4  -1 -15    8.27    9.75
  -4  -2  14  126.67   28.64
  -4  -2  13  217.15   36.27
  -4  -2  12  112.66   25.60
  -4  -2  11  399.42   45.33
  -4  -2  10   31.28   12.15
  -4  -2   9   -0.44    8.12
  -4  -2   8  876.34   58.82
  -4  -2   7  567.60   44.36
   4   2  -7  573.33   31.75
   4   2  -6  563.84   31.72
  -4  -2   6  506.07   39.57
  -4  -2   5 1026.28   55.25
   4   2  -5 1099.71   47.66
  -4  -2   4  422.37   31.62
   4   2  -4  449.52   28.61
   4   2  -3  772.26   39.48
  -4  -2   3  730.05   39.87
  -4  -2   2 1506.72   56.76
   4   2  -2 1381.52   57.36
   4   2  -1  818.64   41.59
  -4  -2   1  868.12   37.01
  -4  -2   0 6512.20  157.67
   4   2   0 6613.21  174.56
   4   2   0 6402.01  157.72
  -4  -2  -1 1022.43   32.40
   4   2   1 1062.97   48.02
   4   2   1 1037.82   41.16
   4   2   2  291.67   23.21
   4   2   2  303.38   21.81
   4   2   3  106.42   13.86
  -4  -2  -3  112.56   14.13
   4   2   3  121.65   14.83
   4   2   4 1957.86   70.25
   4   2   4 1929.05   74.34
  -4  -2  -4 1968.86   73.19
   4   2   5  302.17   11.83
   4   2   5  349.53   24.76
  -4  -2  -5  272.33   24.68
   4   2   5  262.08   25.40
   4   2   6 1868.62   53.19
   4   2   6 1815.03   65.85
   4   2   6 1761.59   77.43
  -4  -2  -6 1759.69   74.28
   4   2   7    6.14    5.22
   4   2   7   17.09    4.69
  -4  -2  -7    3.71    5.11
   4   2   7    5.19    3.76
   4   2   8  162.12   15.52
   4   2   8  138.38   14.69
  -4  -2  -8   91.62   17.05
   4   2   8   90.12   17.86
  -4  -2  -9   62.77   15.04
   4   2   9   65.48   16.41
   4   2  10  123.46   23.16
  -4  -2 -10  122.27   21.61
   4   2  11  162.36   28.04
  -4  -2 -11  166.81   26.66
  -4  -2 -12  425.37   44.39
   4   2  12  443.94   47.37
   4   2  13  268.53   37.88
  -4  -2 -13  248.20   35.51
  -4  -2 -14  995.51   75.11
   4   2  14  869.33   73.22
   4   2  15  114.00   28.27
  -4  -2 -15  147.07   29.44
  -4  -3  13   41.70   17.56
  -4  -3  12  454.10   51.53
  -4  -3  11 1083.02   77.46
  -4  -3  10 1023.99   71.90
  -4  -3   9  834.55   61.77
  -4  -3   8   89.23   19.56
   4   3  -7   85.35   12.30
  -4  -3   7   61.64   15.95
  -4  -3   6 1337.11   68.19
   4   3  -6 1288.70   54.31
  -4  -3   5  371.37   31.68
   4   3  -5  402.38   27.52
  -4  -3   4  422.05   31.82
   4   3  -4  418.26   28.48
  -4  -3   3 2294.82   80.86
  -4  -3   3 2267.87   62.09
   4   3  -3 2191.71   78.41
   4   3  -2  164.00   17.58
  -4  -3   2  134.42   14.96
  -4  -3   1 1411.68   51.48
   4   3  -1 1337.38   56.68
   4   3  -1 1391.24   38.30
  -4  -3   0  791.91   32.57
   4   3   0  823.72   41.59
   4   3   0  788.71   29.80
   4   3   1  587.06   34.61
   4   3   1  619.04   29.18
  -4  -3  -1  650.08   25.08
  -4  -3  -2 2321.90   57.48
   4   3   2 2267.13   57.46
   4   3   2 2295.70   79.44
   4   3   2 2204.22   73.36
   4   3   3 2574.25   84.60
   4   3   3 2455.26   59.03
   4   3   3 2407.59   82.20
  -4  -3  -3 2488.65   83.18
   4   3   4  950.51   44.88
   4   3   4  898.79   26.86
   4   3   4  871.63   45.68
  -4  -3  -4  849.23   43.82
   4   3   5 1282.69   39.70
   4   3   5 1356.61   55.28
   4   3   5 1250.49   59.92
  -4  -3  -5 1302.01   58.69
   4   3   6  241.11   13.22
   4   3   6  220.01   20.22
   4   3   6  204.79   23.88
  -4  -3  -6  222.03   23.17
   4   3   7   53.23   13.96
   4   3   7   42.35    6.48
  -4  -3  -7   38.63   11.93
   4   3   7   47.12    9.36
   4   3   8  725.01   37.19
   4   3   8  684.32   49.38
  -4  -3  -8  621.63   45.20
  -4  -3  -9  285.11   31.09
   4   3   9  268.69   32.07
  -4  -3 -10  503.17   44.14
   4   3  10  465.56   44.96
   4   3  11 1054.43   72.63
  -4  -3 -11 1181.67   72.89
   4   3  12   26.94   12.54
  -4  -3 -12   42.53   15.17
   4   3  13   -1.29    7.03
  -4  -3 -13   11.92    8.40
  -4  -3 -14  859.11   70.70
   4   3  14  776.94   69.70
   4   3  15  669.29   66.18
  -4  -3 -15  612.79   61.79
  -4  -4  13  535.45   58.67
  -4  -4  12    3.16    9.28
  -4  -4  11   47.89   17.19
  -4  -4  10  856.62   66.60
  -4  -4   9 1284.55   78.95
  -4  -4   8  196.49   28.33
  -4  -4   7  348.14   35.60
   4   4  -7  377.98   28.06
  -4  -4   6  529.05   41.75
   4   4  -6  570.72   35.14
   4   4  -5   21.96    6.92
  -4  -4   5    8.93    7.15
   4   4  -4  255.62   23.34
  -4  -4   4  229.62   23.90
  -4  -4   3   24.27    7.88
  -4  -4   3   29.86    5.94
   4   4  -3   16.73    7.18
  -4  -4   2  168.05   17.64
  -4  -4   2  153.52   14.01
   4   4  -2  168.77   18.92
  -4  -4   1 2501.05   79.40
   4   4  -1 2328.65   84.94
  -4  -4   0 1150.07   43.67
   4   4   0 1050.99   36.60
   4   4   0 1038.99   42.00
   4   4   0 1063.53   50.92
   4   4   1 6060.16  151.04
   4   4   1 6079.61  168.72
   4   4   1 6143.68  153.90
   4   4   2   42.27    8.19
  -4  -4  -2   43.62    8.64
   4   4   2   55.08    6.96
   4   4   2   34.58    8.56
   4   4   3   -0.91    3.92
   4   4   3    4.76    2.34
  -4  -4  -3    3.18    4.36
   4   4   3    5.28    5.51
  -4  -4  -4 3269.08  104.17
   4   4   4 3307.82  105.75
   4   4   4 3227.53   85.59
   4   4   4 3274.88  106.97
   4   4   5 3196.57   84.59
   4   4   5 3093.75  101.23
  -4  -4  -5 2923.28  102.13
   4   4   5 2954.49  106.40
   4   4   6  580.52   28.05
   4   4   6  587.54   35.66
  -4  -4  -6  547.47   37.99
   4   4   6  587.70   41.53
   4   4   7  407.26   28.93
  -4  -4  -7  412.52   34.69
   4   4   7  363.10   34.33
   4   4   8  676.56   38.27
   4   4   8  686.31   50.56
  -4  -4  -8  596.40   44.56
   4   4   9   69.55   16.60
  -4  -4  -9   41.02   11.94
  -4  -4 -10  937.50   62.19
   4   4  10  878.41   63.26
   4   4  11  139.72   25.75
  -4  -4 -11  144.31   25.09
   4   4  12  301.11   39.74
  -4  -4 -12  418.39   44.20
  -4  -4 -13  347.94   42.15
   4   4  13  319.72   43.33
   4   4  14   27.94   14.27
  -4  -4 -14   20.74   13.15
   4   4  15  104.06   27.34
  -4  -4 -15  121.94   28.36
  -4  -5  12  319.95   44.51
  -4  -5  11  512.26   54.80
  -4  -5  10   71.25   20.24
  -4  -5   9   19.99   11.50
  -4  -5   8  125.09   23.11
  -4  -5   7  332.97   36.11
   4   5  -7  421.76   31.86
  -4  -5   6  271.26   30.50
   4   5  -6  234.21   23.85
  -4  -5   5 1347.11   69.10
   4   5  -5 1353.28   62.53
  -4  -5   4  265.60   26.80
   4   5  -4  236.05   23.81
  -4  -5   3 1258.55   60.76
  -4  -5   3 1382.45   52.08
   4   5  -3 1309.21   61.45
   4   5  -2   65.87   12.69
  -4  -5   2   90.48   13.99
  -4  -5   2   96.66   12.40
   4   5  -2   83.26   13.34
   4   5  -1   31.09    9.01
   4   5  -1   16.47    6.20
  -4  -5   1   18.03    6.33
   4   5   0  607.34   33.19
   4   5   0  571.80   38.07
   4   5   1 2970.53   91.03
   4   5   1 3074.84  104.47
   4   5   1 3019.16   89.14
  -4  -5  -1 3101.71   91.74
   4   5   2 1745.52   72.84
   4   5   2 1715.66   64.40
   4   5   2 1799.78   60.55
  -4  -5  -2 1863.24   65.16
   4   5   3 1320.53   58.97
   4   5   3 1525.75   65.23
   4   5   3 1410.06   50.52
  -4  -5  -3 1465.15   58.11
   4   5   4  213.39   22.43
   4   5   4  194.66   21.60
   4   5   4  188.39   15.76
  -4  -5  -4  234.80   21.57
   4   5   5  309.19   20.77
   4   5   5  306.07   27.01
  -4  -5  -5  337.13   27.80
   4   5   5  281.64   27.45
  -4  -5  -6 1084.12   56.29
   4   5   6 1130.08   46.47
   4   5   6 1143.43   55.53
   4   5   6 1102.69   61.25
  -4  -5  -7  500.85   38.40
   4   5   7  522.99   30.57
   4   5   7  420.03   32.42
   4   5   7  469.33   39.95
   4   5   8   79.40   18.23
  -4  -5  -8   44.12   12.63
   4   5   8   73.12   13.14
   4   5   8   49.68    9.91
   4   5   9  188.84   28.86
   4   5   9  257.79   23.85
  -4  -5  -9  225.62   28.40
   4   5  10   10.19    9.59
  -4  -5 -10    3.33    7.38
   4   5  11  110.50   23.31
  -4  -5 -11   84.40   20.05
   4   5  12    2.48    9.14
  -4  -5 -12    9.50    9.21
   4   5  13    5.16    8.81
  -4  -5 -13   36.20   15.08
   4   5  14  299.15   43.93
  -4  -5 -14  354.31   45.54
  -4  -5 -15  582.73   60.55
   4   5  15  537.23   61.35
  -4  -6  12    1.84    8.16
  -4  -6  11  448.89   52.03
  -4  -6  10  264.80   38.19
  -4  -6   9 1203.30   79.92
  -4  -6   8  307.29   37.18
  -4  -6   7  141.80   24.94
   4   6  -6    6.21    4.67
  -4  -6   6    0.80    6.44
  -4  -6   5  690.71   49.28
   4   6  -5  655.54   44.22
  -4  -6   4  568.48   42.49
   4   6  -4  512.59   38.78
  -4  -6   3 2356.77   94.27
   4   6  -3 2499.99   96.79
   4   6  -3 2516.61   96.71
   4   6  -2  515.14   36.68
  -4  -6   2  557.94   34.44
   4   6  -2  473.79   37.03
   4   6  -1 1452.28   63.55
  -4  -6   1 1483.10   62.47
   4   6  -1 1282.76   65.44
   4   6   0   46.41   11.82
  -4  -6   0   42.64    9.89
  -4  -6   0   52.32    8.37
   4   6   0   46.12    9.96
   4   6   1   19.37    8.32
   4   6   1   40.89    9.23
  -4  -6  -1   35.59    7.22
  -4  -6  -2  497.07   29.32
   4   6   2  460.18   35.79
   4   6   2  498.17   30.70
   4   6   2  461.21   30.62
   4   6   3 3150.35  105.17
   4   6   3 2954.89  109.58
   4   6   3 3051.62   96.21
  -4  -6  -3 3229.46   98.87
  -4  -6  -4  360.76   27.63
   4   6   4  346.54   30.82
   4   6   4  398.28   26.24
   4   6   4  279.03   27.39
   4   6   5  472.44   29.64
   4   6   5  486.96   37.04
  -4  -6  -5  466.45   33.71
   4   6   5  463.23   37.19
  -4  -6  -6  217.27   23.77
   4   6   6  167.21   23.59
   4   6   6  206.42   19.72
   4   6   6  190.14   23.17
   4   6   7    8.74    5.93
   4   6   7    8.29    5.57
   4   6   7   16.79    6.70
  -4  -6  -7   13.59    7.78
  -4  -6  -8   95.69   18.10
   4   6   8   20.94   10.70
   4   6   8   71.39   14.09
   4   6   8   63.67   11.80
   4   6   9  100.16   21.48
  -4  -6  -9   85.17   17.90
   4   6  10  249.77   34.78
  -4  -6 -10  242.69   31.37
   4   6  11  891.06   69.33
  -4  -6 -11  861.54   63.39
   4   6  12  330.65   43.84
  -4  -6 -12  330.43   40.73
  -4  -6 -13  696.91   62.22
   4   6  13  720.60   67.18
   4   6  14   -6.87    9.83
  -4  -6 -14   11.05    9.62
  -4  -7  11  199.71   35.92
  -4  -7  10   53.28   18.01
  -4  -7   9  820.59   67.08
  -4  -7   8  696.38   59.08
  -4  -7   7 1030.83   70.17
  -4  -7   6   37.02   12.85
  -4  -7   5  149.64   23.92
   4   7  -4   20.48    9.34
  -4  -7   4   22.17   10.43
   4   7  -4   24.08   10.53
   4   7  -3   28.89   10.62
   4   7  -3   56.99   13.90
   4   7  -2   17.64    8.55
   4   7  -2    7.85    7.90
  -4  -7   2   11.90    5.68
   4   7  -1  146.09   21.94
  -4  -7   1  152.22   19.80
   4   7  -1  136.46   19.43
   4   7   0    2.14    5.01
   4   7   0    6.93    5.47
  -4  -7   0   -0.43    4.13
  -4  -7   0    3.31    2.97
  -4  -7  -1 1375.70   67.46
   4   7   1 1442.89   72.10
  -4  -7  -1 1459.72   52.25
   4   7   1 1340.72   62.74
  -4  -7  -2  499.78   39.27
   4   7   2  556.08   42.35
  -4  -7  -2  578.73   31.37
   4   7   2  560.74   36.70
  -4  -7  -3  551.55   32.64
   4   7   3  546.82   42.00
   4   7   3  518.51   34.69
   4   7   3  567.03   38.68
   4   7   4  371.02   34.47
  -4  -7  -4  384.37   28.47
   4   7   4  371.79   28.74
   4   7   4  357.18   32.14
   4   7   5 1537.62   66.16
   4   7   5 1639.67   77.71
   4   7   5 1560.01   77.00
  -4  -7  -5 1692.65   70.28
  -4  -7  -6 1211.46   61.08
   4   7   6 1167.13   56.39
   4   7   6 1168.82   64.27
   4   7   6 1248.90   70.07
  -4  -7  -7 1919.11   84.16
   4   7   7 1972.52   78.45
   4   7   7 1664.15   88.72
   4   7   7 1957.94   86.36
   4   7   8   51.38   15.02
   4   7   8   83.64   14.69
  -4  -7  -8   52.91   14.51
   4   7   9  148.81   27.24
  -4  -7  -9  117.04   20.95
   4   7  10  188.72   31.45
  -4  -7 -10  168.76   26.46
  -4  -7 -11  317.92   38.12
   4   7  11  318.67   42.07
   4   7  12  322.68   43.94
  -4  -7 -12  323.75   40.31
   4   7  13  293.00   43.92
  -4  -7 -13  315.91   41.61
   4   7  14   23.14   13.84
  -4  -7 -14   76.46   22.19
  -4  -8  10  696.36   65.90
  -4  -8   9  147.84   28.62
  -4  -8   8  -17.28   11.40
  -4  -8   7  216.48   32.99
  -4  -8   6   62.24   17.83
  -4  -8   5  206.79   29.85
  -4  -8   4   83.24   18.65
   4   8  -4   80.34   18.43
   4   8  -3  271.76   31.62
   4   8  -2  160.18   23.53
  -4  -8   1  175.83   23.16
   4   8  -1  149.12   21.91
   4   8   0  124.68   21.71
   4   8   0  118.32   19.27
  -4  -8   0  135.55   20.70
  -4  -8  -1  535.07   42.00
   4   8   1  420.15   39.42
   4   8   1  444.44   36.46
   4   8   2  627.13   42.68
  -4  -8  -2  554.31   44.04
   4   8   2  554.32   45.67
  -4  -8  -3 2625.17  110.50
   4   8   3 2752.91  113.44
   4   8   3 2866.03  103.60
  -4  -8  -4 1090.69   66.13
   4   8   4 1075.24   57.14
  -4  -8  -4 1155.29   53.02
   4   8   5  148.97   22.92
   4   8   5  132.12   18.84
  -4  -8  -5  127.24   17.62
   4   8   6  114.70   18.02
   4   8   6   93.18   19.93
  -4  -8  -6  112.94   17.43
   4   8   7  816.36   50.48
  -4  -8  -7  843.92   52.35
   4   8   7  759.87   58.58
   4   8   8  513.67   40.10
  -4  -8  -8  449.64   39.69
   4   8   8  474.76   47.53
  -4  -8  -9  731.13   54.03
   4   8   9  719.42   61.23
   4   8  10   23.14   12.98
  -4  -8 -10   50.57   15.07
   4   8  11  158.87   30.78
  -4  -8 -11  164.51   28.12
   4   8  12   -1.03    7.12
  -4  -8 -12  -11.27    9.60
   4   8  13   13.03   10.87
  -4  -8 -13   10.48   10.12
  -4  -8 -14   23.92   13.35
  -4  -9   9  521.51   57.06
  -4  -9   8  300.09   42.04
  -4  -9   7  364.41   44.48
  -4  -9   6  238.22   34.52
  -4  -9   5   54.96   17.30
   4   9  -5   59.41   17.10
   4   9  -4    2.12    6.17
   4   9  -3  888.70   62.71
   4   9  -2  300.67   34.33
   4   9  -1  912.49   60.18
   4   9   0  524.66   44.24
  -4  -9   0  608.61   47.56
   4   9   1   65.03   15.11
  -4  -9  -1   34.57   11.47
  -4  -9  -2   -1.10    7.09
   4   9   2    2.42    5.30
  -4  -9  -3 1356.79   77.53
   4   9   3 1329.64   70.01
  -4  -9  -4  635.89   52.12
   4   9   4  610.44   45.22
  -4  -9  -5 1399.90   81.91
   4   9   5 1508.54   74.60
   4   9   6   67.52   15.45
  -4  -9  -6   47.99   15.15
   4   9   7    3.90    5.67
   4   9   7   -8.41    8.59
  -4  -9  -7    4.37    7.35
   4   9   8   10.35    9.06
  -4  -9  -8   16.05   10.51
  -4  -9  -8   27.66    9.81
   4   9   9  168.38   30.19
  -4  -9  -9  205.85   28.57
   4   9  10   -5.23    8.26
  -4  -9 -10   -0.12    6.52
   4   9  11  108.60   26.67
  -4  -9 -11  110.65   22.98
   4   9  12   59.12   22.38
  -4  -9 -12   87.13   21.10
  -4  -9 -13  413.19   49.38
  -4  -9 -13  392.52   47.57
  -4 -10   7  584.22   59.65
  -4 -10   6  653.63   60.84
  -4 -10   5  496.90   51.08
   4  10  -5  446.16   48.72
   4  10  -4   19.71   10.65
   4  10  -3   32.59   12.94
   4  10  -2   15.97    9.35
   4  10  -1  279.28   34.87
   4  10   0   42.42   14.12
  -4 -10  -1  457.50   44.87
   4  10   1  513.14   45.57
  -4 -10  -2  331.38   38.41
   4  10   2  374.91   37.91
  -4 -10  -3  117.25   23.59
   4  10   3   98.12   19.51
  -4 -10  -4  113.17   22.94
   4  10   4  138.61   23.40
   4  10   5   88.37   18.79
  -4 -10  -5   55.62   17.21
   4  10   6  129.08   23.17
  -4 -10  -6   74.35   20.40
  -4 -10  -7  826.07   66.43
   4  10   7  823.63   58.11
  -4 -10  -8  428.18   48.04
  -4 -10  -9  270.40   38.86
  -4 -10 -10   10.76    8.73
  -4 -10 -11   44.01   16.53
  -4 -10 -12   -1.47    6.96
  -4 -11   6   54.70   19.07
   4  11  -5  339.98   45.20
  -4 -11   5  370.03   46.44
   4  11  -4  387.50   46.55
   4  11  -3   19.89   13.45
   4  11  -2  156.36   28.44
   4  11  -1   74.96   19.88
   4  11   0  355.02   41.19
   4  11   1    6.10    6.98
   4  11   2   41.28   14.78
  -4 -11  -2   39.37   16.68
  -4 -11  -3  553.61   53.49
   4  11   3  467.41   45.97
  -4 -11  -4  698.63   61.55
   4  11   4  797.93   59.85
  -4 -11  -5  586.71   56.45
   4  11   5  568.04   50.28
   4  11   6  421.31   43.25
  -4 -11  -6  417.15   48.34
  -4 -11  -7   36.53   15.75
  -4 -11  -8  184.58   32.94
  -4 -11  -9  974.30   78.71
  -4 -11 -10  589.18   61.42
   4  12  -4   13.41    8.95
   4  12  -3   42.35   17.61
   4  12  -2  -15.36   10.84
   4  12  -1   75.80   20.18
   4  12   0  392.10   45.76
   4  12   1  431.14   47.61
   4  12   2  439.16   47.76
  -4 -12  -3   39.86   15.68
   4  12   3   19.34   10.89
  -4 -12  -4  243.37   37.53
   4  12   4  273.79   36.81
  -4 -12  -5  920.93   75.46
   4  12   5  898.82   68.62
  -4 -12  -6 1038.34   81.61
  -4 -12  -7  483.88   55.40
  -4 -12  -8   49.99   17.80
   4  13  -1   70.84   20.85
   4  13   0   62.06   20.33
   4  13   1  291.10   41.50
   4  13   2  256.35   38.69
   4  13   3  193.34   33.37
   4  13   4  187.84   32.58
  -5   9   6   48.65   20.21
  -5   9   5  220.11   37.11
  -5   9   4  313.00   44.22
  -5   9   3  778.12   69.54
  -5   9   2  587.70   59.10
  -5   9   1  408.29   48.87
   5  -9  -1  341.03   45.74
  -5   9   0    7.60    8.78
   5  -9   0   23.95   14.69
  -5   9  -1  260.65   38.39
   5  -9   1  326.57   44.61
   5  -9   2  455.14   53.82
  -5   9  -2  550.52   56.71
   5  -9   3  618.74   65.74
  -5   9  -3  537.53   56.53
   5  -9   3  569.89   60.59
  -5   9  -4  130.02   27.88
   5  -9   4  213.13   37.01
  -5   9  -5   20.97   12.42
  -5   8   8  408.31   52.80
  -5   8   7  871.30   75.32
  -5   8   6  121.25   28.09
  -5   8   5   16.67   11.58
  -5   8   4    4.15    7.62
  -5   8   3  128.76   26.73
  -5   8   2   87.94   21.32
  -5   8   1  541.08   53.23
  -5   8   0  302.58   39.17
   5  -8   0  261.06   37.38
   5  -8   1  132.63   27.00
  -5   8  -1  120.00   24.53
  -5   8  -2   17.29    9.36
   5  -8   2   34.13   16.88
  -5   8  -3   73.42   20.43
   5  -8   3   30.38   13.72
   5  -8   3   50.21   17.82
  -5   8  -4   99.92   23.78
   5  -8   4  102.06   25.70
   5  -8   4   84.95   23.59
  -5   8  -5  179.66   31.07
   5  -8   5  246.83   39.68
   5  -8   5  171.31   32.30
   5  -8   6  187.15   34.11
   5  -8   6  188.59   36.38
  -5   8  -6  187.48   32.12
  -5   8  -7  306.35   42.23
  -5   7   9   -7.55   10.57
  -5   7   8   79.84   21.99
  -5   7   7  403.30   48.51
  -5   7   6  161.90   30.05
  -5   7   5  159.18   29.06
  -5   7   4   58.03   17.19
  -5   7   3   77.08   19.77
  -5   7   2  283.03   36.84
  -5   7   1   91.76   20.59
  -5   7   0   13.79   11.39
   5  -7   0   12.48    9.32
  -5   7  -1  685.10   55.67
   5  -7   1  616.65   56.01
   5  -7   2 1012.65   73.75
  -5   7  -2 1067.50   71.31
   5  -7   3  568.90   56.99
  -5   7  -3  554.07   50.32
   5  -7   3  654.13   58.53
   5  -7   4  317.65   43.02
  -5   7  -4  379.24   41.49
   5  -7   4  325.26   41.86
  -5   7  -5  -14.70    8.99
   5  -7   5   -6.10    8.65
   5  -7   5   16.71   13.03
   5  -7   6  138.37   28.08
  -5   7  -6  150.94   26.70
   5  -7   6  108.65   26.09
  -5   7  -7  190.79   31.20
   5  -7   7  269.09   42.26
   5  -7   8  586.54   63.67
   5  -7   9  143.63   30.52
  -5   6  11  251.98   42.64
  -5   6  10  163.89   32.79
  -5   6   9  335.37   45.71
  -5   6   8  255.56   38.71
  -5   6   7  103.32   23.46
  -5   6   6  159.86   28.70
  -5   6   5   41.16   15.28
  -5   6   4   18.39   10.39
  -5   6   3  557.62   49.25
  -5   6   2  954.49   64.45
  -5   6   1 1053.87   66.91
  -5   6   0  676.01   52.53
   5  -6   0  762.45   58.20
  -5   6  -1   10.92    6.73
   5  -6   1    8.13    8.72
   5  -6   2  329.62   39.87
  -5   6  -2  390.66   39.08
   5  -6   2  387.86   42.27
   5  -6   3 1366.30   85.39
  -5   6  -3 1290.27   74.39
   5  -6   3 1152.44   76.82
   5  -6   4  987.77   73.68
  -5   6  -4  973.89   64.19
   5  -6   4 1014.56   71.55
   5  -6   5  405.51   44.97
   5  -6   5  391.60   46.40
  -5   6  -5  485.52   44.52
   5  -6   6   29.58   13.14
   5  -6   6   47.56   16.95
  -5   6  -6   38.43   13.63
  -5   6  -7   73.35   18.01
   5  -6   7   49.13   18.37
  -5   6  -8   84.66   19.84
   5  -6   8  144.44   30.62
   5  -6   9  183.82   34.92
   5  -6   9  124.00   27.37
   5  -6  10  191.83   34.72
  -5   5  11   57.86   20.48
  -5   5  10  145.40   30.75
  -5   5   9   14.09   11.37
  -5   5   8   81.51   20.82
  -5   5   8   83.07   21.38
  -5   5   7  241.22   35.03
  -5   5   6  509.64   48.76
  -5   5   5  580.25   50.27
  -5   5   4  493.40   44.82
  -5   5   3   49.36   13.50
  -5   5   2   24.36    9.82
  -5   5   1 1023.23   61.94
  -5   5   0  878.19   56.27
   5  -5   0  902.61   60.66
  -5   5  -1 1072.90   62.04
   5  -5   1 1068.55   67.32
   5  -5   2  271.72   34.37
  -5   5  -2  247.35   28.90
   5  -5   2  320.70   36.18
   5  -5   3   16.19   10.99
  -5   5  -3   13.18    7.88
   5  -5   3   16.54   10.70
   5  -5   4  285.95   36.90
  -5   5  -4  253.64   29.54
   5  -5   4  224.95   31.26
  -5   5  -5  393.44   37.46
   5  -5   5  431.38   46.15
   5  -5   5  398.79   43.04
  -5   5  -6  428.11   39.89
   5  -5   6  341.89   42.56
   5  -5   6  390.06   42.95
  -5   5  -7  205.26   28.20
   5  -5   7  228.79   35.57
   5  -5   8    4.71    6.52
  -5   5  -8   -1.99    3.64
   5  -5   9  184.51   32.59
   5  -5   9  134.87   26.99
   5  -5  10   27.41   14.61
   5  -5  11    0.85    8.42
  -5   4  12  243.87   40.53
  -5   4  11  960.52   79.78
  -5   4  10 1493.87   97.41
  -5   4   9  444.90   49.67
  -5   4   8   61.94   18.16
  -5   4   7  594.76   53.24
  -5   4   6  425.79   43.26
  -5   4   5  443.27   42.60
  -5   4   5  519.92   45.58
  -5   4   4  388.38   37.41
  -5   4   3  186.13   25.26
  -5   4   2  345.25   33.23
  -5   4   1  155.13   21.34
   5  -4   0   35.07   12.07
  -5   4   0   59.61   13.70
   5  -4   1    0.24    6.22
  -5   4  -1   -1.23    5.61
   5  -4   1   16.72   11.49
  -5   4  -2  120.71   18.28
   5  -4   2  146.96   23.32
   5  -4   2  149.67   23.01
   5  -4   3  656.57   52.15
  -5   4  -3  663.93   44.10
   5  -4   3  625.78   49.50
   5  -4   4 1199.93   74.03
  -5   4  -4 1160.45   56.94
  -5   4  -4 1226.23   62.58
   5  -4   4 1065.98   67.38
  -5   4  -5  641.53   40.89
   5  -4   5  589.79   52.67
   5  -4   5  522.77   46.63
  -5   4  -5  572.43   42.13
   5  -4   6   11.49    9.24
  -5   4  -6   35.98    9.86
  -5   4  -6   51.06   12.62
   5  -4   7  113.93   23.35
  -5   4  -7  156.44   22.56
  -5   4  -8  626.90   48.32
   5  -4   8  620.14   57.55
   5  -4   8  792.50   62.69
   5  -4   9  512.30   52.14
   5  -4  10  918.82   72.70
   5  -4  11  608.63   59.83
   5  -4  12  119.14   27.92
  -5   3  13  118.45   28.86
  -5   3  12  313.13   45.35
  -5   3  11   33.23   16.00
  -5   3  10  288.96   40.59
  -5   3   9  753.77   63.42
  -5   3   8 1377.36   84.17
   5  -3  -8 1260.13   70.68
  -5   3   7  240.24   32.58
  -5   3   6  162.46   25.45
  -5   3   5   15.56    9.83
  -5   3   4   65.75   14.82
  -5   3   3   62.91   14.11
  -5   3   2  216.96   24.08
  -5   3   1  521.96   36.43
   5  -3  -1  444.11   36.07
  -5   3   0 1438.73   64.35
   5  -3   0 1324.85   68.22
   5  -3   0 1481.76   70.75
  -5   3  -1   89.42   14.53
   5  -3   1   99.51   18.55
   5  -3   1   93.75   17.80
   5  -3   2  185.34   25.58
  -5   3  -2  191.36   20.82
   5  -3   2  137.17   21.07
   5  -3   3  222.92   28.94
  -5   3  -3  248.54   23.63
   5  -3   3  182.40   24.62
   5  -3   4 1000.12   64.36
  -5   3  -4 1008.67   52.63
  -5   3  -4 1085.88   53.69
   5  -3   4 1011.23   61.88
  -5   3  -5 1900.77   79.08
  -5   3  -5 2048.00   80.37
   5  -3   5 1934.97   96.22
   5  -3   5 1927.05   92.10
  -5   3  -6 1637.90   72.67
  -5   3  -6 1650.40   73.97
   5  -3   6 1710.59   90.68
  -5   3  -7  373.05   32.82
   5  -3   7  419.03   44.17
  -5   3  -7  412.37   35.18
  -5   3  -8   14.35    8.66
   5  -3   8   -0.28    6.36
  -5   3  -9  128.79   21.71
   5  -3   9  143.76   26.63
  -5   3 -10  107.38   20.15
   5  -3  10  138.12   27.09
   5  -3  11  276.89   39.69
   5  -3  12  328.33   44.13
   5  -3  13  183.17   33.82
  -5   2  13  230.46   39.03
  -5   2  12  472.13   54.15
  -5   2  11  174.76   32.15
  -5   2  10  350.14   43.54
  -5   2   9    3.31    8.41
  -5   2   8    3.79    5.84
  -5   2   7   44.49   12.89
   5  -2  -7   38.20   12.35
  -5   2   6  241.71   30.03
   5  -2  -6  213.91   25.79
  -5   2   5  109.68   18.95
  -5   2   4 1137.91   62.11
  -5   2   3  967.16   54.49
  -5   2   2  595.74   39.95
  -5   2   2  595.43   38.79
   5  -2  -2  622.44   38.72
   5  -2  -2  594.67   38.43
  -5   2   1   21.70    7.65
   5  -2  -1   15.83    6.93
   5  -2  -1   14.38    7.75
  -5   2   0 1236.18   53.98
   5  -2   0 1248.50   61.15
   5  -2   0 1156.09   58.64
  -5   2  -1 2933.94   95.28
   5  -2   1 2971.87  109.00
   5  -2   1 2965.25  106.84
   5  -2   2 1902.64   85.55
  -5   2  -2 2020.75   71.46
   5  -2   2 1914.79   82.55
   5  -2   3  959.87   56.51
   5  -2   3  970.24   58.88
  -5   2  -3 1003.56   45.99
   5  -2   4    4.02    5.53
  -5   2  -4   25.52    7.18
   5  -2   4   16.10    9.34
  -5   2  -4    6.98    5.65
  -5   2  -5  369.11   27.03
   5  -2   5  335.48   35.88
  -5   2  -5  310.94   28.26
  -5   2  -6 1023.08   50.23
   5  -2   6 1084.24   67.58
  -5   2  -6  975.52   54.52
   5  -2   7  804.59   52.61
  -5   2  -7  819.61   50.85
   5  -2   7  794.21   57.46
   5  -2   8  224.52   23.77
  -5   2  -8  236.39   27.22
   5  -2   8  219.50   26.24
   5  -2   8  191.28   29.29
  -5   2  -9   68.83   15.79
   5  -2   9   62.71   18.65
  -5   2 -10  -11.20    8.47
   5  -2  10    6.14    9.06
  -5   2 -11  144.92   25.22
   5  -2  11  173.81   30.72
  -5   2 -12    8.67    7.25
   5  -2  12   15.93   12.33
  -5   2 -13    7.35    8.75
   5  -2  13   20.71   12.00
   5  -2  14  116.47   27.23
  -5   1  13  198.86   36.64
  -5   1  12   -2.98   10.87
  -5   1  11    3.49    8.13
  -5   1  10 1272.49   84.16
  -5   1   9  970.61   69.84
  -5   1   8 1351.76   80.15
  -5   1   7  380.86   38.85
   5  -1  -7  370.52   31.38
  -5   1   6   53.74   14.11
   5  -1  -6   30.54    9.67
   5  -1  -5  174.23   21.71
  -5   1   5  156.84   22.27
   5  -1  -5  164.55   14.36
  -5   1   4 1032.16   57.74
   5  -1  -4 1177.47   60.56
   5  -1  -4 1103.58   45.69
  -5   1   3  456.79   34.21
   5  -1  -3  443.62   35.92
   5  -1  -3  427.29   27.57
   5  -1  -3  432.60   29.61
  -5   1   2 1100.21   53.79
   5  -1  -2 1141.63   51.22
   5  -1  -2 1183.71   52.52
  -5   1   1  367.08   27.47
   5  -1  -1  382.23   29.33
   5  -1  -1  358.72   27.90
  -5   1   0   88.27   11.81
   5  -1   0   65.38   12.51
   5  -1   0   80.17   13.38
   5  -1   1    5.61    6.03
  -5   1  -1    4.50    3.53
   5  -1   1    1.26    4.12
   5  -1   2  933.07   53.73
  -5   1  -2 1051.32   41.66
   5  -1   2  925.56   51.41
   5  -1   3  732.80   48.49
  -5   1  -3  747.43   34.13
   5  -1   4 1759.18   78.98
   5  -1   4 1635.29   78.88
  -5   1  -4 1508.33   67.46
  -5   1  -4 1650.07   57.70
  -5   1  -5 1473.94   55.08
   5  -1   5 1503.67   71.86
  -5   1  -5 1333.88   64.43
   5  -1   6  349.72   32.09
   5  -1   6  340.22   34.58
  -5   1  -6  368.99   31.58
   5  -1   7  219.15   25.01
  -5   1  -7  182.54   23.41
   5  -1   7  212.64   19.88
   5  -1   7  212.66   28.15
  -5   1  -8   15.79    7.96
   5  -1   8    7.44    8.56
   5  -1   8   21.26    7.50
  -5   1  -9  163.00   24.45
   5  -1   9  144.94   25.40
   5  -1  10  344.11   40.41
  -5   1 -10  250.91   31.42
   5  -1  11  566.81   54.89
  -5   1 -11  577.80   49.94
  -5   1 -12  386.47   42.48
   5  -1  12  331.28   42.82
  -5   1 -13  304.96   39.27
   5  -1  13  296.73   41.93
  -5   1 -14   10.04   10.19
   5  -1  14    8.63   11.02
  -5   0  13  596.24   62.82
  -5   0  12 1009.80   78.99
  -5   0  11  343.24   43.65
  -5   0  10    4.54    8.08
  -5   0   9  165.45   27.92
  -5   0   8 1199.55   73.39
  -5   0   7  367.86   37.25
   5   0  -7  394.58   30.30
  -5   0   6  764.10   52.26
   5   0  -6  832.12   46.35
  -5   0   5    0.19    6.17
   5   0  -5    3.89    3.96
  -5   0   4   46.73   11.32
   5   0  -4   59.85   12.10
   5   0  -4   48.38    8.47
  -5   0   3  265.87   24.99
   5   0  -3  190.27   22.49
   5   0  -3  211.92   17.94
  -5   0   2  439.75   30.64
   5   0  -2  405.25   33.15
   5   0  -2  433.91   27.49
   5   0  -2  468.43   28.08
  -5   0   1  299.42   22.95
   5   0  -1  308.39   28.82
   5   0  -1  256.01   22.34
   5   0  -1  288.11   22.84
  -5   0   0  657.12   33.30
   5   0   0  687.50   44.34
   5   0   0  651.88   37.07
   5   0   1  852.29   50.88
  -5   0  -1  896.43   34.79
   5   0   1  870.76   45.62
   5   0   2 2057.63   86.13
  -5   0  -2 2101.74   60.80
   5   0   3  243.61   25.98
  -5   0  -3  269.08   15.57
  -5   0  -4    1.52    1.94
   5   0   4    8.94    6.11
  -5   0  -4    7.24    5.76
   5   0   5  888.59   50.19
  -5   0  -5  763.39   46.05
   5   0   5  800.18   50.38
   5   0   6 1340.08   48.40
   5   0   6 1377.71   63.92
  -5   0  -6 1348.95   64.96
   5   0   6 1171.83   66.12
   5   0   7 1457.86   54.06
   5   0   7 1340.14   63.26
   5   0   7 1403.20   74.80
  -5   0  -7 1415.20   70.04
   5   0   8  914.94   48.03
   5   0   8  844.08   58.64
  -5   0  -8  779.93   52.43
  -5   0  -9  209.59   27.11
   5   0   9  179.21   27.79
  -5   0 -10   35.78   13.42
   5   0  10   49.15   17.25
  -5   0 -11  426.66   43.13
   5   0  11  417.41   46.01
  -5   0 -12  366.84   41.71
   5   0  12  301.33   40.63
  -5   0 -13  493.96   50.83
   5   0  13  685.88   63.26
   5   0  14   63.87   20.46
  -5   0 -14   76.90   21.16
  -5   0 -15   88.47   23.00
  -5  -1  13    1.73    6.99
  -5  -1  12  533.90   56.31
  -5  -1  11  785.69   65.84
  -5  -1  10  677.37   58.32
  -5  -1   9  181.45   28.49
  -5  -1   8   56.37   15.71
  -5  -1   7  163.45   24.67
   5   1  -7  164.52   18.67
  -5  -1   6  136.12   21.11
   5   1  -6  126.69   16.41
  -5  -1   5  273.21   28.38
   5   1  -5  243.41   23.57
  -5  -1   4  426.13   33.26
   5   1  -4  407.99   31.49
   5   1  -4  458.24   22.60
  -5  -1   3  428.22   31.48
   5   1  -3  457.55   33.51
   5   1  -3  449.92   24.31
  -5  -1   2  853.83   43.33
   5   1  -2  892.64   48.96
  -5  -1   1  605.84   32.38
   5   1  -1  572.15   38.84
  -5  -1   0  343.86   21.42
   5   1   0  348.31   30.23
  -5  -1  -1   82.64    9.01
  -5  -1  -1   88.26    8.01
   5   1   1   95.93   16.33
   5   1   2 1574.72   71.98
  -5  -1  -2 1754.57   45.29
   5   1   3 4756.02  146.89
   5   1   4 2312.57   88.60
   5   1   4 2313.52   88.08
  -5  -1  -4 2355.66   86.95
   5   1   5  269.65   13.45
   5   1   5  264.10   25.29
  -5  -1  -5  286.63   26.81
   5   1   5  218.52   25.20
   5   1   6   86.13    8.51
   5   1   6   78.45   13.37
  -5  -1  -6   70.70   14.14
   5   1   6   65.68   14.74
   5   1   7 1028.99   62.24
   5   1   7 1178.70   54.46
  -5  -1  -7 1043.59   59.17
   5   1   8  593.47   36.60
  -5  -1  -8  572.55   44.02
   5   1   8  541.84   45.88
   5   1   9  710.63   55.05
  -5  -1  -9  756.16   53.43
  -5  -1 -10  283.32   33.62
   5   1  10  282.97   36.12
  -5  -1 -11   31.83   13.68
   5   1  11   58.50   18.07
  -5  -1 -12   -1.36    7.99
   5   1  12   -9.44    9.62
   5   1  13   14.51   11.77
  -5  -1 -13   -3.67    7.28
   5   1  14   -5.55    9.74
  -5  -1 -14    4.70   10.98
  -5  -1 -15   19.99   13.43
  -5  -2  13  190.20   35.25
  -5  -2  12  141.19   28.85
  -5  -2  11  162.21   29.70
  -5  -2  10  310.64   39.10
  -5  -2   9  253.07   33.92
  -5  -2   8 1129.38   70.18
  -5  -2   7  912.84   60.07
   5   2  -7 1022.17   49.26
  -5  -2   6  217.09   26.54
   5   2  -6  256.16   23.32
  -5  -2   5  399.86   34.10
   5   2  -5  408.47   30.38
  -5  -2   4  569.75   38.87
   5   2  -4  596.16   37.73
  -5  -2   3  873.40   45.94
   5   2  -3  794.37   44.98
  -5  -2   2 2476.82   84.31
   5   2  -2 2536.81   91.73
  -5  -2   1 1807.48   62.82
   5   2  -1 1694.40   72.33
  -5  -2   0  807.06   34.16
   5   2   0  817.13   46.47
  -5  -2  -1  369.68   18.68
   5   2   1  386.26   30.75
   5   2   1  411.17   25.95
   5   2   2   33.27    9.89
   5   2   2   28.48    7.95
   5   2   3  606.29   38.75
   5   2   3  609.72   37.16
   5   2   4 2796.58   97.08
   5   2   4 2690.45   97.43
  -5  -2  -4 2740.99   96.90
   5   2   5 1748.65   75.79
   5   2   5 1705.65   69.85
  -5  -2  -5 1647.07   71.94
   5   2   6  855.94   45.49
   5   2   6  833.81   51.87
  -5  -2  -6  785.03   48.12
   5   2   7  161.44   18.44
  -5  -2  -7  159.93   22.11
   5   2   7  176.94   24.48
  -5  -2  -8    5.68    5.25
   5   2   8    6.98    4.08
   5   2   8   15.31   10.41
  -5  -2  -9    0.35    6.57
   5   2   9    1.34    8.13
   5   2  10    3.97    8.94
  -5  -2 -10   -0.18    7.88
   5   2  11  176.24   30.02
  -5  -2 -11  264.00   33.65
   5   2  12  105.59   24.13
  -5  -2 -12  231.34   33.03
  -5  -2 -13  314.03   40.62
   5   2  13  243.59   37.98
   5   2  14  306.03   43.71
  -5  -2 -14  257.87   38.34
   5   2  15   87.37   23.97
  -5  -2 -15   62.98   20.22
  -5  -3  13   -9.05   10.00
  -5  -3  12  356.81   46.31
  -5  -3  11  636.46   60.01
  -5  -3  10  316.41   40.18
  -5  -3   9  166.64   27.74
  -5  -3   8  201.60   29.00
  -5  -3   7  393.46   39.08
   5   3  -7  477.59   32.36
  -5  -3   6 1646.83   79.66
   5   3  -6 1533.60   65.66
  -5  -3   5  558.37   41.68
   5   3  -5  590.27   37.55
  -5  -3   4  586.16   40.11
   5   3  -4  635.23   39.05
  -5  -3   3   54.44   10.86
   5   3  -3   45.10   10.50
  -5  -3   2  256.89   22.32
   5   3  -2  271.28   25.05
   5   3  -2  260.55   11.98
  -5  -3   1  133.56   14.33
   5   3  -1  116.52   16.69
   5   3  -1  141.93   11.00
  -5  -3   0 1280.89   46.36
   5   3   0 1164.36   56.66
   5   3   0 1195.92   44.24
  -5  -3  -1  768.58   29.45
   5   3   1  709.72   42.41
   5   3   1  690.39   34.49
  -5  -3  -2 1362.36   37.09
   5   3   2 1344.08   60.81
   5   3   2 1258.63   53.35
   5   3   3  931.34   48.69
  -5  -3  -3  947.01   48.12
   5   3   3  892.05   45.94
   5   3   4  217.83   22.26
   5   3   4  196.87   21.52
  -5  -3  -4  253.54   24.38
  -5  -3  -5   53.66   11.99
   5   3   5   39.83    9.71
   5   3   5   36.74   10.08
   5   3   6  312.68   26.66
   5   3   6  335.33   31.91
  -5  -3  -6  353.82   31.37
   5   3   7  756.64   42.93
  -5  -3  -7  766.44   49.45
   5   3   7  747.25   51.49
   5   3   8  831.60   44.41
  -5  -3  -8  751.76   51.83
   5   3   8  814.87   56.22
  -5  -3  -9  478.32   42.75
   5   3   9  530.25   46.92
   5   3  10  190.83   30.38
  -5  -3 -10  249.93   32.12
   5   3  11   16.29   11.15
  -5  -3 -11    6.86    8.92
   5   3  12   60.27   19.04
  -5  -3 -12   69.34   19.39
   5   3  13  319.87   43.11
  -5  -3 -13  259.27   37.42
   5   3  14  246.38   39.29
  -5  -3 -14  234.07   37.02
   5   3  15  336.70   47.53
  -5  -3 -15  415.61   50.67
  -5  -4  12   30.09   14.63
  -5  -4  11  487.83   53.10
  -5  -4  10 1073.49   76.78
  -5  -4   9 1568.24   91.07
  -5  -4   8  252.64   33.22
   5   4  -7   42.93    9.92
  -5  -4   7   50.97   14.96
  -5  -4   6  514.31   42.53
   5   4  -6  468.86   34.26
  -5  -4   5  580.37   43.27
   5   4  -5  661.39   41.22
  -5  -4   4  126.07   18.36
   5   4  -4  151.82   19.10
  -5  -4   3  223.84   22.97
  -5  -4   3  200.53   15.15
   5   4  -3  196.87   22.00
  -5  -4   2    5.93    3.99
   5   4  -2   11.41    5.86
  -5  -4   1  420.35   26.85
   5   4  -1  345.79   29.69
   5   4  -1  373.86   15.88
  -5  -4   0  876.22   38.31
   5   4   0  837.65   47.62
   5   4   0  871.75   33.72
  -5  -4  -1  506.67   24.41
   5   4   1  427.71   33.05
   5   4   1  457.74   26.14
   5   4   2    0.32    3.76
   5   4   2    1.82    4.49
  -5  -4  -2    1.96    1.73
  -5  -4  -3 1006.96   29.05
   5   4   3 1042.48   30.99
   5   4   3  962.44   51.51
   5   4   3  999.53   49.05
  -5  -4  -3 1035.72   50.80
   5   4   4 2921.61   70.06
   5   4   4 2837.25  101.16
   5   4   4 2919.87  101.55
  -5  -4  -4 2862.66  100.09
   5   4   5 3260.02  110.24
  -5  -4  -5 3077.99  110.11
   5   4   5 3264.46  114.67
   5   4   5 3283.34   79.25
   5   4   6 1494.75   65.70
   5   4   6 1421.56   71.40
  -5  -4  -6 1492.13   70.28
   5   4   7   62.10   14.80
  -5  -4  -7   64.62   14.43
   5   4   7   67.24   12.68
   5   4   8  199.97   27.50
   5   4   8  248.40   23.87
  -5  -4  -8  222.74   27.50
   5   4   9 1185.37   73.35
  -5  -4  -9 1172.10   69.34
  -5  -4 -10  665.55   52.95
   5   4  10  602.07   53.23
   5   4  11  235.73   34.39
  -5  -4 -11  193.46   29.75
   5   4  12   56.69   18.74
  -5  -4 -12   29.28   13.58
   5   4  13   11.09   10.93
  -5  -4 -13   32.80   14.19
   5   4  14   32.84   16.32
  -5  -4 -14    9.64    8.71
  -5  -5  12   40.85   17.37
  -5  -5  11  217.19   35.64
  -5  -5  10    5.70    8.19
  -5  -5   9  132.33   25.95
  -5  -5   8  360.42   40.27
  -5  -5   7 1100.66   69.46
  -5  -5   6  450.50   40.91
   5   5  -6  481.50   36.09
  -5  -5   5  394.95   35.58
   5   5  -5  317.39   29.44
   5   5  -4   95.18   15.99
  -5  -5   4   86.66   15.86
   5   5  -3   64.94   13.27
  -5  -5   3   59.09   12.44
  -5  -5   3   39.75    7.95
  -5  -5   2  579.65   36.92
  -5  -5   2  571.16   31.97
   5   5  -2  524.94   38.54
  -5  -5   1 1002.01   47.29
   5   5  -1  915.86   52.50
  -5  -5   0 1502.03   57.90
   5   5   0 1587.83   59.18
   5   5   0 1446.79   68.57
   5   5   0 1542.13   49.82
  -5  -5  -1 2598.30   77.98
   5   5   1 2487.49   77.10
   5   5   1 2513.53   94.75
   5   5   1 2300.87   75.76
   5   5   2  971.04   38.60
   5   5   2  944.55   52.74
  -5  -5  -2 1020.67   48.38
   5   5   2  965.23   44.92
   5   5   3   44.85   10.28
   5   5   3   45.35    6.74
  -5  -5  -3   60.46   12.07
   5   5   3   39.24   10.53
   5   5   4  113.33   16.80
  -5  -5  -4  117.76   16.41
   5   5   4  117.07   10.63
   5   5   4  129.17   18.68
   5   5   5  762.69   46.93
   5   5   5  806.90   31.60
   5   5   5  750.21   47.80
  -5  -5  -5  799.90   47.03
   5   5   6 1418.58   66.15
  -5  -5  -6 1354.40   66.78
   5   5   6 1376.06   70.56
  -5  -5  -7  774.91   50.53
   5   5   7  732.12   45.56
   5   5   7  708.67   51.53
   5   5   8  414.99   33.02
  -5  -5  -8  393.41   37.03
   5   5   8  342.92   36.60
   5   5   9   66.10   17.80
   5   5   9   29.60    8.68
  -5  -5  -9   39.35   13.12
   5   5  10   76.55   18.82
  -5  -5 -10   73.01   17.75
   5   5  11  282.43   38.48
  -5  -5 -11  217.39   31.94
   5   5  12   71.89   21.63
  -5  -5 -12   46.17   16.02
   5   5  13  159.91   31.51
  -5  -5 -13  125.22   26.81
  -5  -5 -14  357.32   46.01
   5   5  14  346.59   48.36
  -5  -6  11  102.91   25.53
  -5  -6  10  179.80   32.43
  -5  -6   9  441.81   48.58
  -5  -6   8  110.05   23.17
  -5  -6   7   11.01    9.52
  -5  -6   6  460.66   42.56
   5   6  -6  460.90   37.70
  -5  -6   5 1406.75   74.63
   5   6  -5 1386.08   69.76
  -5  -6   4 1435.10   71.52
   5   6  -4 1274.88   66.92
  -5  -6   3  670.39   44.79
  -5  -6   3  654.41   36.51
   5   6  -3  625.90   44.50
  -5  -6   2  244.17   24.79
  -5  -6   2  189.04   19.71
   5   6  -2  204.13   25.01
   5   6  -1   34.35   11.00
  -5  -6   1   39.06    9.82
   5   6  -1   22.56    7.86
  -5  -6   1   34.27    8.56
   5   6   0  126.70   19.63
   5   6   0   98.13   14.01
   5   6   1  387.30   27.00
   5   6   1  370.10   33.42
   5   6   1  393.65   25.32
  -5  -6  -1  396.62   27.62
  -5  -6  -2 1477.13   61.70
   5   6   2 1442.41   56.18
   5   6   2 1470.79   71.44
   5   6   2 1481.97   60.27
  -5  -6  -3  808.45   43.89
   5   6   3  812.34   50.35
   5   6   3  772.87   44.39
   5   6   3  801.67   37.49
   5   6   4  209.77   25.01
  -5  -6  -4  223.61   22.96
   5   6   4  205.89   17.32
   5   6   4  202.90   23.19
   5   6   5   23.18    8.85
   5   6   5   20.28    8.24
   5   6   5   28.07    6.11
  -5  -6  -5   17.80    8.00
   5   6   6   23.95   10.72
   5   6   6   32.57   10.15
  -5  -6  -6   30.49    9.69
   5   6   7  162.86   24.92
   5   6   7  164.46   22.07
  -5  -6  -7  122.55   19.57
  -5  -6  -8  355.45   35.59
   5   6   8  331.11   31.41
   5   6   8  292.72   35.29
   5   6   9  309.03   29.74
  -5  -6  -9  248.12   31.07
   5   6   9  292.92   36.18
  -5  -6 -10  257.63   33.26
   5   6  10  325.86   40.35
   5   6  11   30.04   13.37
  -5  -6 -11   24.63   11.69
   5   6  12   50.21   17.93
  -5  -6 -12   50.25   16.86
   5   6  13    3.89    9.31
  -5  -6 -13   46.82   16.68
   5   6  14   62.36   21.35
  -5  -6 -14   37.74   18.34
  -5  -7  11    2.27    7.02
  -5  -7  10  105.89   25.67
  -5  -7   9  984.20   75.47
  -5  -7   8 1217.74   81.01
  -5  -7   7  994.81   69.22
   5   7  -6  126.53   20.79
  -5  -7   6   98.24   20.76
   5   7  -5  121.16   20.53
  -5  -7   5   87.93   18.70
  -5  -7   4 1021.20   61.44
   5   7  -4  827.82   55.74
  -5  -7   3  941.81   56.98
   5   7  -3  924.25   58.70
  -5  -7   2  231.02   25.88
   5   7  -2  232.88   26.40
  -5  -7   2  259.48   25.09
   5   7  -2  219.63   27.78
   5   7  -1  180.88   22.00
  -5  -7   1  221.20   23.74
   5   7  -1  245.27   28.98
   5   7   0   97.91   18.79
   5   7   0  137.74   18.40
  -5  -7   0  110.52   17.51
  -5  -7   0   96.63   12.75
   5   7   1  344.12   28.31
   5   7   1  357.91   34.73
  -5  -7  -1  402.69   27.22
   5   7   2  167.56   23.73
  -5  -7  -2  187.03   19.00
   5   7   2  228.43   22.14
   5   7   2  171.20   19.01
   5   7   3   19.51    9.28
   5   7   3    7.98    4.88
  -5  -7  -3   15.82    6.58
   5   7   3   11.96    5.16
   5   7   4  348.18   34.08
   5   7   4  348.87   26.01
  -5  -7  -4  305.26   27.13
   5   7   4  334.65   30.97
   5   7   5  619.31   46.04
   5   7   5  655.38   47.59
  -5  -7  -5  668.48   43.34
   5   7   5  663.62   37.18
   5   7   6 1499.91   75.92
  -5  -7  -6 1461.50   70.78
   5   7   6 1494.57   78.36
   5   7   7  847.37   54.91
  -5  -7  -7  856.29   54.64
   5   7   7  894.77   61.32
   5   7   8   65.81   17.74
   5   7   8   75.57   15.81
  -5  -7  -8   63.25   15.13
   5   7   9   47.18   15.43
   5   7   9   72.96   16.15
  -5  -7  -9   72.05   17.13
   5   7  10  743.42   63.76
  -5  -7 -10  843.34   61.51
  -5  -7 -11  627.42   55.27
   5   7  11  619.47   60.04
   5   7  12  531.32   57.14
  -5  -7 -12  406.93   46.31
   5   7  13  103.58   27.13
  -5  -7 -13  151.63   30.08
  -5  -7 -14   55.31   19.45
  -5  -8  10   17.93   14.26
  -5  -8   9    1.65    6.54
  -5  -8   8  251.30   37.11
  -5  -8   7  876.49   67.65
  -5  -8   6  496.35   48.63
  -5  -8   5  643.65   53.18
   5   8  -4   83.16   17.87
  -5  -8   4   74.30   17.37
   5   8  -3   22.83   10.88
   5   8  -3    4.43    7.34
  -5  -8   3   23.18   10.84
   5   8  -2    9.14    8.83
   5   8  -2   24.89   10.68
  -5  -8   2   18.33    7.49
   5   8  -1    6.89    6.76
  -5  -8   1   17.39    7.39
   5   8  -1    5.71    6.48
   5   8   0   58.92   16.59
  -5  -8   0   65.22   14.33
   5   8   0   88.84   16.66
   5   8   1  390.52   33.27
  -5  -8  -1  474.85   39.64
   5   8   1  481.63   42.77
  -5  -8  -2  594.27   45.74
   5   8   2  605.21   48.59
   5   8   2  615.32   40.79
   5   8   3 1012.17   63.99
  -5  -8  -3 1069.78   50.89
   5   8   3  982.03   52.73
  -5  -8  -4  236.58   23.94
   5   8   4  262.84   25.13
   5   8   4  311.82   34.61
   5   8   4  263.41   28.77
   5   8   5   32.64   12.25
   5   8   5   51.10   14.35
  -5  -8  -5   39.35   10.91
   5   8   5   38.91    9.80
   5   8   6  610.52   48.93
  -5  -8  -6  725.15   47.27
   5   8   6  580.67   48.59
   5   8   7 1481.23   80.29
  -5  -8  -7 1605.13   78.09
   5   8   7 1545.91   86.22
  -5  -8  -8 1449.81   76.43
   5   8   8 1274.82   81.36
   5   8   9  295.05   38.60
  -5  -8  -9  222.18   29.77
   5   8  10    4.70    7.16
  -5  -8 -10   15.42   10.86
   5   8  11  101.76   24.61
  -5  -8 -11  172.57   28.64
   5   8  12  284.72   43.74
  -5  -8 -12  253.44   37.02
   5   8  13  203.18   37.50
  -5  -8 -13  135.97   27.96
  -5  -9   9  396.35   49.79
  -5  -9   8  297.30   41.56
  -5  -9   7  128.45   27.09
  -5  -9   6   -0.73    7.48
  -5  -9   5  140.18   25.88
  -5  -9   4  172.74   27.88
  -5  -9   3  637.06   51.70
   5   9  -3  628.76   51.95
   5   9  -2  336.95   36.51
   5   9  -1  319.98   34.11
  -5  -9   1  259.37   30.17
   5   9  -1  288.09   35.52
   5   9   0   69.39   18.04
  -5  -9   0   94.72   18.43
   5   9   0   83.65   17.08
   5   9   1   34.89   12.35
   5   9   1   25.30   10.72
  -5  -9  -1   22.11    9.33
   5   9   2  112.77   22.20
  -5  -9  -2  191.46   27.04
   5   9   2  172.82   23.04
  -5  -9  -3  641.60   51.55
   5   9   3  544.78   49.26
   5   9   3  585.51   42.72
  -5  -9  -4  784.62   58.87
   5   9   4  811.58   60.38
   5   9   4  808.54   50.60
  -5  -9  -5  698.45   56.62
   5   9   5  729.73   47.70
   5   9   6   46.12   14.19
   5   9   7   18.78   10.06
  -5  -9  -7   37.29   11.99
  -5  -9  -8  378.89   37.27
   5   9   8  272.80   37.65
  -5  -9  -9  296.88   34.92
   5   9   9  312.05   41.18
   5   9  10  136.50   29.54
  -5  -9 -10  125.97   24.18
   5   9  11   65.19   19.93
  -5  -9 -11   55.28   16.39
   5   9  12   17.29   10.08
  -5  -9 -12   53.76   17.70
  -5  -9 -13   26.93   12.37
  -5 -10   7 1250.04   88.72
  -5 -10   6 1172.80   83.02
  -5 -10   5  234.12   34.94
  -5 -10   4    2.07    6.55
   5  10  -4    0.14    7.95
   5  10  -3  315.57   38.86
   5  10  -2  785.35   60.09
   5  10  -1  686.47   54.29
   5  10   0  271.56   33.20
  -5 -10   0  273.14   33.63
   5  10   1   55.02   15.34
  -5 -10  -1   89.14   19.69
   5  10   2   -2.21    5.01
  -5 -10  -2   -2.69    4.30
  -5 -10  -3   20.08   10.84
   5  10   3   10.41    6.16
  -5 -10  -4   19.98   10.66
   5  10   4   -0.35    4.04
  -5 -10  -5   18.43   11.70
  -5 -10  -6  433.80   47.44
  -5 -10  -7  526.51   53.16
  -5 -10  -8  285.15   39.83
   5  10   9   57.73   20.63
  -5 -10  -9   39.11   16.03
   5  10  10   41.05   17.23
  -5 -10 -10   24.87   12.76
   5  10  11   19.05   11.50
  -5 -10 -11   73.73   21.83
  -5 -11   6  391.85   49.04
  -5 -11   5  733.74   65.86
  -5 -11   4  323.05   42.09
   5  11  -4  364.77   44.72
   5  11  -3   86.75   21.54
   5  11  -2   36.91   13.95
   5  11  -1   56.95   17.01
   5  11   0   31.22   12.58
   5  11   1   96.16   20.89
  -5 -11  -1  101.96   22.13
   5  11   2   76.44   18.24
  -5 -11  -2  114.65   23.91
   5  11   3  118.97   22.28
  -5 -11  -3   96.44   22.79
  -5 -11  -4  233.70   35.57
  -5 -11  -5  261.10   38.07
  -5 -11  -6   10.75    9.08
  -5 -11  -7  289.74   41.67
  -5 -11  -8  776.06   69.42
  -5 -11  -9  806.64   71.95
  -5 -11 -10  257.15   40.29
  -5 -12   4   30.19   15.63
   5  12  -4   37.88   15.89
   5  12  -3  106.14   25.55
   5  12  -2   64.24   19.35
   5  12  -1  195.97   32.71
   5  12   0  169.64   29.29
   5  12   1  210.21   32.85
   5  12   2   91.57   21.53
  -5 -12  -2   39.55   15.98
   5  12   3   50.16   15.85
  -5 -12  -3   23.21   13.21
  -5 -12  -4  190.28   33.33
  -5 -12  -5  801.82   70.36
  -5 -12  -6  658.55   64.61
  -5 -12  -7  201.46   36.56
   5  13  -1  317.89   44.17
   5  13   0  303.39   41.74
   5  13   1  188.39   32.45
   5  13   2   25.53   12.75
  -6   9   3  212.02   36.89
  -6   9   2  184.89   34.29
  -6   9   1   11.38   11.62
  -6   9   0  275.99   41.14
   6  -9   0  348.69   48.62
  -6   9  -1  282.13   41.31
  -6   9  -2 1008.40   79.89
  -6   9  -3  333.46   44.79
  -6   8   6   57.38   20.23
  -6   8   5  124.73   28.73
  -6   8   4  533.98   56.81
  -6   8   3  147.44   29.75
  -6   8   2  461.46   51.23
   6  -8  -2  464.70   52.58
  -6   8   1   96.66   22.86
   6  -8  -1  104.19   25.23
  -6   8   0  104.04   24.05
   6  -8   0  188.59   34.00
  -6   8  -1   14.26   10.08
   6  -8   1   10.52    9.30
   6  -8   1   41.94   17.02
   6  -8   2    4.00    7.76
  -6   8  -2   47.21   16.31
   6  -8   2   19.98   12.53
   6  -8   3   11.45   11.49
  -6   8  -3   29.41   13.48
   6  -8   3    6.16    8.89
   6  -8   4  571.68   63.45
  -6   8  -4  602.96   57.71
   6  -8   4  571.50   61.41
  -6   7   8  867.54   76.14
  -6   7   7  809.39   72.01
  -6   7   6  540.56   56.75
  -6   7   5   36.81   15.93
  -6   7   4   40.30   16.04
  -6   7   3   -2.73    8.46
  -6   7   2  163.48   28.73
   6  -7  -2   91.16   22.96
  -6   7   1   -9.54    8.33
   6  -7  -1    2.73    7.40
  -6   7   0  363.74   41.20
   6  -7   0  225.06   34.88
   6  -7   1  247.22   37.82
  -6   7  -1  292.09   37.08
   6  -7   1  209.43   34.21
   6  -7   2  476.43   53.43
  -6   7  -2  403.37   44.08
   6  -7   2  551.25   55.72
   6  -7   3  447.85   53.02
  -6   7  -3  493.42   48.79
   6  -7   3  537.28   55.71
  -6   7  -4    6.08    6.24
   6  -7   4    0.64    8.77
   6  -7   4   -3.93    9.28
  -6   7  -5   22.16   10.31
   6  -7   5   21.75   11.89
   6  -7   5   18.94   11.66
   6  -7   6  756.35   73.38
   6  -7   6  857.80   73.47
   6  -7   7  576.97   64.07
  -6   6   9  444.19   53.95
  -6   6   8    0.17    6.06
  -6   6   7   27.50   14.89
  -6   6   6  395.84   46.50
  -6   6   5   39.42   15.23
  -6   6   4  276.99   36.81
  -6   6   3  199.05   30.11
  -6   6   2   75.85   19.06
   6  -6  -2   52.40   15.10
  -6   6   1  537.35   48.60
   6  -6  -1  467.94   47.76
  -6   6   0   -2.29    5.08
   6  -6   0   -3.22    7.45
   6  -6   0   13.80   11.33
  -6   6  -1   81.01   18.18
   6  -6   1   44.36   15.15
   6  -6   1   69.73   19.08
   6  -6   2 1071.78   77.68
  -6   6  -2 1054.92   68.56
   6  -6   2 1111.42   76.94
   6  -6   3  834.76   69.11
  -6   6  -3  860.35   61.43
   6  -6   3  915.24   70.39
   6  -6   4 1197.44   86.47
  -6   6  -4 1333.47   78.12
   6  -6   4 1382.48   88.80
   6  -6   5  640.76   62.86
   6  -6   5  630.45   59.28
  -6   6  -5  695.47   55.15
   6  -6   6   94.04   24.37
   6  -6   6   78.21   23.35
   6  -6   7   24.05   15.86
   6  -6   8  852.09   76.97
   6  -6   9  111.69   27.93
   6  -6   9  122.23   28.92
  -6   5  10    9.88   10.23
  -6   5  10   21.50   12.98
  -6   5   9  174.63   33.42
  -6   5   9  166.25   32.64
  -6   5   8  525.61   55.26
  -6   5   7  975.33   73.36
  -6   5   6  394.23   44.26
  -6   5   5  271.22   35.69
  -6   5   4  243.20   32.69
  -6   5   3  319.16   36.52
  -6   5   2 1194.52   70.99
   6  -5  -2 1083.46   69.98
  -6   5   1  859.96   58.51
   6  -5  -1  831.24   60.72
   6  -5   0  348.27   39.14
  -6   5   0  382.89   37.45
   6  -5   0  263.60   34.36
   6  -5   1  861.78   65.02
  -6   5  -1  969.40   60.67
   6  -5   1 1025.57   68.72
  -6   5  -2    9.63    7.20
   6  -5   2   24.51   12.13
   6  -5   2   15.11   11.16
   6  -5   3   23.36   12.21
  -6   5  -3   16.37    8.46
   6  -5   3   20.19   11.37
   6  -5   4  469.69   50.78
  -6   5  -4  641.58   48.40
   6  -5   4  563.87   52.93
   6  -5   5  479.07   51.37
   6  -5   5  361.67   43.15
  -6   5  -5  434.85   39.87
   6  -5   6  360.68   45.62
   6  -5   7  189.30   33.58
   6  -5   8    1.87    9.42
   6  -5   9   62.32   20.49
   6  -5  10  211.62   37.15
  -6   4  11  905.96   79.28
  -6   4  10  316.34   44.84
  -6   4   9  392.06   48.24
   6  -4  -8   96.33   21.25
  -6   4   8   78.64   21.84
  -6   4   7  753.43   62.99
  -6   4   6  762.45   61.03
  -6   4   6  650.11   55.49
  -6   4   5 1901.66   96.28
  -6   4   4   77.38   17.82
  -6   4   3  126.83   21.72
  -6   4   2  323.08   33.45
   6  -4  -2  361.44   35.60
   6  -4  -2  337.78   35.23
   6  -4  -1   81.42   17.76
   6  -4  -1   81.50   17.98
  -6   4   1   49.20   13.37
   6  -4   0   71.94   17.02
  -6   4   0   39.35   11.62
   6  -4   0   68.63   16.89
  -6   4  -1  129.00   20.05
   6  -4   1  105.56   21.23
   6  -4   1   90.86   19.19
  -6   4  -2  153.54   21.27
   6  -4   2  152.00   25.99
   6  -4   2  112.78   21.81
   6  -4   3 1458.23   86.21
  -6   4  -3 1441.81   71.26
   6  -4   3 1591.98   85.89
   6  -4   4  133.73   25.38
  -6   4  -4  104.50   17.55
  -6   4  -4  138.24   20.33
   6  -4   4  108.20   22.32
   6  -4   5  222.23   32.21
  -6   4  -5  225.33   26.18
   6  -4   5  233.77   34.43
  -6   4  -5  278.85   29.17
   6  -4   6  342.95   42.52
   6  -4   7  381.38   45.92
   6  -4   8  602.93   57.92
   6  -4   9  729.69   65.80
   6  -4  10  163.44   31.65
   6  -4  11   43.02   18.40
  -6   3  12   17.49   12.43
  -6   3  11  158.88   31.39
  -6   3  10  424.78   50.71
  -6   3   9 1692.06  101.77
  -6   3   8  361.81   43.43
   6  -3  -7  232.12   30.99
  -6   3   7  238.68   34.40
  -6   3   6  157.07   26.42
  -6   3   5  192.60   28.11
  -6   3   4  530.88   45.60
  -6   3   4  616.07   47.56
   6  -3  -4  590.18   40.84
  -6   3   3  796.69   52.52
   6  -3  -3  827.20   50.68
   6  -3  -3  832.01   52.70
  -6   3   2    1.06    4.90
   6  -3  -2    1.42    6.72
   6  -3  -2    5.35    5.93
  -6   3   1  510.65   38.38
   6  -3  -1  483.19   40.32
   6  -3  -1  478.08   40.26
   6  -3   0   16.91    8.35
  -6   3   0    0.05    4.70
   6  -3   0   11.56    7.65
  -6   3  -1  954.71   52.20
   6  -3   1 1031.95   63.75
   6  -3   1  885.20   58.33
   6  -3   2  247.15   31.34
  -6   3  -2  299.57   27.23
   6  -3   2  270.93   31.97
  -6   3  -3   42.98   10.29
   6  -3   3   49.01   14.74
   6  -3   3   45.01   14.19
   6  -3   4  751.84   58.41
  -6   3  -4  784.17   49.14
  -6   3  -4  814.81   46.69
   6  -3   4  714.24   55.71
  -6   3  -5 2521.14   94.59
   6  -3   5 2395.14  115.46
  -6   3  -5 2471.59   98.96
   6  -3   6  439.33   46.61
  -6   3  -6  483.42   39.16
   6  -3   7  355.71   39.49
  -6   3  -7  271.19   30.48
  -6   3  -8  530.97   43.84
   6  -3   8  503.40   50.86
   6  -3   9  583.96   56.85
  -6   3  -9  601.35   48.90
   6  -3  10  839.89   70.55
   6  -3  11  758.94   68.93
   6  -3  12    4.51    9.09
  -6   2  12   82.20   24.13
  -6   2  11  104.88   25.95
  -6   2  10   40.42   15.30
  -6   2   9   65.39   19.10
  -6   2   8  142.38   26.63
  -6   2   7 1429.64   84.93
   6  -2  -7 1597.44   79.78
  -6   2   6  943.02   63.86
   6  -2  -6  874.11   58.32
  -6   2   5 1439.46   77.68
   6  -2  -5 1356.39   75.26
  -6   2   4  225.33   28.08
   6  -2  -4  205.80   21.66
   6  -2  -4  235.11   24.88
  -6   2   3    4.31    7.09
   6  -2  -3    8.17    5.43
   6  -2  -3    3.96    5.97
  -6   2   2  179.41   21.85
   6  -2  -2  205.93   23.40
   6  -2  -2  191.46   22.99
  -6   2   1  929.49   50.27
   6  -2  -1  993.62   55.87
   6  -2  -1  912.63   53.97
  -6   2   0  301.45   26.18
   6  -2   0  293.01   30.24
   6  -2   0  318.21   31.14
  -6   2  -1 1443.91   61.29
   6  -2   1 1548.32   76.34
   6  -2   1 1325.73   69.86
  -6   2  -2   93.46   13.44
   6  -2   2   69.20   16.04
   6  -2   2   49.31   13.40
   6  -2   3  477.95   42.77
  -6   2  -3  452.70   30.56
   6  -2   3  477.59   40.80
   6  -2   4  149.53   24.68
  -6   2  -4  129.35   19.39
  -6   2  -4  169.72   18.21
   6  -2   5  850.39   59.03
   6  -2   5  891.98   62.73
  -6   2  -5  779.64   50.39
   6  -2   6  757.22   55.73
  -6   2  -6  755.91   50.23
   6  -2   7 1925.30   92.07
   6  -2   7 1839.73   96.85
  -6   2  -7 1731.69   83.67
  -6   2  -8  105.85   19.78
   6  -2   8  106.09   20.03
   6  -2   8   75.66   18.48
  -6   2  -9  238.28   30.80
   6  -2   9  201.18   32.48
  -6   2 -10   95.32   20.81
   6  -2  10  152.99   28.78
  -6   2 -11   -5.91    8.30
   6  -2  11   13.34   10.62
  -6   2 -12   93.70   21.90
   6  -2  12   54.16   19.45
   6  -2  13  120.60   28.15
  -6   1  12   31.48   14.91
  -6   1  11  217.54   36.45
  -6   1  10  339.33   43.71
  -6   1   9  959.38   72.03
  -6   1   8  989.04   70.45
  -6   1   7   80.76   19.77
   6  -1  -7  110.59   18.46
  -6   1   6   25.61   10.78
   6  -1  -6   38.86   11.33
  -6   1   5 2351.98  102.87
   6  -1  -5 2383.44  100.21
   6  -1  -5 2439.51   86.26
  -6   1   4  779.39   51.28
   6  -1  -4  814.43   53.71
   6  -1  -4  811.29   40.72
   6  -1  -4  774.30   43.52
  -6   1   3 2195.19   89.11
   6  -1  -3 1986.67   91.78
   6  -1  -3 2140.73   78.76
   6  -1  -3 2081.36   80.40
   6  -1  -2   27.33   10.19
  -6   1   2   21.01    8.84
   6  -1  -2   13.69    6.41
   6  -1  -2   34.53    8.95
  -6   1   1   32.53    9.12
  -6   1   1   33.45    8.91
   6  -1  -1   34.71   10.15
   6  -1  -1   23.98   11.49
   6  -1  -1   32.04   10.10
  -6   1   0   82.87   12.24
   6  -1   0   85.29   15.64
   6  -1   0   74.54   16.58
   6  -1   0   79.12   14.90
   6  -1   1 1233.56   69.53
  -6   1  -1 1172.29   49.43
   6  -1   1 1086.80   61.04
   6  -1   1 1170.98   61.05
   6  -1   2   80.03   16.05
  -6   1  -2   83.72   11.36
   6  -1   2  101.62   18.03
   6  -1   2  102.21   19.71
   6  -1   3 1197.84   69.83
   6  -1   3 1315.10   71.45
  -6   1  -3 1304.05   50.26
  -6   1  -4  100.75   12.22
   6  -1   4  111.43   20.07
  -6   1  -4   88.88   15.81
   6  -1   5  559.97   44.48
  -6   1  -5  491.62   39.06
   6  -1   6    2.65    7.54
   6  -1   6    5.63    6.01
  -6   1  -6    1.33    4.82
   6  -1   7  158.91   23.37
  -6   1  -7  100.31   18.62
   6  -1   7  122.80   22.71
   6  -1   8  337.52   33.33
  -6   1  -8  309.58   33.71
   6  -1   8  311.15   37.19
  -6   1  -9 1076.44   67.59
   6  -1   9 1140.72   76.55
  -6   1 -10   70.42   17.57
   6  -1  10   62.36   18.14
  -6   1 -11  242.44   33.19
   6  -1  11  261.74   38.47
  -6   1 -12   -5.14   10.82
   6  -1  12   13.30   10.63
  -6   1 -13    4.36    8.79
   6  -1  13    8.68   11.73
  -6   1 -14    2.66    8.77
  -6   0  12  133.76   28.78
  -6   0  11  -19.02   12.41
  -6   0  10    5.01    9.21
  -6   0   9  793.83   64.10
  -6   0   8  712.07   58.42
  -6   0   7 1915.79   97.78
   6   0  -7 2126.03   87.12
  -6   0   6  857.90   58.84
   6   0  -6  899.14   53.45
  -6   0   5   60.57   14.29
   6   0  -5   51.52   13.17
  -6   0   4  221.92   25.92
   6   0  -4  244.92   27.53
   6   0  -4  274.28   22.15
  -6   0   3 2072.08   84.70
   6   0  -3 1993.37   88.65
   6   0  -3 2090.28   75.13
  -6   0   2   90.37   14.57
   6   0  -2   86.96   16.23
   6   0  -2  116.60   15.33
  -6   0   1  488.03   32.56
   6   0  -1  507.42   40.57
   6   0  -1  455.29   32.69
   6   0   0    2.27    3.93
  -6   0   0    5.63    4.02
  -6   0   0    2.04    2.89
   6   0   0    3.12    6.87
   6   0   1  284.96   30.48
  -6   0  -1  291.50   19.61
   6   0   2  495.19   40.76
  -6   0  -2  469.08   23.80
   6   0   3   45.91   12.53
  -6   0  -3   42.38    6.50
   6   0   4  198.35   25.39
  -6   0  -4  161.46   21.46
   6   0   5 1756.69   81.23
  -6   0  -5 1461.81   72.98
   6   0   5 1769.48   82.63
   6   0   6  999.20   58.39
  -6   0  -6 1090.04   60.49
   6   0   6  908.20   60.58
   6   0   7 2632.48  102.09
  -6   0  -7 2426.76  102.86
   6   0   7 2457.82  110.46
   6   0   8  843.17   51.54
  -6   0  -8  789.32   54.90
   6   0   8  839.35   61.54
  -6   0  -9  132.69   22.70
   6   0   9  106.60   22.23
  -6   0 -10  468.52   44.74
   6   0  10  383.32   44.29
  -6   0 -11 1755.81   95.31
   6   0  11 1605.47   98.41
  -6   0 -12  311.98   39.85
   6   0  12  316.06   43.27
  -6   0 -13  303.86   40.43
   6   0  13  288.58   42.56
   6   0  14    7.30    8.28
  -6   0 -14  -11.22    9.37
  -6  -1  12  660.95   64.91
  -6  -1  11  223.67   36.76
  -6  -1  10  340.49   42.20
  -6  -1   9   18.20   10.27
  -6  -1   8   26.46   11.29
  -6  -1   7  508.95   45.27
   6   1  -7  499.65   37.08
  -6  -1   6  636.58   48.76
   6   1  -6  586.26   41.15
  -6  -1   5 1489.89   74.52
   6   1  -5 1452.61   69.73
  -6  -1   4  584.54   41.80
   6   1  -4  579.91   41.66
  -6  -1   3   72.26   13.71
   6   1  -3   48.52   12.20
  -6  -1   2   21.17    7.23
   6   1  -2   14.78    7.78
  -6  -1   1  858.27   43.08
   6   1  -1  843.55   52.21
  -6  -1   0    4.17    2.93
   6   1   0    5.30    5.88
   6   1   1 1183.56   64.53
  -6  -1  -1 1158.52   40.08
   6   1   2  863.50   54.39
  -6  -1  -2  922.90   30.16
   6   1   3  990.03   58.11
   6   1   4  651.54   45.40
   6   1   4  624.60   43.81
  -6  -1  -4  609.35   41.83
   6   1   5    2.31    5.16
  -6  -1  -5    2.05    4.73
   6   1   5    8.06    6.43
   6   1   6   32.29    9.49
  -6  -1  -6   31.31   10.81
   6   1   6   31.33   12.28
   6   1   7 2410.14   93.60
  -6  -1  -7 2241.51   97.46
   6   1   7 2266.80  103.07
   6   1   8 1240.57   61.46
  -6  -1  -8 1225.62   69.52
   6   1   8 1031.37   68.96
  -6  -1  -9 1849.14   91.49
   6   1   9 1701.26   93.83
  -6  -1 -10   40.46   13.21
   6   1  10   54.44   18.12
  -6  -1 -11  124.13   24.10
   6   1  11  141.21   28.33
  -6  -1 -12  173.65   30.01
   6   1  12  185.33   33.15
   6   1  13  318.51   44.38
  -6  -1 -13  250.19   37.21
   6   1  14   57.76   20.34
  -6  -1 -14   22.80   12.47
  -6  -2  12   -6.08    9.30
  -6  -2  11   83.74   22.78
  -6  -2  10   20.94   11.78
  -6  -2   9   94.95   21.21
  -6  -2   8  896.78   64.29
  -6  -2   7  339.91   36.62
   6   2  -7  312.51   28.29
  -6  -2   6  731.28   52.36
   6   2  -6  784.11   47.47
  -6  -2   5  269.12   29.17
   6   2  -5  278.40   27.72
  -6  -2   4  915.57   53.07
   6   2  -4  963.31   54.09
  -6  -2   3 1985.78   79.81
   6   2  -3 2004.86   84.53
  -6  -2   2 1517.62   63.12
   6   2  -2 1438.17   69.91
  -6  -2   1  217.76   19.82
   6   2  -1  202.53   24.46
  -6  -2   0  191.39   16.56
   6   2   0  163.97   22.02
  -6  -2  -1  400.13   21.24
   6   2   1  337.01   32.10
   6   2   2   50.66   13.85
   6   2   2   69.01   12.40
   6   2   3 1294.83   65.56
   6   2   3 1217.92   59.80
   6   2   4  549.41   40.20
   6   2   4  519.67   38.57
  -6  -2  -4  502.55   37.75
   6   2   5  330.12   30.63
  -6  -2  -5  371.63   32.82
   6   2   5  321.16   31.49
   6   2   6  489.67   41.09
   6   2   6  512.85   37.78
  -6  -2  -6  427.53   37.06
  -6  -2  -7   24.56    9.54
   6   2   7   19.92    7.71
   6   2   7   33.61   12.07
  -6  -2  -8   20.76   10.31
   6   2   8   34.80    9.25
   6   2   8   35.58   13.43
  -6  -2  -9  835.61   58.82
   6   2   9  809.55   61.70
  -6  -2 -10  557.63   49.35
   6   2  10  470.50   48.28
  -6  -2 -11  340.66   39.80
   6   2  11  342.09   42.05
   6   2  12   66.54   19.53
  -6  -2 -12   80.70   20.99
   6   2  13   20.15   15.58
  -6  -2 -13   23.56   11.77
   6   2  14   62.49   21.54
  -6  -2 -14   36.74   16.18
  -6  -3  12  200.02   35.09
  -6  -3  11  121.42   26.74
  -6  -3  10  143.84   28.28
  -6  -3   9    9.50    9.96
  -6  -3   8  178.71   28.84
  -6  -3   7  999.33   66.64
   6   3  -7 1194.93   59.17
  -6  -3   6 2444.18  106.24
   6   3  -6 2591.97   97.02
  -6  -3   5 1178.71   64.72
   6   3  -5 1132.75   59.25
  -6  -3   4  918.08   52.86
   6   3  -4  825.18   50.10
  -6  -3   3  859.91   48.25
   6   3  -3  858.99   51.05
  -6  -3   2  963.35   48.83
   6   3  -2  988.00   55.65
   6   3  -2 1028.32   36.49
  -6  -3   1 2134.06   74.01
   6   3  -1 1905.89   84.31
   6   3  -1 2130.94   65.98
  -6  -3   0 1187.63   45.90
   6   3   0 1109.90   59.85
   6   3   0 1040.05   45.15
  -6  -3  -1    4.62    2.85
   6   3   1    7.86    5.69
   6   3   1    0.27    3.31
  -6  -3  -2  125.13    8.36
   6   3   2  116.66   15.75
   6   3   2   96.08   16.88
   6   3   3  318.00   29.82
   6   3   3  244.53   24.11
  -6  -3  -4   83.00   15.10
   6   3   4  104.16   16.85
   6   3   4  138.57   19.47
   6   3   5  326.80   29.96
  -6  -3  -5  302.35   29.89
   6   3   5  305.20   30.37
   6   3   6  177.24   21.83
  -6  -3  -6  199.14   24.92
   6   3   6  161.19   23.23
   6   3   7 1316.07   63.70
   6   3   7 1236.41   71.34
  -6  -3  -7 1302.42   69.99
   6   3   8 1859.57   78.03
  -6  -3  -8 1730.45   86.33
   6   3   8 1912.19   94.15
  -6  -3  -9  378.17   38.97
   6   3   9  328.33   38.34
  -6  -3 -10  413.56   42.48
   6   3  10  394.06   43.61
  -6  -3 -11  401.43   43.94
   6   3  11  369.78   44.29
   6   3  12  177.29   32.67
  -6  -3 -12  298.28   39.38
  -6  -3 -13  586.43   57.95
   6   3  13  556.18   59.23
   6   3  14  250.76   40.83
  -6  -3 -14  289.12   41.62
  -6  -4  12  293.30   43.13
  -6  -4  11  259.04   39.41
  -6  -4  10  704.71   62.75
  -6  -4   9  168.36   29.06
  -6  -4   8  269.06   35.16
  -6  -4   7   54.57   15.54
   6   4  -7   60.79   13.11
  -6  -4   6  415.11   39.38
   6   4  -6  412.47   34.53
  -6  -4   5  639.51   47.34
   6   4  -5  676.50   45.07
  -6  -4   4 1143.10   61.44
   6   4  -4 1096.51   59.39
  -6  -4   3  237.25   24.74
   6   4  -3  234.30   26.27
  -6  -4   2  233.50   22.58
   6   4  -2  169.06   22.43
  -6  -4   1  443.06   29.62
   6   4  -1  348.95   32.37
   6   4  -1  404.09   19.50
  -6  -4   0   91.48   11.67
   6   4   0   82.87   10.24
   6   4   0   80.85   15.20
  -6  -4  -1 1091.31   41.08
   6   4   1  976.35   56.16
   6   4   1 1054.49   46.11
  -6  -4  -2  236.43   13.43
   6   4   2  211.03   24.78
   6   4   2  207.60   20.17
   6   4   3  295.44   29.04
  -6  -4  -3  339.71   29.67
   6   4   3  303.91   26.74
   6   4   4 1533.41   71.56
  -6  -4  -4 1453.63   69.00
   6   4   4 1495.84   68.91
   6   4   5  416.40   34.73
   6   4   5  428.09   36.08
  -6  -4  -5  442.73   36.39
  -6  -4  -6  630.68   45.65
   6   4   6  674.55   44.89
   6   4   6  672.89   48.51
   6   4   7  311.74   29.38
   6   4   7  308.57   34.04
  -6  -4  -7  303.92   32.25
   6   4   8  928.15   52.89
  -6  -4  -8  919.30   60.04
   6   4   8  814.41   59.22
   6   4   9 2008.10   82.50
  -6  -4  -9 1825.06   93.09
   6   4   9 1941.10   99.93
  -6  -4 -10 1029.71   69.67
   6   4  10 1113.18   75.54
   6   4  11  182.04   31.11
  -6  -4 -11  160.77   27.50
   6   4  12    0.52    6.85
  -6  -4 -12   22.82   11.96
  -6  -4 -13  371.20   45.95
   6   4  13  443.19   52.65
   6   4  14  116.62   28.30
  -6  -4 -14  186.55   33.97
  -6  -5  11   27.18   14.18
  -6  -5  10   36.98   16.12
  -6  -5   9   64.09   18.46
  -6  -5   8  417.18   45.06
  -6  -5   7  208.22   30.27
  -6  -5   6  553.06   46.81
   6   5  -6  502.80   39.81
   6   5  -5    5.50    6.07
  -6  -5   5  -21.14    9.79
  -6  -5   4   13.55    7.69
   6   5  -4    7.72    7.93
  -6  -5   3  109.26   17.16
   6   5  -3  126.95   19.86
  -6  -5   2 1418.00   64.06
   6   5  -2 1425.12   71.09
  -6  -5   1  373.22   28.12
   6   5  -1  365.52   34.00
  -6  -5   0 1329.85   53.35
   6   5   0 1214.53   65.46
   6   5   0 1271.54   45.18
   6   5   1    9.38    3.90
  -6  -5  -1   10.69    4.10
   6   5   1    4.21    6.00
   6   5   2    0.29    2.95
  -6  -5  -2   -1.94    2.09
   6   5   2    1.55    4.28
   6   5   3   68.42   12.80
  -6  -5  -3   55.99   12.46
   6   5   3   43.07   12.17
  -6  -5  -4  455.87   35.86
   6   5   4  415.53   35.98
   6   5   4  467.15   35.64
   6   5   5  659.73   45.80
  -6  -5  -5  645.53   44.52
   6   5   5  706.01   47.48
   6   5   6 2815.82  107.04
   6   5   6 2674.27  109.77
  -6  -5  -6 2749.96  107.90
   6   5   7  486.31   38.79
   6   5   7  482.89   43.09
  -6  -5  -7  474.18   40.71
   6   5   8  336.38   31.96
  -6  -5  -8  302.17   33.87
   6   5   8  345.25   38.04
   6   5   9  221.89   31.71
   6   5   9  332.82   30.99
  -6  -5  -9  256.18   32.58
  -6  -5 -10  453.67   45.34
   6   5  10  454.21   47.78
  -6  -5 -11  302.15   38.25
   6   5  11  321.18   41.94
  -6  -5 -12  431.59   47.80
   6   5  12  516.59   55.11
   6   5  13   20.51   13.11
  -6  -5 -13   24.69   13.99
   6   5  14   13.74   12.09
  -6  -5 -14   23.30   13.61
  -6  -6  11   26.15   14.05
  -6  -6  10  152.86   30.07
  -6  -6   9  149.96   28.65
  -6  -6   8   16.99    9.36
  -6  -6   7   -5.06    7.58
  -6  -6   6 1238.50   74.39
   6   6  -6 1187.63   66.49
  -6  -6   5  851.16   57.44
   6   6  -5  758.63   52.02
  -6  -6   4 1615.58   78.95
   6   6  -4 1605.76   79.45
   6   6  -3  148.83   22.49
  -6  -6   3  138.31   20.35
   6   6  -2   26.22   11.17
  -6  -6   2   40.38   10.94
  -6  -6   2   49.62   10.17
  -6  -6   1 1234.15   57.63
   6   6  -1 1132.78   65.25
  -6  -6   0 3615.95  111.18
   6   6   0 3343.06  127.28
  -6  -6  -1  959.25   43.76
   6   6   1  822.60   54.67
   6   6   1  971.50   42.76
  -6  -6  -2 1369.67   50.19
   6   6   2 1241.92   49.76
   6   6   2 1279.84   68.67
   6   6   2 1261.61   55.82
  -6  -6  -2 1197.03   58.77
   6   6   3   93.26   15.11
  -6  -6  -3  107.50   16.82
   6   6   3  118.98   19.81
   6   6   4   63.67   14.84
   6   6   4   59.72   13.17
  -6  -6  -4   57.25   12.59
   6   6   5    6.62    6.33
   6   6   5    6.57    6.04
  -6  -6  -5   -8.86    6.35
   6   6   6   20.96    8.30
   6   6   6   18.77    8.56
  -6  -6  -6   35.64   11.05
   6   6   7   31.28   10.90
   6   6   7   57.29   15.89
  -6  -6  -7   38.30   11.93
   6   6   8  776.56   51.57
  -6  -6  -8  824.72   57.22
   6   6   8  749.92   58.40
   6   6   9  238.51   27.73
  -6  -6  -9  243.53   32.04
   6   6   9  266.50   35.40
  -6  -6 -10  613.30   53.44
   6   6  10  688.96   60.01
   6   6  11    0.60    9.15
  -6  -6 -11   14.73    9.29
   6   6  12   -5.42   12.49
  -6  -6 -12    2.43    9.35
   6   6  13  246.76   39.75
  -6  -6 -13  245.04   37.77
   6   6  14  666.16   69.02
  -6  -6 -14  632.61   62.83
  -6  -7  10  115.51   26.95
  -6  -7   9  136.78   28.63
  -6  -7   8  363.04   43.85
  -6  -7   7  261.30   35.49
   6   7  -6    6.40    6.09
  -6  -7   6    2.58    9.28
  -6  -7   5  214.76   29.24
   6   7  -5  254.96   30.95
  -6  -7   4 1683.41   83.92
   6   7  -4 1672.93   84.77
  -6  -7   3 1127.55   63.60
   6   7  -3 1084.80   66.53
  -6  -7   2 1237.98   64.24
  -6  -7   2 1245.00   59.28
   6   7  -2 1113.83   67.72
   6   7  -1   96.23   19.24
  -6  -7   1  146.37   19.35
  -6  -7   1  128.98   18.15
   6   7   0  111.20   20.47
  -6  -7   0   96.88   15.02
  -6  -7   0   99.19   16.47
   6   7   0  122.01   16.80
  -6  -7  -1  321.48   25.99
   6   7   1  325.43   26.66
   6   7   1  304.88   33.68
  -6  -7  -1  362.79   28.86
   6   7   2  663.93   36.92
   6   7   2  557.94   46.12
   6   7   2  582.83   36.32
  -6  -7  -2  656.85   40.79
   6   7   3  142.17   22.55
  -6  -7  -3  132.99   18.05
   6   7   3  149.05   19.17
   6   7   4  193.63   26.40
  -6  -7  -4  199.03   23.24
   6   7   4  176.37   22.58
   6   7   5  121.24   20.60
   6   7   5   57.40   14.16
  -6  -7  -5   80.16   15.77
   6   7   6  396.65   37.73
  -6  -7  -6  334.43   33.17
   6   7   6  451.01   41.14
   6   7   7  114.46   22.73
   6   7   7  118.87   20.97
  -6  -7  -7  107.83   19.85
   6   7   8    6.51    7.82
   6   7   8   10.39    7.46
  -6  -7  -8    7.27    8.38
   6   7   9  150.66   27.57
   6   7   9  167.56   24.19
  -6  -7  -9  179.49   27.57
   6   7  10  902.63   71.57
  -6  -7 -10  951.00   67.39
   6   7  11  550.46   57.29
  -6  -7 -11  671.49   58.01
  -6  -7 -12  416.74   47.70
   6   7  12  467.99   54.53
   6   7  13   35.58   16.52
  -6  -7 -13   56.12   18.19
  -6  -8   9   64.19   19.97
  -6  -8   8  291.67   40.58
  -6  -8   7  190.25   30.91
  -6  -8   6  294.73   37.49
   6   8  -6  257.88   33.00
  -6  -8   5  387.80   41.03
   6   8  -5  367.31   39.02
   6   8  -4   12.17    7.59
  -6  -8   4    8.99    5.78
   6   8  -3    1.00    6.32
  -6  -8   3    6.28    6.81
  -6  -8   2  515.86   42.05
  -6  -8   2  523.40   39.15
   6   8  -2  547.18   48.41
  -6  -8   1  207.99   25.41
   6   8  -1  316.95   30.95
  -6  -8   1  237.73   26.94
   6   8  -1  215.98   30.05
  -6  -8   0  990.81   53.85
   6   8   0  828.76   50.45
  -6  -8   0  819.51   53.15
   6   8   0  838.35   60.12
   6   8   1  198.62   22.58
  -6  -8  -1  241.10   28.11
   6   8   1  202.02   28.84
   6   8   2  141.11   24.33
   6   8   2  183.73   20.97
  -6  -8  -2  221.08   22.27
   6   8   3  187.53   27.71
  -6  -8  -3  242.99   24.51
   6   8   3  259.63   26.18
   6   8   4   48.24   14.59
   6   8   4   61.28   13.86
  -6  -8  -4   39.30   11.07
   6   8   5    7.42    8.27
   6   8   5   19.14    9.69
  -6  -8  -5   20.37    8.87
   6   8   6  976.83   65.27
  -6  -8  -6 1001.72   59.78
   6   8   6  965.02   63.91
   6   8   7  771.12   57.16
  -6  -8  -7  861.95   56.82
   6   8   7  789.27   60.05
   6   8   8  844.28   59.85
  -6  -8  -8  886.54   60.51
   6   8   8 1018.40   71.43
   6   8   9  229.35   35.00
   6   8   9  247.86   31.41
  -6  -8  -9  241.06   31.94
   6   8  10    6.78    8.25
  -6  -8 -10   19.40   11.44
  -6  -8 -11  388.34   44.26
   6   8  11  381.07   49.10
  -6  -8 -12  878.08   70.76
   6   8  12  971.87   81.02
   6   8  13  261.37   44.08
  -6  -8 -13  318.89   43.96
  -6  -9   8    5.06    6.76
  -6  -9   7  -13.41    9.74
  -6  -9   6   79.90   20.33
  -6  -9   5   90.13   20.51
  -6  -9   4 1023.50   69.27
   6   9  -4  978.31   69.55
  -6  -9   3  902.58   62.29
   6   9  -3  853.08   64.39
  -6  -9   2  384.40   38.41
   6   9  -2  410.63   39.91
  -6  -9   2  374.24   35.27
   6   9  -2  345.26   40.62
  -6  -9   1   16.44    8.87
   6   9  -1   32.51   13.05
  -6  -9   1   15.31    7.69
   6   9  -1   23.69   10.42
   6   9   0  464.53   39.68
  -6  -9   0  428.84   39.82
   6   9   0  495.16   47.57
   6   9   1  506.40   40.26
  -6  -9  -1  515.77   44.55
   6   9   1  545.69   50.01
   6   9   2 1221.90   63.51
  -6  -9  -2 1176.72   71.68
   6   9   2 1198.80   76.28
  -6  -9  -3  376.08   39.62
   6   9   3  358.18   40.22
   6   9   4  425.74   43.60
   6   9   5  -16.08    9.20
   6   9   5    5.73    7.61
   6   9   6   37.97   12.99
   6   9   6   44.75   13.98
   6   9   7   56.90   16.88
   6   9   7   32.19   13.73
  -6  -9  -7   35.58   12.21
   6   9   8  448.14   44.90
  -6  -9  -8  385.55   39.26
   6   9   8  341.62   42.27
   6   9   9  101.61   24.87
  -6  -9  -9  113.43   22.49
  -6  -9 -10  590.95   52.91
   6   9  10  517.50   56.15
   6   9  11  211.55   37.79
  -6  -9 -11  214.77   33.15
   6   9  12    7.85   12.03
  -6  -9 -12   -1.06    7.09
  -6 -10   7  445.46   52.05
  -6 -10   6  176.69   31.55
  -6 -10   5  131.33   27.14
  -6 -10   4   88.48   23.24
  -6 -10   3  602.02   52.83
  -6 -10   2 1494.95   83.18
   6  10  -2 1379.28   81.47
   6  10  -1 1010.16   65.83
  -6 -10   1  904.20   61.75
   6  10   0   78.34   21.19
  -6 -10   0  106.32   21.17
   6  10   0   80.90   18.56
   6  10   1   23.80   10.11
   6  10   1    1.41    5.92
  -6 -10  -1    1.62    6.10
  -6 -10  -2  487.92   46.80
   6  10   2  328.03   41.16
   6  10   3  141.46   26.36
  -6 -10  -3  151.83   26.72
  -6 -10  -4  390.64   43.44
   6  10   4  348.85   41.80
  -6 -10  -5  128.60   25.41
  -6 -10  -6   67.38   19.26
   6  10   7   80.82   19.54
   6  10   8   34.45   14.25
   6  10   9   58.22   18.43
   6  10  10   52.72   19.49
   6  10  11  189.93   36.77
  -6 -11   6  362.62   47.31
  -6 -11   5  620.97   60.42
  -6 -11   4  188.03   31.41
  -6 -11   3  197.81   31.66
  -6 -11   2  165.33   28.02
   6  11  -2  180.27   30.10
   6  11  -1  312.87   38.23
   6  11   0  720.26   57.04
  -6 -11   0  679.47   57.03
   6  11   1  424.67   42.61
  -6 -11  -1  372.74   42.64
  -6 -11  -2   59.26   18.27
  -6 -11  -3   69.28   19.67
  -6 -11  -4    7.57   10.58
  -6 -11  -5  106.56   24.74
  -6 -11  -6   52.15   18.38
  -6 -11  -7   24.56   16.02
  -6 -11  -8  228.46   37.99
  -6 -11  -9  538.82   59.31
  -6 -12   4  127.31   27.77
  -6 -12   3  295.06   40.59
  -6 -12   2  462.90   49.59
   6  12  -2  423.66   49.19
   6  12  -1  399.35   45.95
   6  12   0   -3.46    8.76
  -6 -12  -1   13.32    9.43
  -6 -12  -2  242.55   36.34
  -6 -12  -3  376.77   46.31
  -6 -12  -4  455.13   51.76
  -6 -12  -5  290.91   42.69
  -6 -12  -6   20.89   12.89
  -6 -12  -7  -10.74   10.93
  -6 -13  -2   17.55   10.22
  -6 -13  -3   53.57   19.13
  -7   8   4 1014.46   82.24
   7  -8  -4  954.53   78.96
   7  -8  -3  603.71   61.43
  -7   8   3  595.65   61.34
   7  -8  -3  574.64   61.16
  -7   8   2  227.00   37.16
   7  -8  -2  237.71   38.75
   7  -8  -2  258.59   40.98
  -7   8   1  -19.91   12.28
   7  -8  -1   -0.66    7.19
   7  -8  -1   35.79   17.41
  -7   8   0  188.03   33.54
   7  -8   0  225.95   39.43
   7  -8   0  195.88   35.74
  -7   8  -1  225.23   35.44
   7  -8   1  107.62   28.37
  -7   8  -2  171.16   31.61
  -7   7   6  237.48   38.71
  -7   7   5   17.69   10.45
   7  -7  -5   45.90   17.47
  -7   7   4   59.37   20.22
   7  -7  -4   32.38   16.40
   7  -7  -3  119.51   26.72
  -7   7   3  103.73   24.59
   7  -7  -3   84.02   22.61
  -7   7   2  366.85   44.32
   7  -7  -2  261.49   39.10
   7  -7  -2  288.57   40.88
  -7   7   1  116.02   24.95
   7  -7  -1   47.06   17.88
   7  -7  -1   95.67   24.89
  -7   7   0  155.54   28.35
   7  -7   0  158.75   30.97
   7  -7   0  176.32   32.36
  -7   7  -1   28.89   12.69
   7  -7   1   52.40   18.31
   7  -7   1   55.97   19.94
   7  -7   2   40.91   16.60
  -7   7  -2   19.95   10.86
   7  -7   2   13.18   10.75
   7  -7   3   63.73   20.38
   7  -7   3   44.13   17.66
   7  -7   4   43.05   17.37
   7  -7   4   51.13   18.11
   7  -7   5  127.76   29.55
   7  -7   5  158.54   33.71
  -7   6   8   35.88   17.16
  -7   6   7   33.93   15.20
  -7   6   6  463.54   52.29
  -7   6   5  377.67   45.50
  -7   6   4  226.97   34.14
   7  -6  -4  207.57   32.95
   7  -6  -3   87.14   20.67
  -7   6   3   83.05   20.71
   7  -6  -3   80.13   20.95
   7  -6  -2   -4.46    7.35
  -7   6   2    5.41    6.92
   7  -6  -2   20.95   12.31
  -7   6   1   14.71    9.74
   7  -6  -1    9.91    8.56
   7  -6  -1    0.91    7.14
  -7   6   0  209.36   30.98
   7  -6   0  190.50   32.01
   7  -6   0  195.57   32.25
   7  -6   1  332.58   43.51
  -7   6  -1  264.32   34.06
   7  -6   1  266.84   38.31
   7  -6   2  602.36   60.18
  -7   6  -2  583.89   51.32
   7  -6   2  620.35   59.53
   7  -6   3  405.61   50.34
   7  -6   3  398.66   47.93
   7  -6   4  365.75   48.58
   7  -6   4  302.47   42.69
   7  -6   5   84.98   23.03
   7  -6   5   57.31   20.21
   7  -6   6   44.43   19.65
   7  -6   7  298.95   46.15
  -7   5   9   69.77   22.80
  -7   5   8  131.70   28.47
  -7   5   7  878.37   72.25
  -7   5   6  274.67   38.81
  -7   5   5   17.73   12.11
  -7   5   4  352.07   41.12
   7  -5  -4  363.01   40.68
  -7   5   3  880.87   64.66
   7  -5  -3 1075.69   69.75
   7  -5  -3  952.90   68.05
  -7   5   2 1025.76   68.27
   7  -5  -2  929.67   67.04
   7  -5  -2 1076.87   72.32
  -7   5   1  593.71   49.88
   7  -5  -1  452.64   46.60
   7  -5  -1  632.95   55.50
  -7   5   0   39.80   14.14
   7  -5   0   30.93   14.19
   7  -5   0   21.86   12.40
  -7   5  -1   59.63   14.92
   7  -5   1   37.12   14.26
   7  -5   1   28.65   13.47
  -7   5  -2  706.94   52.88
   7  -5   2  695.76   61.93
   7  -5   2  613.82   57.11
   7  -5   3  801.60   68.71
   7  -5   3  847.43   68.10
   7  -5   4  329.69   43.93
   7  -5   4  340.36   43.14
   7  -5   5  216.10   35.22
   7  -5   5  206.72   35.00
   7  -5   6   42.35   17.76
   7  -5   7   72.07   21.89
   7  -5   9   92.56   25.84
  -7   4  10   17.45   12.66
  -7   4   9   27.54   14.23
  -7   4   8   92.61   24.00
  -7   4   8   38.33   15.75
   7  -4  -7  312.52   40.28
  -7   4   7  365.23   45.54
  -7   4   7  457.57   49.44
  -7   4   6  650.98   57.55
  -7   4   5 1138.94   74.59
   7  -4  -5 1068.02   67.70
  -7   4   4   33.34   13.05
   7  -4  -4   34.84   11.89
   7  -4  -3   33.82   11.24
  -7   4   3   10.53    7.32
   7  -4  -3   22.61   10.88
  -7   4   2  522.47   44.90
   7  -4  -2  553.65   47.64
   7  -4  -2  646.39   52.29
  -7   4   1  789.78   54.59
   7  -4  -1  768.33   58.19
   7  -4  -1  752.00   58.01
  -7   4   0  537.30   43.89
   7  -4   0  566.29   50.68
   7  -4   0  625.11   52.81
   7  -4   1  766.16   60.67
  -7   4  -1  754.97   51.39
   7  -4   1  724.71   58.28
   7  -4   2  291.86   37.72
  -7   4  -2  266.92   29.56
   7  -4   2  320.90   38.77
   7  -4   3  106.88   23.74
   7  -4   3  102.52   22.39
   7  -4   4   -3.45   10.00
   7  -4   4    6.71    6.71
  -7   4  -4    3.96    6.26
   7  -4   5   -4.77    9.61
   7  -4   6   48.49   18.47
   7  -4   7  278.64   39.63
   7  -4   8  467.41   53.89
   7  -4   9  452.93   53.59
   7  -4  10   36.86   17.48
  -7   3  11  450.92   55.94
  -7   3  10  255.49   40.86
  -7   3   9  422.74   50.54
  -7   3   8   20.04   12.16
  -7   3   7   29.71   12.76
   7  -3  -7   12.82    9.19
   7  -3  -6  349.17   41.96
  -7   3   6  469.11   47.50
   7  -3  -5 1004.91   71.62
  -7   3   5 1043.62   70.96
  -7   3   5 1112.61   71.34
   7  -3  -5 1178.29   66.30
  -7   3   4  963.68   63.49
   7  -3  -4 1017.82   61.88
  -7   3   3  515.96   43.65
   7  -3  -3  565.28   43.59
   7  -3  -3  496.71   42.60
   7  -3  -2   26.86   11.05
  -7   3   2   14.66    9.01
   7  -3  -2   23.01   10.69
   7  -3  -1    5.24    7.15
  -7   3   1    3.63    5.69
   7  -3  -1    2.63    6.35
   7  -3   0   62.85   16.29
  -7   3   0   94.86   17.08
   7  -3   0   93.33   19.24
  -7   3  -1    6.24    5.77
   7  -3   1   18.70   10.23
   7  -3   1    5.92    6.74
   7  -3   2  165.82   27.38
  -7   3  -2  194.04   22.59
   7  -3   2  134.79   23.79
   7  -3   3  376.01   41.50
   7  -3   3  265.41   34.31
   7  -3   4  583.88   54.01
  -7   3  -4  573.18   44.68
  -7   3  -5  552.05   44.61
   7  -3   5  452.10   48.50
   7  -3   5  516.84   52.16
   7  -3   6  328.02   40.50
  -7   3  -6  347.58   35.38
   7  -3   7    0.22    6.07
  -7   3  -7   -6.10    6.82
  -7   3  -8  445.28   42.54
   7  -3   8  374.46   46.95
   7  -3   9  692.66   65.55
   7  -3  10 1485.57  100.26
   7  -3  11  267.42   42.09
  -7   2  11   29.45   14.63
  -7   2  10   31.84   13.55
  -7   2   9  105.12   25.63
  -7   2   8   46.92   16.17
  -7   2   7  526.31   51.23
   7  -2  -7  439.54   43.23
   7  -2  -6  271.87   33.78
  -7   2   6  215.87   31.37
  -7   2   5  372.31   39.92
   7  -2  -5  312.01   36.28
   7  -2  -5  403.56   34.66
  -7   2   4   14.76    8.83
   7  -2  -4    8.35    7.83
   7  -2  -4   26.71   10.10
   7  -2  -3  334.73   39.22
  -7   2   3  329.27   34.26
  -7   2   3  396.37   35.73
   7  -2  -3  368.26   32.75
   7  -2  -3  354.08   33.62
   7  -2  -2  647.92   54.92
  -7   2   2  717.93   47.31
   7  -2  -2  750.40   49.56
   7  -2  -2  724.54   49.76
   7  -2  -1 1658.87   90.49
  -7   2   1 1727.51   75.14
   7  -2  -1 1710.30   81.69
   7  -2  -1 1491.90   77.35
   7  -2   0 1025.73   69.70
  -7   2   0 1098.00   55.23
   7  -2   0  978.98   61.85
   7  -2   0  939.77   59.97
   7  -2   1  290.37   36.10
  -7   2  -1  267.76   24.88
   7  -2   1  292.80   33.42
   7  -2   1  267.31   31.39
   7  -2   2   28.15   12.20
   7  -2   2   23.33   11.80
  -7   2  -2   17.20    6.55
   7  -2   2   18.15   11.14
   7  -2   3  103.32   21.33
   7  -2   3  129.77   24.10
   7  -2   4  259.22   34.43
   7  -2   4  323.50   38.32
  -7   2  -4  280.07   30.67
   7  -2   5  490.02   47.35
  -7   2  -5  553.49   44.03
   7  -2   6  427.58   43.39
  -7   2  -6  346.60   36.12
  -7   2  -7  229.66   29.50
   7  -2   7  218.70   31.34
   7  -2   7  233.53   34.40
   7  -2   8   32.11   12.52
  -7   2  -8   29.48   13.01
   7  -2   8   26.24   12.47
  -7   2  -9   43.58   13.96
   7  -2   9   51.40   17.77
  -7   2 -10   66.92   17.79
   7  -2  10   50.95   18.40
   7  -2  11  280.43   42.99
  -7   2 -11  334.16   40.43
   7  -2  12  198.31   37.20
  -7   1  11  124.79   28.52
  -7   1  10   45.90   16.74
  -7   1   9   95.68   23.59
  -7   1   8   69.24   19.03
  -7   1   7  221.44   32.03
   7  -1  -7  158.34   24.46
  -7   1   6  519.05   46.89
   7  -1  -6  362.01   37.55
  -7   1   5 1938.41   94.46
   7  -1  -5 1913.15   93.34
  -7   1   4 1163.83   68.23
   7  -1  -4 1274.97   73.96
   7  -1  -4 1258.16   61.51
  -7   1   3 1312.58   69.63
   7  -1  -3 1287.35   75.29
   7  -1  -3 1467.79   64.60
   7  -1  -3 1340.96   66.17
  -7   1   2   49.76   11.55
  -7   1   2   36.62   10.90
   7  -1  -2   59.40   12.69
   7  -1  -2   49.64   15.15
   7  -1  -2   47.28   12.14
   7  -1  -1  218.34   29.79
  -7   1   1  255.51   24.75
   7  -1  -1  272.51   28.23
   7  -1  -1  276.48   28.64
   7  -1   0 1001.61   65.65
  -7   1   0 1047.72   50.22
   7  -1   0  944.16   57.93
   7  -1   0  970.64   57.90
   7  -1   1 2114.80  100.84
  -7   1  -1 2228.28   76.81
   7  -1   1 2037.27   93.67
   7  -1   1 1979.78   90.98
   7  -1   2  310.84   35.62
   7  -1   3  275.00   34.13
   7  -1   4   15.91    8.76
  -7   1  -4    2.15    4.91
  -7   1  -5    6.55    6.94
   7  -1   5    6.19    6.22
   7  -1   6   67.04   17.84
   7  -1   6   63.54   16.44
  -7   1  -6   57.31   14.91
   7  -1   7  297.47   34.43
   7  -1   7  258.16   34.92
  -7   1  -7  250.11   30.59
   7  -1   8  366.05   37.26
   7  -1   8  255.80   36.23
  -7   1  -8  354.33   38.00
   7  -1   9  340.51   42.53
  -7   1  -9  317.94   37.12
  -7   1 -10  133.32   25.23
   7  -1  10  219.39   35.89
  -7   1 -11  157.70   27.95
   7  -1  11  155.53   30.83
  -7   1 -12    4.38    6.55
   7  -1  12   12.42    9.48
  -7   1 -13   90.11   22.76
  -7   0  12   29.68   15.50
  -7   0  11   88.40   23.89
  -7   0  10   50.82   17.14
  -7   0   9  631.33   58.88
  -7   0   8  725.69   61.29
  -7   0   7  741.55   59.20
   7   0  -7  829.12   54.37
  -7   0   6   57.80   16.39
   7   0  -6   84.17   17.74
  -7   0   5  398.38   38.86
   7   0  -5  372.55   36.81
  -7   0   4  794.03   53.12
   7   0  -4  755.78   53.60
  -7   0   3 1651.02   76.95
   7   0  -3 1697.85   84.80
   7   0  -3 1616.11   69.04
  -7   0   2 1087.98   57.21
   7   0  -2 1025.81   64.64
   7   0  -2 1077.93   55.18
  -7   0   1  275.49   25.97
   7   0  -1  299.17   33.65
   7   0  -1  280.68   27.36
   7   0   0   21.08   11.32
  -7   0   0   14.36    5.95
   7   0   1  331.58   36.04
  -7   0  -1  308.04   21.79
   7   0   2  699.31   53.06
   7   0   3  112.17   21.59
   7   0   4  175.81   26.31
   7   0   5  280.68   32.81
   7   0   5  317.68   34.95
  -7   0  -5  257.72   29.77
   7   0   6  641.84   49.54
  -7   0  -6  576.85   46.21
   7   0   6  567.00   49.35
   7   0   7  356.06   40.09
   7   0   7  512.28   42.83
  -7   0  -7  380.22   38.30
   7   0   8   11.96    7.05
  -7   0  -8    9.35    7.83
   7   0   8   14.18   11.34
  -7   0  -9  141.41   24.98
   7   0   9  147.58   27.80
  -7   0 -10  660.59   56.59
   7   0  10  848.38   69.34
   7   0  11  494.34   54.72
  -7   0 -11  531.65   51.62
   7   0  12  744.92   69.55
  -7   0 -12  748.46   64.11
  -7   0 -13   70.01   20.87
   7   0  13   99.66   25.52
  -7  -1  12  311.63   45.51
  -7  -1  11   15.11   11.35
  -7  -1  10    1.14   10.27
  -7  -1   9  189.77   32.05
  -7  -1   8   92.46   22.06
  -7  -1   7  327.42   38.40
   7   1  -7  372.48   34.46
  -7  -1   6  565.63   48.16
   7   1  -6  489.66   40.93
  -7  -1   5  236.57   29.16
   7   1  -5  215.08   27.44
  -7  -1   4  298.37   30.90
   7   1  -4  219.68   27.74
  -7  -1   3    3.00    5.87
   7   1  -3    2.33    7.21
  -7  -1   2    5.75    5.26
   7   1  -2   -4.48    6.12
  -7  -1   1  664.46   39.25
   7   1  -1  696.85   51.03
  -7  -1   0 1038.40   47.30
   7   1   0  997.41   62.78
   7   1   1  934.39   61.10
   7   1   2  879.58   58.95
   7   1   3   35.13   11.54
  -7  -1  -4   48.36   13.50
   7   1   4   77.15   16.77
   7   1   4   48.56   13.61
   7   1   5   86.37   17.25
  -7  -1  -5   90.21   17.55
   7   1   5   94.34   18.71
   7   1   6  590.60   46.28
  -7  -1  -6  584.94   46.59
   7   1   6  651.67   50.97
   7   1   7  830.69   54.51
  -7  -1  -7  816.27   56.76
   7   1   7  749.93   58.29
   7   1   8  799.71   53.11
   7   1   8  832.94   63.34
  -7  -1  -8  823.46   58.57
  -7  -1  -9  130.65   24.22
   7   1   9  110.21   23.59
  -7  -1 -10   39.00   14.32
   7   1  10   34.77   14.43
  -7  -1 -11  309.33   39.38
   7   1  11  262.33   38.98
  -7  -1 -12  508.28   52.55
   7   1  12  454.86   53.59
  -7  -1 -13  419.56   48.99
   7   1  13  312.08   45.95
  -7  -2  12  386.07   50.62
  -7  -2  11  398.46   49.62
  -7  -2  10  139.42   28.06
  -7  -2   9   80.08   20.36
  -7  -2   8   91.53   21.38
  -7  -2   7   13.34    8.91
   7   2  -7    4.56    4.65
  -7  -2   6    2.65    6.04
   7   2  -6    0.66    4.46
  -7  -2   5  809.03   54.20
   7   2  -5  761.16   51.76
  -7  -2   4  841.67   52.56
   7   2  -4  730.67   51.05
  -7  -2   3 1436.61   67.65
   7   2  -3 1337.78   72.03
  -7  -2   2 1051.44   53.90
   7   2  -2  979.46   60.91
  -7  -2   1  135.24   16.69
   7   2  -1  131.65   22.04
  -7  -2   0   61.42   10.14
   7   2   0   72.78   17.33
  -7  -2  -1 1073.63   41.96
   7   2   1  900.85   60.26
   7   2   2  999.50   62.51
   7   2   2  994.25   54.31
   7   2   3 1274.86   71.56
   7   2   3 1334.42   66.43
   7   2   4  203.16   26.71
  -7  -2  -4  183.64   24.51
   7   2   4  182.63   23.91
   7   2   5  202.64   26.88
  -7  -2  -5  162.01   23.54
   7   2   5  179.70   24.81
  -7  -2  -6    1.46    5.99
   7   2   6    5.30    6.18
   7   2   6    7.68    8.85
  -7  -2  -7  116.47   21.35
   7   2   7  177.91   23.71
   7   2   7  131.64   23.27
   7   2   8  348.28   33.49
   7   2   8  351.70   40.10
  -7  -2  -8  345.63   37.53
  -7  -2  -9  572.24   50.00
   7   2   9  587.56   53.87
  -7  -2 -10  446.30   45.87
   7   2  10  407.80   46.36
   7   2  11  301.08   41.45
  -7  -2 -11  240.09   35.23
  -7  -2 -12   22.95   12.58
   7   2  12   31.28   16.01
   7   2  13   -9.87   11.04
  -7  -2 -13   -5.30   10.07
  -7  -3  11   -9.36    9.28
  -7  -3  10   19.04   13.54
  -7  -3   9   27.11   12.85
  -7  -3   8  326.42   39.36
  -7  -3   7  608.78   51.75
   7   3  -7  647.85   45.87
  -7  -3   6  908.41   61.14
   7   3  -6  957.32   57.61
  -7  -3   5  619.00   47.45
   7   3  -5  680.07   47.88
  -7  -3   4    3.85    6.47
   7   3  -4   19.91    9.13
  -7  -3   3 1143.13   58.88
   7   3  -3 1106.61   64.33
  -7  -3   2 2516.47   91.12
   7   3  -2 2420.69  102.59
  -7  -3   1 2658.14   89.00
   7   3  -1 2374.57  103.94
   7   3  -1 2603.46   84.05
  -7  -3   0  507.45   29.71
   7   3   0  450.72   40.05
   7   3   0  479.19   31.43
  -7  -3  -1   37.48    6.72
   7   3   1   45.38   13.41
   7   3   1   24.65    7.80
   7   3   2  487.13   42.16
   7   3   2  587.41   38.62
   7   3   3  465.89   40.53
   7   3   3  480.23   37.10
   7   3   4  441.66   38.75
  -7  -3  -4  432.28   37.36
   7   3   4  382.12   34.60
  -7  -3  -5   58.96   14.55
   7   3   5   66.05   15.58
   7   3   5   54.29   14.06
  -7  -3  -6   29.95   12.34
   7   3   6   26.68   10.17
   7   3   6   17.86    9.15
  -7  -3  -7  109.24   20.95
   7   3   7   59.12   13.56
   7   3   7   78.72   17.91
  -7  -3  -8   16.60   10.47
   7   3   8   17.51    8.99
   7   3   8   32.08   13.84
  -7  -3  -9   76.57   18.74
   7   3   9   98.23   22.02
  -7  -3 -10   47.00   17.00
   7   3  10   27.45   12.69
  -7  -3 -11  365.29   43.51
   7   3  11  434.44   49.61
  -7  -3 -12  820.67   68.43
   7   3  12  946.86   76.80
  -7  -3 -13  669.58   63.41
   7   3  13  835.34   73.88
  -7  -4  11  203.90   36.03
  -7  -4  10  283.94   40.36
  -7  -4   9   36.60   16.11
  -7  -4   8   -5.98    8.35
  -7  -4   7  249.10   33.02
  -7  -4   6  443.43   42.17
   7   4  -6  445.16   38.61
  -7  -4   5  353.35   35.57
   7   4  -5  352.05   34.48
  -7  -4   4 1545.04   75.75
   7   4  -4 1561.45   77.98
  -7  -4   3  333.79   30.85
   7   4  -3  305.74   32.37
  -7  -4   2  180.78   20.93
   7   4  -2  154.69   23.19
  -7  -4   1  228.08   21.47
   7   4  -1  190.49   26.30
  -7  -4   0  623.04   33.24
   7   4   0  561.15   44.81
   7   4   0  552.67   31.49
   7   4   1  492.73   41.60
   7   4   1  479.53   31.79
   7   4   2  292.87   31.88
   7   4   2  308.09   26.99
   7   4   3  149.13   19.90
   7   4   3  132.16   21.49
  -7  -4  -4  156.05   22.22
   7   4   4  182.65   24.66
   7   4   4  148.05   21.09
  -7  -4  -5   50.27   13.49
   7   4   5   48.54   12.85
   7   4   5   24.74    9.91
  -7  -4  -6  144.38   22.46
   7   4   6  124.06   20.81
   7   4   6  131.78   21.90
   7   4   7  523.63   41.78
  -7  -4  -7  508.21   44.06
   7   4   7  478.46   44.45
   7   4   8  840.54   53.62
  -7  -4  -8  869.24   60.46
   7   4   8  706.16   56.99
   7   4   9  750.12   50.06
  -7  -4  -9  709.25   56.86
   7   4   9  740.08   60.43
  -7  -4 -10  565.96   51.97
   7   4  10  518.81   52.36
   7   4  11  151.74   29.49
  -7  -4 -11  111.30   24.01
   7   4  12  105.04   26.06
  -7  -4 -12  159.36   29.83
  -7  -4 -13  430.22   50.41
   7   4  13  383.58   50.45
  -7  -5  11  567.80   60.59
  -7  -5  10  684.59   64.33
  -7  -5   9  327.73   42.24
  -7  -5   8  183.40   30.32
  -7  -5   7    0.37    6.51
  -7  -5   6    6.58    9.23
   7   5  -6   36.08   11.16
  -7  -5   5   59.84   15.56
   7   5  -5   42.44   12.82
  -7  -5   4   24.52    9.91
   7   5  -4   15.70    8.46
  -7  -5   3  634.81   44.55
   7   5  -3  626.59   48.16
  -7  -5   2  921.18   51.42
   7   5  -2  903.02   58.70
  -7  -5   1  387.69   29.42
   7   5  -1  311.49   33.76
  -7  -5   0  149.06   16.36
   7   5   0  135.77   22.34
   7   5   1  173.98   17.27
   7   5   1  182.71   25.55
   7   5   2  220.55   27.90
   7   5   2  237.75   22.94
   7   5   3  617.05   48.17
  -7  -5  -3  777.63   49.67
   7   5   3  780.86   46.21
   7   5   4 1062.33   63.65
  -7  -5  -4 1202.62   64.53
   7   5   4 1015.63   58.13
   7   5   5 1269.69   69.46
  -7  -5  -5 1114.23   64.88
   7   5   5 1219.14   67.17
   7   5   6  358.69   35.67
  -7  -5  -6  350.08   35.48
   7   5   6  368.99   37.14
   7   5   7   37.25   13.47
  -7  -5  -7   20.75   11.06
   7   5   7   31.91   10.77
   7   5   8  115.68   23.02
  -7  -5  -8  105.70   21.22
   7   5   8  111.23   19.44
   7   5   9  557.90   43.44
  -7  -5  -9  422.59   43.98
   7   5   9  455.30   47.56
  -7  -5 -10  562.03   52.63
   7   5  10  651.03   59.21
  -7  -5 -11  811.44   65.40
   7   5  11  682.02   63.51
  -7  -5 -12  325.74   42.53
   7   5  12  355.36   46.37
   7   5  13   15.19   13.91
  -7  -5 -13   16.48   11.69
  -7  -6  10   -9.59   10.31
  -7  -6   9   -5.09    8.52
  -7  -6   8   57.69   20.30
  -7  -6   7    9.31    6.82
  -7  -6   6  336.57   38.47
   7   6  -6  302.91   33.55
  -7  -6   5  496.86   44.98
   7   6  -5  561.18   46.17
  -7  -6   4  528.53   44.24
   7   6  -4  556.36   46.34
  -7  -6   3  197.99   24.91
   7   6  -3  201.32   27.62
  -7  -6   2  459.33   36.03
   7   6  -2  436.12   40.91
  -7  -6   1 1512.76   65.91
   7   6  -1 1323.67   75.61
  -7  -6   0 2219.23   79.37
   7   6   0 1874.77   93.63
   7   6   1  865.63   58.99
   7   6   2   21.20    7.41
  -7  -6  -2   12.50    8.14
   7   6   2    0.49    5.69
   7   6   3  227.59   28.73
  -7  -6  -3  206.94   24.83
   7   6   3  226.18   24.11
   7   6   4  517.01   44.33
  -7  -6  -4  543.80   42.27
   7   6   4  650.99   44.40
   7   6   5  632.15   48.60
  -7  -6  -5  606.88   45.83
   7   6   5  576.64   44.84
  -7  -6  -6  407.25   38.23
   7   6   6  329.93   35.06
   7   6   6  307.26   34.52
   7   6   7   86.55   17.41
   7   6   7  117.00   22.56
  -7  -6  -7   79.48   18.13
   7   6   8   54.63   14.86
   7   6   8   56.19   17.75
  -7  -6  -8   53.45   15.47
   7   6   9   98.26   22.32
   7   6   9   75.92   16.23
  -7  -6  -9  123.72   23.33
   7   6  10   27.77   14.69
  -7  -6 -10   31.61   14.31
   7   6  11   -3.28    9.49
  -7  -6 -11  -12.91   10.77
   7   6  12   78.48   23.17
  -7  -6 -12  118.62   25.95
  -7  -6 -13  475.72   53.46
   7   6  13  446.00   55.27
  -7  -7  10  440.17   53.61
  -7  -7   9  157.87   31.25
  -7  -7   8  138.61   28.01
  -7  -7   7    0.41    7.66
   7   7  -6   37.59   13.16
  -7  -7   6   70.44   17.92
  -7  -7   5  254.89   32.67
   7   7  -5  287.03   34.06
  -7  -7   4  934.78   61.35
   7   7  -4 1006.07   65.79
  -7  -7   3  598.37   45.70
   7   7  -3  617.01   50.54
  -7  -7   2  545.42   41.16
   7   7  -2  621.92   51.06
   7   7  -1   -1.34    5.94
  -7  -7   1    2.50    4.74
  -7  -7   1    6.94    5.73
  -7  -7   0  476.88   34.02
   7   7   0  461.29   43.73
   7   7   1  964.43   63.89
  -7  -7  -1  863.21   51.27
   7   7   2 1142.17   70.59
  -7  -7  -2 1224.65   62.78
   7   7   3  488.22   44.31
  -7  -7  -3  401.50   35.12
   7   7   3  437.03   34.25
   7   7   4   96.54   19.59
   7   7   4   62.37   13.89
  -7  -7  -4   57.25   14.08
   7   7   5   12.94   10.10
   7   7   5    3.50    5.23
  -7  -7  -5    5.59    4.17
   7   7   6    4.77    6.53
   7   7   6   -0.95    8.14
  -7  -7  -6    5.53    6.38
   7   7   7    4.34    5.65
   7   7   7   13.95    8.16
  -7  -7  -7   -5.48    6.70
   7   7   8   15.45    9.07
   7   7   8   11.31    7.06
  -7  -7  -8    1.20    6.36
   7   7   9  344.79   37.16
  -7  -7  -9  344.25   39.49
   7   7   9  360.44   43.61
  -7  -7 -10  450.62   47.21
   7   7  10  378.38   46.41
  -7  -7 -11  390.67   45.67
   7   7  11  487.93   54.77
   7   7  12  160.38   32.11
  -7  -7 -12  129.50   27.28
   7   7  13  -16.32   14.24
  -7  -7 -13    4.75    7.31
  -7  -8   9  320.04   44.61
  -7  -8   8  242.19   37.44
  -7  -8   7   73.98   20.42
   7   8  -6   81.11   18.60
  -7  -8   6   67.13   18.20
   7   8  -5    6.41    6.85
  -7  -8   5    2.50    5.45
   7   8  -4  105.50   21.92
  -7  -8   4   88.37   19.56
  -7  -8   3  435.58   40.29
   7   8  -3  340.59   39.31
  -7  -8   2  610.04   45.95
   7   8  -2  547.59   50.16
  -7  -8   1  691.81   46.44
  -7  -8   1  603.89   44.12
   7   8  -1  588.60   51.65
  -7  -8   0  400.52   36.47
   7   8   0  425.28   43.19
   7   8   1   33.43   12.99
   7   8   2    7.44    7.71
  -7  -8  -2    0.68    3.06
   7   8   3  366.32   40.00
  -7  -8  -3  330.23   31.33
   7   8   4  408.72   42.81
  -7  -8  -4  523.19   40.65
   7   8   4  425.93   37.05
   7   8   5  305.50   36.36
  -7  -8  -5  270.07   30.56
   7   8   5  353.26   35.91
   7   8   6  422.39   42.72
  -7  -8  -6  329.26   35.04
   7   8   6  406.21   40.76
   7   8   7  237.68   33.35
   7   8   7  226.24   31.35
  -7  -8  -7  319.61   35.02
   7   8   8  162.39   29.52
   7   8   8  186.80   28.63
  -7  -8  -8  135.27   24.04
   7   8   9   -7.96    9.76
   7   8   9  -11.96    8.62
  -7  -8  -9    2.77    5.22
   7   8  10  263.25   39.71
  -7  -8 -10  258.68   36.00
  -7  -8 -11  770.49   65.03
   7   8  11  712.35   67.99
  -7  -8 -12  575.19   57.84
   7   8  12  603.79   64.57
  -7  -9   8   92.94   24.02
  -7  -9   7   21.57   11.71
  -7  -9   6   10.31    9.24
   7   9  -5   64.54   17.76
  -7  -9   5   44.74   14.87
  -7  -9   4  394.02   41.95
   7   9  -4  385.58   43.85
  -7  -9   3  388.22   40.09
   7   9  -3  414.66   45.12
   7   9  -2   89.03   21.55
  -7  -9   2   94.81   19.10
   7   9  -1    1.49    7.02
  -7  -9   1    3.47    4.43
  -7  -9   1    9.21    6.34
  -7  -9   0  562.67   46.36
   7   9   0  565.81   53.00
  -7  -9  -1  942.08   62.36
   7   9   1  869.29   66.39
  -7  -9  -2 1213.99   73.87
   7   9   2 1248.77   80.34
   7   9   3  404.36   44.48
   7   9   4   14.77   11.83
   7   9   5  536.69   51.42
   7   9   6  488.21   48.69
  -7  -9  -6  484.88   42.29
   7   9   6  522.18   47.31
   7   9   7  400.18   43.90
  -7  -9  -7  402.42   40.31
   7   9   7  377.58   42.79
   7   9   8  237.47   35.79
   7   9   8  293.10   37.90
  -7  -9  -8  306.04   35.92
   7   9   9  103.70   25.39
   7   9   9  111.34   23.64
  -7  -9  -9  143.36   25.76
   7   9  10  182.49   34.14
  -7  -9 -10  113.59   24.57
   7   9  11    6.43   13.97
  -7  -9 -11   -0.64    7.90
   7   9  12   -1.11    8.86
  -7  -9 -12   49.72   17.34
  -7 -10   7  -20.40   12.50
  -7 -10   6   13.95   10.37
  -7 -10   5   -9.87    9.18
  -7 -10   4  250.99   34.77
  -7 -10   3  491.37   47.95
   7  10  -3  549.90   55.36
  -7 -10   2  707.19   55.67
   7  10  -2  773.88   66.12
   7  10  -1  379.16   45.43
   7  10   0   31.29   12.70
  -7 -10   0   14.51    8.01
   7  10   1   89.88   22.21
  -7 -10  -1   93.71   20.66
  -7 -10  -2  798.21   61.11
   7  10   2  648.15   59.82
  -7 -10  -3  844.26   64.66
   7  10   3  840.44   67.73
  -7 -10  -4  768.39   62.78
   7  10   4  739.14   63.46
   7  10   5  158.37   29.57
   7  10   6   -6.69    8.77
   7  10   7  -10.31    9.52
   7  10   7    4.03    7.98
   7  10   8    2.09    8.70
   7  10   8    6.11    9.63
   7  10   9   17.87   13.47
   7  10  10   42.52   17.35
   7  10  11  317.30   47.31
  -7 -11   5  171.34   31.16
  -7 -11   4   12.21    9.86
  -7 -11   3   32.08   13.66
  -7 -11   0  569.53   51.89
  -7 -11  -1  268.96   36.10
   7  11   2   -3.13    8.95
  -7 -11  -2    6.51    6.37
   7  11   3   82.20   22.57
  -7 -11  -3   72.75   19.68
  -7 -11  -4  229.91   35.65
  -7 -11  -5  180.62   31.98
  -7 -11  -6  112.55   25.66
  -7 -11  -7   30.83   14.57
  -7 -11  -8  196.45   35.37
   7  11   9  171.44   33.53
   7  11  10   21.35   13.02
  -7 -12   0    5.35    7.18
  -7 -12  -1  341.41   42.38
  -7 -12  -2  850.91   70.07
  -7 -12  -3  628.21   60.74
  -7 -12  -4  353.27   45.58
  -7 -12  -5   46.11   18.59
  -7 -12  -6    9.01   11.36
  -7 -13  -2   -2.75    5.62
   8  -7  -5    6.63    8.55
  -8   7   4   66.57   21.18
   8  -7  -4   72.13   21.96
  -8   7   3  620.18   61.65
   8  -7  -3  576.21   61.04
   8  -7  -2  478.22   54.05
  -8   7   2  419.55   49.87
   8  -7  -2  413.44   51.46
  -8   7   1  327.60   42.71
   8  -7  -1  294.78   43.21
   8  -7  -1  232.40   39.04
   8  -7   0   51.19   19.75
   8  -7   0   66.93   22.21
   8  -7   1  147.10   32.37
   8  -7   2   11.97   12.73
   8  -6  -7  162.20   34.07
  -8   6   6  205.33   35.65
  -8   6   5   76.66   22.65
   8  -6  -5   75.63   21.00
  -8   6   4  253.91   37.59
   8  -6  -4  284.79   40.00
  -8   6   3   56.04   18.73
   8  -6  -3   25.65   13.53
  -8   6   2    8.18   10.60
   8  -6  -2   24.97   12.97
   8  -6  -2   -9.42    8.59
  -8   6   1  259.38   35.75
   8  -6  -1  269.35   39.27
   8  -6  -1  176.82   32.58
   8  -6   0  327.80   45.22
   8  -6   0  296.36   42.36
   8  -6   1  407.58   50.85
   8  -6   1  471.88   53.24
   8  -6   2  116.18   28.39
   8  -6   2  100.14   24.96
   8  -6   3    6.82    8.63
   8  -6   3    4.17    8.71
   8  -6   4  -18.56   13.30
   8  -6   4   13.00   10.12
   8  -6   5  197.43   37.01
  -8   5   8  122.29   28.82
  -8   5   7   53.08   18.63
   8  -5  -7   66.26   20.76
   8  -5  -6   29.01   15.40
  -8   5   6   32.97   14.63
  -8   5   5    8.49    9.47
   8  -5  -5    9.31    8.13
  -8   5   4  308.39   39.85
   8  -5  -4  341.70   41.40
  -8   5   3  599.59   54.50
   8  -5  -3  530.18   52.68
  -8   5   2 1416.98   84.84
   8  -5  -2 1514.50   90.38
   8  -5  -2 1258.62   84.95
  -8   5   1  172.39   27.37
   8  -5  -1  170.81   29.73
   8  -5  -1  156.50   28.99
   8  -5   0    1.54    6.73
   8  -5   0    6.61    7.91
   8  -5   1  940.45   74.57
   8  -5   1  868.38   71.00
   8  -5   2 1270.16   89.67
   8  -5   2 1284.65   88.24
   8  -5   3  425.19   51.62
   8  -5   3  438.71   50.38
   8  -5   4  256.34   39.13
   8  -5   4  268.65   41.08
   8  -5   5    3.89   10.87
   8  -5   6   36.65   15.62
   8  -5   6   26.45   14.63
   8  -5   7   55.45   17.92
  -8   4   9   68.38   22.00
  -8   4   8  193.14   34.24
  -8   4   7   95.74   24.29
   8  -4  -7  115.69   25.35
   8  -4  -6  733.34   66.93
  -8   4   6  728.35   63.06
  -8   4   5   49.19   16.84
   8  -4  -5   69.63   22.36
   8  -4  -5   56.05   17.15
   8  -4  -4  101.37   25.40
  -8   4   4   70.72   18.00
   8  -4  -4   94.99   20.89
  -8   4   3  142.80   25.13
   8  -4  -3  148.61   26.27
  -8   4   2  863.00   61.42
   8  -4  -2  975.86   67.59
   8  -4  -2  846.78   64.58
  -8   4   1  979.29   64.14
   8  -4  -1 1071.54   72.73
   8  -4  -1  943.46   69.22
   8  -4   0 1372.68   85.53
   8  -4   0 1297.97   83.16
   8  -4   1  -11.67    9.50
   8  -4   1   -1.54    5.98
   8  -4   2   38.18   15.61
   8  -4   2   41.31   16.72
   8  -4   3 1283.21   87.64
   8  -4   3 1161.23   81.48
   8  -4   4  346.89   46.58
   8  -4   4  328.33   44.08
   8  -4   5  176.96   33.16
   8  -4   5  158.64   31.74
   8  -4   6  167.38   32.50
   8  -4   7  -16.73   11.56
   8  -4   8  455.34   55.80
  -8   3   9   22.48   12.48
  -8   3   8   21.64   11.54
  -8   3   7   34.97   13.69
  -8   3   7   30.62   13.09
   8  -3  -7   21.61   12.15
  -8   3   6  172.63   30.71
  -8   3   6  209.21   32.64
   8  -3  -6  138.51   28.15
  -8   3   5  130.16   24.41
   8  -3  -5   88.33   22.53
   8  -3  -4  355.83   44.48
  -8   3   4  346.52   38.33
   8  -3  -4  329.85   36.14
  -8   3   3   59.35   15.79
   8  -3  -3   50.67   17.45
   8  -3  -3   31.34   12.44
   8  -3  -2  103.59   20.38
   8  -3  -2  145.35   28.80
  -8   3   2  129.31   21.64
   8  -3  -2   62.18   16.88
   8  -3  -1   27.96   12.23
   8  -3  -1   71.94   18.05
  -8   3   1   56.25   14.67
   8  -3  -1   64.93   17.21
   8  -3   0  443.68   49.68
   8  -3   0  444.10   45.07
   8  -3   0  459.32   45.32
   8  -3   1  407.78   47.15
   8  -3   1  426.45   45.11
   8  -3   1  363.57   40.76
   8  -3   2 1027.34   77.60
   8  -3   2 1060.44   74.84
   8  -3   2 1106.44   74.58
   8  -3   3  149.19   28.15
   8  -3   3  184.42   32.46
   8  -3   4  341.24   43.53
   8  -3   4  212.80   34.31
  -8   3  -4  201.46   27.92
   8  -3   5   -1.29    7.39
  -8   3  -5    5.35    6.89
   8  -3   6  -16.31   11.19
  -8   3  -6    8.78    7.51
   8  -3   7   82.45   21.86
  -8   3  -7  137.86   24.37
   8  -3   8  322.04   45.49
   8  -3   9  356.48   48.92
  -8   2  10  867.70   76.63
  -8   2   9  128.17   27.86
  -8   2   8   73.56   20.64
  -8   2   7   28.65   14.70
   8  -2  -7   43.06   14.90
  -8   2   6   49.92   16.22
   8  -2  -6   55.34   17.43
  -8   2   5   49.55   15.80
   8  -2  -5   42.56   16.24
  -8   2   4  134.88   24.16
  -8   2   4  185.02   27.19
   8  -2  -4  194.07   30.56
   8  -2  -4  190.86   25.60
  -8   2   3   43.98   12.63
   8  -2  -3   39.07   14.66
   8  -2  -3   61.59   14.93
   8  -2  -2 1332.76   85.10
  -8   2   2 1355.76   70.97
   8  -2  -2 1386.11   73.99
   8  -2  -2 1479.15   78.11
   8  -2  -1  843.39   65.85
  -8   2   1  848.72   52.26
   8  -2  -1  951.97   61.26
   8  -2  -1  874.31   59.72
   8  -2   0  645.60   57.67
   8  -2   0  669.00   52.64
   8  -2   0  590.61   49.48
   8  -2   1   36.08   12.51
   8  -2   1   68.74   18.39
   8  -2   1   26.58   14.20
   8  -2   2  340.03   41.58
   8  -2   2  286.49   36.47
   8  -2   3  514.88   51.69
   8  -2   4 1778.98  100.84
  -8   2  -4 1865.70   91.65
   8  -2   5  388.64   44.47
  -8   2  -5  298.56   35.08
   8  -2   6  430.35   46.71
  -8   2  -6  448.01   43.09
   8  -2   7    7.24    8.75
  -8   2  -7    3.32    6.20
   8  -2   7   -5.07   10.26
   8  -2   8    5.73    9.24
  -8   2  -8   -2.44    6.70
   8  -2   8    1.91    7.12
  -8   2  -9   23.71   11.47
   8  -2   9   41.14   16.48
   8  -2  10  395.46   51.36
  -8   2 -10  384.35   43.97
  -8   1  10    2.33    6.02
  -8   1   9   18.78   12.05
  -8   1   8  281.38   39.43
  -8   1   7   90.04   22.70
   8  -1  -7   73.95   17.88
  -8   1   6  225.01   32.31
   8  -1  -6  212.72   30.73
  -8   1   5  172.65   27.33
   8  -1  -5  140.22   25.25
  -8   1   4  617.49   49.80
   8  -1  -4  601.17   52.65
  -8   1   3  282.84   30.15
  -8   1   3  245.72   29.97
   8  -1  -3  275.60   35.34
   8  -1  -3  254.78   28.31
  -8   1   2  193.66   24.01
   8  -1  -2  164.62   27.40
   8  -1  -2  168.60   23.54
   8  -1  -1  662.38   55.84
  -8   1   1  609.78   40.78
   8  -1  -1  621.83   47.40
   8  -1   0 3089.01  133.96
   8  -1   0 3019.13  121.09
   8  -1   1  780.69   62.00
   8  -1   2  463.48   47.17
   8  -1   3   41.56   14.52
   8  -1   4  552.92   52.18
   8  -1   5  628.15   54.98
  -8   1  -5  570.20   48.02
   8  -1   6  828.07   62.91
   8  -1   6  671.40   58.93
  -8   1  -6  710.55   55.40
   8  -1   7    2.93    6.55
  -8   1  -7    1.60    5.64
   8  -1   7    9.41   12.41
   8  -1   8   43.98   15.34
  -8   1  -8   52.97   15.87
   8  -1   8   65.52   20.09
  -8   1  -9   12.58   10.88
   8  -1   9    9.23    9.81
  -8   1 -10  193.69   30.94
   8  -1  10  135.08   28.57
  -8   1 -11  128.11   26.27
   8  -1  11  106.03   28.71
  -8   1 -12   58.99   19.17
  -8   0  11  221.69   38.14
  -8   0  10  334.37   46.07
  -8   0   9  359.25   46.24
  -8   0   8   19.49   11.52
  -8   0   7    4.43    6.19
   8   0  -7    3.62    7.59
  -8   0   6  251.65   33.56
   8   0  -6  243.90   31.36
  -8   0   5   99.68   20.50
   8   0  -5  139.20   23.96
  -8   0   4  669.64   50.74
   8   0  -4  555.88   49.23
  -8   0   3 1166.77   65.80
   8   0  -3 1112.64   71.32
  -8   0   2  831.62   51.97
   8   0  -2  836.29   61.31
  -8   0   1  259.49   26.44
   8   0  -1  215.58   30.52
   8   0   0  209.83   30.98
   8   0   1  484.95   46.69
   8   0   2 1493.06   86.04
   8   0   3  296.61   36.77
   8   0   4  592.52   52.31
   8   0   5   44.13   15.08
   8   0   5   41.07   13.49
  -8   0  -5   28.26   11.82
   8   0   6   31.85   12.38
  -8   0  -6   15.08   10.58
   8   0   6   36.30   14.30
   8   0   7   -6.65    7.63
  -8   0  -7    4.99    7.22
   8   0   7    0.36    6.05
   8   0   8  204.71   29.44
  -8   0  -8  163.66   26.55
   8   0   8  162.47   29.94
  -8   0  -9    4.81    7.21
   8   0   9   -0.26    8.89
  -8   0 -10  398.14   45.14
   8   0  10  459.17   52.99
  -8   0 -11  295.70   39.68
   8   0  11  304.33   44.29
  -8   0 -12  354.73   45.45
   8   0  12  393.17   51.54
  -8  -1  11   -7.71    8.71
  -8  -1  10  665.67   64.42
  -8  -1   9  815.78   69.59
  -8  -1   8  715.90   61.88
  -8  -1   7  184.46   30.08
   8   1  -7  218.03   28.22
  -8  -1   6    5.27    6.26
   8   1  -6   14.49    8.63
  -8  -1   5    8.03    7.31
   8   1  -5   -4.84    5.85
  -8  -1   4  175.78   25.18
   8   1  -4  144.43   24.28
  -8  -1   3   40.45   11.95
   8   1  -3   39.06   13.48
  -8  -1   2  516.80   38.96
   8   1  -2  538.90   47.50
  -8  -1   1  570.33   38.18
   8   1  -1  525.33   47.00
  -8  -1   0  960.60   47.80
   8   1   0  852.75   61.59
   8   1   1 1066.62   69.85
   8   1   2    6.42    8.87
   8   1   3    1.50    7.93
   8   1   4 1026.45   68.52
   8   1   4  997.42   64.50
   8   1   5  876.46   61.79
  -8  -1  -5  719.47   54.51
   8   1   5  764.27   57.31
   8   1   6 1328.72   76.60
  -8  -1  -6 1071.75   68.98
   8   1   6 1103.33   72.88
   8   1   7  429.91   41.79
  -8  -1  -7  329.19   37.54
   8   1   7  383.84   43.05
   8   1   8   75.38   17.42
  -8  -1  -8   84.44   19.99
   8   1   8   95.40   22.68
  -8  -1  -9    9.25    9.04
   8   1   9   14.07   10.74
  -8  -1 -10  176.03   30.18
   8   1  10  195.72   34.39
  -8  -1 -11  134.61   27.38
   8   1  11  108.17   26.29
  -8  -1 -12  618.48   60.21
   8   1  12  674.96   67.53
  -8  -2  11  404.32   51.61
  -8  -2  10   25.23   12.40
  -8  -2   9   -2.53    7.90
  -8  -2   8  320.13   40.49
  -8  -2   7  109.12   22.94
   8   2  -7  134.48   22.09
  -8  -2   6  150.91   25.30
   8   2  -6  140.61   23.36
  -8  -2   5   92.93   19.15
   8   2  -5   87.70   18.39
  -8  -2   4   38.24   11.78
   8   2  -4   16.40    8.68
  -8  -2   3  435.08   36.74
   8   2  -3  348.26   37.39
  -8  -2   2   86.48   15.18
   8   2  -2   67.90   17.91
  -8  -2   1   98.58   14.81
   8   2  -1  115.09   21.66
   8   2   0  445.73   43.10
   8   2   1 1078.73   70.09
   8   2   2 2272.81  108.13
   8   2   2 2365.57   97.06
   8   2   3 1606.25   87.63
   8   2   3 1644.11   80.21
  -8  -2  -4   15.99   10.34
   8   2   4    0.19    6.46
   8   2   4    7.80    8.58
  -8  -2  -5    2.55    6.52
   8   2   5   -3.43    6.76
   8   2   5    9.28    7.06
   8   2   6 1231.81   73.23
  -8  -2  -6 1199.16   72.65
   8   2   6 1258.56   76.01
   8   2   7  357.12   37.47
  -8  -2  -7  258.26   32.97
   8   2   7  261.86   35.01
  -8  -2  -8  165.56   27.29
   8   2   8  181.53   26.19
   8   2   8  204.34   32.04
  -8  -2  -9   92.91   20.90
   8   2   9   68.80   19.09
  -8  -2 -10    4.21    7.70
   8   2  10   -7.50    9.48
  -8  -2 -11   23.75   12.41
   8   2  11   28.25   14.27
  -8  -2 -12   41.10   16.05
   8   2  12   80.70   23.59
  -8  -2 -13   11.02   11.73
  -8  -3  11  234.66   39.25
  -8  -3  10  197.77   34.18
  -8  -3   9  545.46   55.14
  -8  -3   8  123.27   24.95
  -8  -3   7  185.68   29.30
  -8  -3   6    6.19    4.29
   8   3  -6    5.40    5.07
  -8  -3   5    9.65    7.66
   8   3  -5    9.20    6.98
  -8  -3   4  409.69   37.18
   8   3  -4  336.99   36.69
  -8  -3   3 1216.13   64.04
   8   3  -3 1187.30   71.51
  -8  -3   2  976.03   52.90
   8   3  -2  851.23   60.13
  -8  -3   1 2174.25   79.79
   8   3  -1 1728.44   91.91
   8   3   0  155.27   19.28
   8   3   0  178.65   27.62
   8   3   1   81.02   18.42
   8   3   1  121.97   17.73
   8   3   2  644.75   52.46
   8   3   2  633.91   43.82
   8   3   3 1325.71   77.50
   8   3   3 1364.57   70.32
   8   3   4 1098.78   69.14
  -8  -3  -4  990.29   62.93
   8   3   4 1088.52   64.39
   8   3   5  282.55   33.61
  -8  -3  -5  230.32   29.71
   8   3   5  258.54   31.51
  -8  -3  -6   36.36   12.84
   8   3   6   34.47   12.55
   8   3   6   28.06   11.01
  -8  -3  -7    2.08    7.23
   8   3   7    8.17    7.53
   8   3   7    1.71    8.09
  -8  -3  -8   96.58   21.44
   8   3   8   99.07   19.48
   8   3   8  109.08   23.38
  -8  -3  -9   10.04    7.48
   8   3   9   13.44   10.88
  -8  -3 -10  145.22   27.45
   8   3  10  106.65   24.67
  -8  -3 -11  190.52   32.02
   8   3  11  150.79   30.41
   8   3  12  254.89   41.02
  -8  -3 -12  288.39   41.05
   8   3  13  371.71   50.38
  -8  -3 -13  327.60   45.57
  -8  -4  10   16.96    8.48
  -8  -4   9  331.69   42.88
  -8  -4   8  586.74   55.28
  -8  -4   7 1024.38   71.17
  -8  -4   6  189.17   28.24
   8   4  -6  205.99   28.12
  -8  -4   5  437.21   41.38
   8   4  -5  434.98   41.35
  -8  -4   4    6.17    5.94
   8   4  -4    3.09    4.80
  -8  -4   3   40.24   11.39
   8   4  -3   27.53   11.19
  -8  -4   2  266.03   26.31
   8   4  -2  232.13   30.64
   8   4  -1  483.85   44.34
   8   4   0  413.00   41.28
   8   4   1  995.99   66.64
   8   4   1 1140.80   55.55
   8   4   2  272.58   33.41
   8   4   2  273.83   27.53
   8   4   3  169.27   26.15
   8   4   3  147.62   20.83
   8   4   4  298.53   34.72
  -8  -4  -4  374.62   37.16
   8   4   4  362.88   35.10
   8   4   5  582.42   48.54
  -8  -4  -5  635.42   50.21
   8   4   5  658.54   50.40
   8   4   6  285.94   33.08
  -8  -4  -6  255.58   31.89
   8   4   6  299.34   34.69
   8   4   7  347.58   36.55
  -8  -4  -7  383.81   39.94
   8   4   7  358.84   39.71
  -8  -4  -8   54.53   16.35
   8   4   8   56.57   15.11
   8   4   8   33.72   12.92
  -8  -4  -9  186.39   30.52
   8   4   9  190.83   26.84
   8   4   9  209.08   32.54
   8   4  10   21.85   13.67
  -8  -4 -10   32.53   12.74
   8   4  11   38.06   17.76
  -8  -4 -11   41.30   16.39
   8   4  12  311.22   44.82
  -8  -4 -12  319.81   43.20
  -8  -4 -13  510.14   57.07
   8   4  13  409.53   53.42
  -8  -5  10  661.42   64.42
  -8  -5   9  141.71   28.78
  -8  -5   8   32.04   14.04
  -8  -5   7  284.83   37.11
  -8  -5   6  289.12   35.94
   8   5  -6  308.57   34.65
  -8  -5   5  287.83   34.04
   8   5  -5  301.75   34.80
  -8  -5   4   55.12   14.14
   8   5  -4   68.30   16.53
  -8  -5   3  364.89   33.93
   8   5  -3  326.99   36.24
  -8  -5   2   77.43   14.79
   8   5  -2   56.79   15.61
   8   5  -1  410.08   41.09
   8   5   0  208.11   29.41
   8   5   1    8.97    5.97
   8   5   2  255.01   32.72
   8   5   2  263.41   25.99
   8   5   3 2042.52   98.33
  -8  -5  -3 1922.72   90.10
   8   5   3 1911.31   83.86
   8   5   4  721.80   55.41
  -8  -5  -4  809.11   55.69
   8   5   4  853.82   54.51
   8   5   5  396.91   39.91
  -8  -5  -5  360.01   37.51
   8   5   5  407.68   38.99
   8   5   6  352.37   37.32
  -8  -5  -6  276.93   33.61
   8   5   6  282.20   33.99
   8   5   7  437.48   41.70
  -8  -5  -7  459.01   44.10
   8   5   7  406.01   43.07
   8   5   8  810.20   57.50
  -8  -5  -8  877.64   63.79
   8   5   8  811.42   63.99
   8   5   9  733.80   54.01
  -8  -5  -9  734.05   60.17
   8   5   9  734.37   62.82
   8   5  10  116.48   25.95
  -8  -5 -10   69.86   19.50
   8   5  11  245.43   39.64
  -8  -5 -11  176.95   31.34
   8   5  12    7.98   10.59
  -8  -5 -12   57.65   19.93
   8   5  13    9.59    9.68
  -8  -6   9  814.87   70.63
  -8  -6   8  285.72   39.53
  -8  -6   7  317.71   39.59
   8   6  -6   88.61   19.13
  -8  -6   6   43.68   14.49
  -8  -6   5    7.05    6.15
   8   6  -5   34.95   14.07
  -8  -6   4   20.20    9.79
   8   6  -4   13.79    7.28
  -8  -6   3   32.08   11.08
   8   6  -3   39.43   14.63
  -8  -6   2  139.21   20.46
   8   6  -2  137.18   24.59
   8   6  -1  804.79   60.02
   8   6   0  678.55   54.78
   8   6   1 1033.88   68.84
   8   6   2   19.86    9.63
  -8  -6  -3  202.52   27.03
   8   6   3  198.21   29.34
   8   6   4 1056.68   69.27
  -8  -6  -4 1105.84   66.14
   8   6   4 1184.02   64.70
   8   6   5 1862.83   95.27
  -8  -6  -5 1884.52   91.99
   8   6   5 1923.51   91.56
   8   6   6  476.50   44.86
  -8  -6  -6  491.02   44.86
   8   6   6  461.37   43.70
   8   6   7  197.38   29.58
  -8  -6  -7  143.72   25.14
   8   6   7  169.49   26.14
   8   6   8   55.66   16.60
  -8  -6  -8   67.79   18.42
   8   6   8   52.41   15.30
   8   6   9   82.60   18.93
   8   6   9   82.89   21.43
  -8  -6  -9   41.22   15.04
   8   6  10  163.93   31.18
  -8  -6 -10  171.59   30.56
   8   6  11   81.13   23.10
  -8  -6 -11   33.30   13.31
   8   6  12  118.20   28.80
  -8  -6 -12   57.43   20.44
  -8  -7   9   29.88   14.84
  -8  -7   8   21.66   12.14
  -8  -7   7  446.67   48.83
  -8  -7   6  497.58   49.66
   8   7  -6  550.20   49.65
  -8  -7   5  672.83   55.56
   8   7  -5  710.78   57.14
   8   7  -4  139.44   24.73
  -8  -7   4  138.90   23.55
   8   7  -3   22.20   10.42
  -8  -7   3   18.36    9.00
   8   7  -2    7.29    8.26
   8   7  -1  369.42   40.89
   8   7   0  163.15   27.19
   8   7   1 1025.04   70.22
   8   7   2  576.97   51.50
  -8  -7  -2  549.52   43.59
  -8  -7  -3  135.02   21.61
   8   7   3  196.73   29.46
  -8  -7  -4  -10.20    8.66
   8   7   4   -8.83    8.24
   8   7   5  200.39   27.40
  -8  -7  -5  229.29   29.04
   8   7   5  220.45   31.45
   8   7   6  163.82   26.93
   8   7   6  181.97   27.60
  -8  -7  -6  180.65   26.72
   8   7   7  566.64   50.36
  -8  -7  -7  577.60   50.44
   8   7   7  543.07   50.63
   8   7   8   82.91   19.44
   8   7   8   56.65   19.55
  -8  -7  -8   74.85   19.51
   8   7   9  107.98   25.17
   8   7   9  129.36   23.46
  -8  -7  -9  142.16   26.34
   8   7  10    6.33   11.78
  -8  -7 -10    9.60    6.24
   8   7  11   26.49   17.01
  -8  -7 -11   16.69   11.72
   8   7  12   27.52   14.25
  -8  -7 -12   43.86   16.70
  -8  -8   8  516.72   56.36
  -8  -8   7   64.29   19.12
  -8  -8   6  -17.58   10.12
  -8  -8   5  513.40   49.63
   8   8  -5  619.64   54.77
  -8  -8   4  336.12   37.99
   8   8  -4  298.54   38.15
  -8  -8   3  305.07   34.24
   8   8  -3  292.91   37.62
   8   8  -2   53.17   15.81
   8   8  -1  133.60   25.76
   8   8   0  118.89   24.45
  -8  -8   0   84.38   16.75
   8   8   1   -2.56    6.63
  -8  -8  -1   -7.10    6.17
   8   8   2    3.15    6.89
  -8  -8  -2    4.91    4.75
   8   8   3  764.84   61.51
  -8  -8  -3  754.46   52.26
   8   8   4  218.15   32.50
  -8  -8  -4  293.90   32.21
   8   8   5  611.99   54.35
  -8  -8  -5  600.00   48.56
   8   8   6  236.98   33.40
  -8  -8  -6  277.06   33.31
   8   8   6  255.30   32.96
   8   8   7   -3.65    6.82
   8   8   7   -2.02    9.57
  -8  -8  -7   -0.89    5.35
   8   8   8  105.78   22.88
   8   8   8   77.86   20.01
  -8  -8  -8   80.94   19.07
   8   8   9  607.49   54.10
  -8  -8  -9  614.03   55.67
   8   8   9  549.95   56.39
   8   8  10  326.67   45.14
  -8  -8 -10  368.61   44.31
   8   8  11  364.74   48.95
  -8  -8 -11  272.59   39.47
   8   8  12   60.67   21.81
  -8  -8 -12   26.58   14.38
  -8  -9   7  408.50   49.38
  -8  -9   6  194.42   32.90
   8   9  -5   16.76    9.94
  -8  -9   5   15.56   10.13
   8   9  -4    0.81    8.34
  -8  -9   4   11.35    9.37
   8   9  -3   63.51   17.32
   8   9  -2    0.91    7.22
   8   9  -1   31.92   13.02
  -8  -9   0  372.77   37.32
   8   9   0  310.55   40.53
  -8  -9  -1  727.08   55.09
   8   9   1  746.30   63.16
   8   9   2  775.09   64.44
   8   9   3  106.50   24.18
   8   9   4   77.27   20.51
   8   9   5  718.24   61.62
  -8  -9  -5  665.41   51.39
   8   9   6  955.53   72.14
  -8  -9  -6  994.31   65.67
   8   9   7 1040.95   75.12
  -8  -9  -7  999.28   68.13
   8   9   7 1072.42   74.40
   8   9   8  232.27   35.14
   8   9   8  210.65   33.52
  -8  -9  -8  230.51   32.58
   8   9   9    6.11    7.30
   8   9   9  -13.53   10.67
  -8  -9  -9   20.09   11.32
   8   9  10  151.99   31.47
  -8  -9 -10  210.56   33.34
   8   9  11  309.37   46.31
  -8  -9 -11  390.79   47.03
  -8 -10   6  104.93   24.90
   8  10  -5  275.58   39.36
  -8 -10   5  193.52   32.32
   8  10  -4  339.93   44.20
   8  10  -3   81.41   21.26
   8  10  -2  129.21   28.01
   8  10  -1   10.26   10.24
   8  10   0   21.01   11.92
   8  10   1  277.15   39.90
  -8 -10  -1  322.29   37.65
  -8 -10  -2  490.50   48.19
   8  10   2  454.99   51.49
  -8 -10  -3  569.97   53.29
   8  10   3  622.09   60.22
   8  10   4  404.33   47.88
   8  10   5    5.93    9.20
   8  10   6   32.08   14.44
   8  10   7  606.08   58.79
   8  10   8  513.32   53.69
   8  10   9  288.73   39.77
   8  10   9  375.76   47.97
   8  10  10   63.35   21.44
   8  11  -2  294.49   43.19
   8  11  -1   93.14   24.09
   8  11   0   49.97   18.26
   8  11   1   -4.59    7.33
  -8 -11  -1   -3.63    6.52
   8  11   2    3.21    7.28
  -8 -11  -2    1.08    4.01
   8  11   3  112.13   26.05
  -8 -11  -3  121.61   26.24
   8  11   4  135.15   29.38
  -8 -11  -4   85.79   22.50
  -8 -11  -5  431.06   50.22
   8  11   5  467.71   53.74
   8  11   6  302.76   42.96
  -8 -11  -6  306.85   43.46
   8  11   7  195.74   34.80
  -8 -12  -2  255.26   37.41
  -8 -12  -3  147.65   27.21
  -8 -12  -4  192.00   34.37
  -8 -12  -5   15.12   10.26
   9  -6  -4   11.01    9.90
   9  -6  -3   48.79   19.19
   9  -6  -2   38.40   17.12
   9  -6  -1  190.90   35.25
   9  -6  -1  252.71   40.26
   9  -6   0  353.88   48.09
   9  -6   0  339.44   47.16
   9  -6   1  238.82   40.26
   9  -5  -6  201.83   37.86
  -9   5   6  171.70   33.14
   9  -5  -5  121.18   30.08
  -9   5   5  123.25   26.80
   9  -5  -4   99.55   30.37
   9  -5  -4  206.80   33.82
   9  -5  -3  188.54   36.67
   9  -5  -3  175.17   31.25
   9  -5  -2  176.43   35.49
   9  -5  -2  264.48   39.03
   9  -5  -1   10.29    8.24
   9  -5  -1    1.10    5.09
   9  -5  -1   20.26   11.12
   9  -5   0   75.91   26.40
   9  -5   0   36.20   16.14
   9  -5   0   20.62   12.29
   9  -5   1  332.09   49.99
   9  -5   1  438.65   51.86
   9  -5   1  381.02   48.62
   9  -5   2  388.84   54.49
   9  -5   2  419.75   52.28
   9  -5   2  418.89   51.30
   9  -5   3  217.84   36.87
   9  -5   3  202.82   37.15
   9  -5   3  224.71   40.97
   9  -5   4  119.27   29.90
   9  -5   4   95.72   26.37
   9  -5   5   61.00   20.34
   9  -5   6  246.73   41.80
  -9   4   7  129.65   28.16
   9  -4  -7  170.19   33.14
  -9   4   6  121.55   27.32
   9  -4  -6  151.10   31.39
  -9   4   5   10.57    9.30
   9  -4  -5    2.72    9.12
   9  -4  -4   20.56   14.01
   9  -4  -3  224.08   38.69
   9  -4  -3  241.40   34.81
   9  -4  -2  757.96   72.40
   9  -4  -2  774.65   64.21
   9  -4  -1  455.50   55.65
   9  -4  -1  531.51   52.60
   9  -4  -1  436.93   48.73
   9  -4   0  276.89   38.78
   9  -4   0  293.10   44.37
   9  -4   0  299.75   40.63
   9  -4   1    2.95    7.44
   9  -4   1   -6.94    8.71
   9  -4   1    7.72   10.82
   9  -4   2  360.44   49.40
   9  -4   2  376.62   47.38
   9  -4   2  361.67   46.11
   9  -4   3  710.65   70.02
   9  -4   3  737.26   68.28
   9  -4   4  475.57   56.70
   9  -4   5  309.19   45.32
   9  -4   6    9.28   10.50
   9  -4   7    0.36    6.91
  -9   3   8  533.45   59.29
  -9   3   8  523.78   56.98
  -9   3   7  379.85   46.89
   9  -3  -7  348.20   44.94
   9  -3  -6  587.74   59.94
  -9   3   6  670.70   60.64
  -9   3   5   88.77   21.27
   9  -3  -5   80.42   24.18
  -9   3   4   20.06   10.93
   9  -3  -4    3.38    6.49
   9  -3  -3   29.60   16.50
   9  -3  -3   25.40   11.57
   9  -3  -2   46.04   17.23
   9  -3  -2   87.47   20.81
   9  -3  -1   88.34   20.74
   9  -3  -1   75.17   21.65
   9  -3  -1   95.76   21.92
   9  -3   0  251.87   35.51
   9  -3   0  294.87   37.70
   9  -3   0  161.88   32.81
   9  -3   1  266.93   37.29
   9  -3   1  332.19   41.63
   9  -3   1  267.80   40.73
   9  -3   2  417.04   50.99
   9  -3   2  441.82   49.29
   9  -3   3  110.45   26.72
   9  -3   4   22.52   12.67
  -9   3  -4    6.71    6.97
   9  -3   5  132.14   27.93
  -9   3  -5   97.94   21.52
   9  -3   6  655.42   63.57
  -9   3  -6  663.76   56.31
   9  -3   7  558.30   59.23
   9  -3   7  536.11   59.93
   9  -3   8  451.32   56.08
  -9   2   9  200.65   36.67
  -9   2   8   27.58   12.54
  -9   2   7   46.06   18.23
   9  -2  -7   77.72   21.29
  -9   2   6  156.47   28.55
  -9   2   6  120.69   26.26
   9  -2  -6  109.05   24.12
  -9   2   5   65.62   18.25
  -9   2   5   84.93   20.53
   9  -2  -5   68.29   20.49
  -9   2   4  248.49   32.12
   9  -2  -4  227.73   35.82
   9  -2  -3   10.75    9.23
   9  -2  -2   92.16   23.58
   9  -2  -2  124.02   22.93
   9  -2  -1   60.59   16.44
   9  -2  -1   32.01   15.47
   9  -2   0   14.79    8.27
   9  -2   0   25.12   13.57
   9  -2   1    5.50    8.43
   9  -2   2  337.78   43.79
   9  -2   3  878.14   72.08
   9  -2   4 1091.75   81.02
  -9   2  -4 1064.76   71.35
   9  -2   5  297.14   41.47
  -9   2  -5  203.24   30.86
   9  -2   6    4.27    6.46
  -9   2  -6   18.55   11.52
   9  -2   7   81.07   21.81
  -9   2  -7  120.93   24.26
   9  -2   7  107.65   26.30
  -9   2  -8  316.51   39.93
   9  -2   8  281.03   38.77
   9  -2   8  315.94   45.30
  -9   2  -9  367.97   44.43
   9  -2   9  407.24   52.97
  -9   1   9  213.05   37.03
  -9   1   8  293.48   41.86
  -9   1   7   73.61   20.63
   9  -1  -7   75.44   19.48
  -9   1   6  108.25   23.73
   9  -1  -6   86.90   21.45
  -9   1   5   88.16   20.92
   9  -1  -5   64.16   18.53
  -9   1   4   22.85   10.91
   9  -1  -4   10.69   10.85
   9  -1  -3   60.83   19.73
   9  -1  -2  271.85   37.75
   9  -1  -2  283.55   32.71
   9  -1  -1  523.35   52.77
   9  -1   0 1085.93   77.65
   9  -1   1  559.06   55.40
   9  -1   2  315.16   41.21
   9  -1   3  110.46   24.78
   9  -1   4  983.34   74.08
  -9   1  -4  898.74   64.87
   9  -1   5 1297.56   86.55
  -9   1  -5 1307.40   80.17
   9  -1   6  478.87   50.25
   9  -1   6  434.44   49.16
  -9   1  -6  397.82   44.12
   9  -1   7   89.72   22.05
  -9   1  -7   66.32   18.06
   9  -1   7   74.54   21.65
   9  -1   8    0.05    7.24
  -9   1  -8    1.09    6.57
   9  -1   8  -17.93   12.56
  -9   1  -9   49.28   17.23
   9  -1   9   86.77   24.96
  -9   1 -10   -1.15    5.93
   9  -1  10    7.40   10.30
  -9   1 -11  164.05   31.18
  -9   0   9  135.33   28.77
  -9   0   8   38.81   15.64
  -9   0   7  242.18   36.11
   9   0  -7  228.04   32.65
  -9   0   6  823.70   64.79
   9   0  -6  785.17   61.89
  -9   0   5  580.33   51.19
   9   0  -5  458.66   47.00
  -9   0   4  505.52   46.03
   9   0  -4  564.18   52.40
  -9   0   3  166.33   24.79
   9   0  -3   92.36   22.28
  -9   0   2   42.99   12.30
   9   0  -2   60.37   17.87
   9   0  -1   97.81   22.37
   9   0   0  492.65   49.84
   9   0   1  552.81   53.44
   9   0   2  468.60   49.02
   9   0   3  352.91   42.39
   9   0   4   11.60    9.38
   9   0   5   51.18   15.95
  -9   0  -5   40.71   13.68
   9   0   5   30.14   12.71
   9   0   6  298.93   38.96
  -9   0  -6  363.19   40.90
   9   0   6  291.01   38.96
   9   0   7  350.70   41.42
  -9   0  -7  224.59   32.92
   9   0   7  253.14   37.64
   9   0   8  343.72   41.02
  -9   0  -8  311.64   39.35
   9   0   8  292.53   41.05
  -9   0  -9  380.62   44.54
   9   0   9  351.74   46.99
  -9   0 -10  179.44   31.43
   9   0  10  224.61   38.84
  -9   0 -11  210.94   35.06
  -9  -1  10  513.61   58.12
  -9  -1   9  628.31   62.28
  -9  -1   8  381.66   46.52
  -9  -1   7  104.51   23.20
  -9  -1   6   36.43   13.95
   9   1  -6    8.55    7.02
  -9  -1   5  106.98   21.82
   9   1  -5   56.98   16.99
  -9  -1   4  426.29   41.09
   9   1  -4  413.69   44.01
  -9  -1   3  147.91   22.27
   9   1  -3  118.59   23.81
   9   1  -2  258.05   34.86
   9   1  -1   61.06   17.73
   9   1   0   88.50   21.38
   9   1   1   72.15   20.25
   9   1   2  184.51   30.60
   9   1   3  158.34   25.50
   9   1   3  137.13   26.22
   9   1   4  981.18   71.42
   9   1   4  943.50   66.21
   9   1   5  734.76   60.33
  -9  -1  -5  570.15   51.39
   9   1   5  743.06   59.66
   9   1   6  422.32   45.44
  -9  -1  -6  395.13   42.87
   9   1   6  507.93   50.37
   9   1   7   79.34   19.85
  -9  -1  -7   45.91   14.80
   9   1   7   51.78   17.08
   9   1   8   27.45   12.01
  -9  -1  -8   20.10   11.68
   9   1   8    3.05   10.73
  -9  -1  -9  178.56   30.43
   9   1   9  182.49   33.27
  -9  -1 -10  418.19   48.26
   9   1  10  349.53   47.90
  -9  -1 -11  266.07   39.52
   9   1  11  194.07   37.22
  -9  -2  10    0.71    6.60
  -9  -2   9  188.52   33.47
  -9  -2   8  612.14   58.87
  -9  -2   7  361.03   43.06
  -9  -2   6  213.94   31.87
   9   2  -6  168.17   27.08
  -9  -2   5   20.83    8.86
   9   2  -5   24.64   13.04
  -9  -2   4   63.65   16.25
   9   2  -4   24.39   10.89
  -9  -2   3   21.68    8.95
   9   2  -3    4.22    6.20
   9   2  -2   13.89   10.12
   9   2  -1   18.66    9.26
   9   2   0  354.50   41.09
   9   2   1 1203.45   78.49
   9   2   1 1171.59   66.25
   9   2   2 1479.57   89.59
   9   2   2 1600.17   81.18
   9   2   3  304.59   38.69
   9   2   3  325.13   35.47
   9   2   4    6.35    9.22
   9   2   4    5.07    6.54
   9   2   5  681.49   58.13
  -9  -2  -5  713.86   56.98
   9   2   5  803.34   60.47
   9   2   6 1863.67   96.75
  -9  -2  -6 1289.70   81.58
   9   2   6 1493.38   88.76
   9   2   7 1546.66   87.88
  -9  -2  -7 1344.32   84.12
   9   2   7 1492.87   91.14
   9   2   8  661.76   55.08
  -9  -2  -8  572.59   54.19
   9   2   8  706.79   62.59
  -9  -2  -9   18.19   11.05
   9   2   9   24.97   14.79
  -9  -2 -10   62.74   19.84
   9   2  10   53.90   20.22
  -9  -2 -11  205.23   34.64
   9   2  11  278.61   43.83
  -9  -3  10  232.27   38.88
  -9  -3   9  432.63   51.31
  -9  -3   8   38.12   15.02
  -9  -3   7  -25.13   12.51
  -9  -3   6  193.53   29.38
   9   3  -6  203.74   29.63
  -9  -3   5  654.49   53.21
   9   3  -5  731.98   57.28
  -9  -3   4  469.68   42.39
   9   3  -4  457.54   45.76
  -9  -3   3  283.34   30.64
   9   3  -3  219.89   31.83
   9   3  -2   18.21   10.49
   9   3  -1   49.25   15.48
   9   3   0   67.34   19.00
   9   3   1  281.10   37.09
   9   3   2 1045.40   73.42
   9   3   2 1050.31   62.21
   9   3   3 1450.50   87.54
   9   3   3 1446.17   77.47
   9   3   4  267.61   36.09
  -9  -3  -4  259.46   33.70
   9   3   4  283.84   33.66
  -9  -3  -5  204.46   30.05
   9   3   5  164.87   27.66
   9   3   5  190.71   28.75
  -9  -3  -6   -0.44    8.76
   9   3   6   -0.24    5.98
   9   3   6   -6.20    7.38
  -9  -3  -7   78.14   20.30
   9   3   7   99.12   20.89
   9   3   7  102.20   23.72
  -9  -3  -8  196.64   31.18
   9   3   8  214.16   30.22
   9   3   8  151.19   28.45
  -9  -3  -9  302.66   40.17
   9   3   9  287.33   40.63
  -9  -3 -10  122.33   25.88
   9   3  10  128.64   28.76
  -9  -3 -11   49.12   17.56
   9   3  11   27.57   14.39
   9   3  12  -10.19   11.37
  -9  -3 -12    8.72   10.20
  -9  -4   9   98.15   24.60
  -9  -4   8  418.20   47.76
  -9  -4   7  864.56   66.96
  -9  -4   6  195.30   30.49
   9   4  -6  207.26   29.73
  -9  -4   5   26.61   10.25
   9   4  -5   29.19   12.84
  -9  -4   4  505.54   43.41
   9   4  -4  470.80   46.27
   9   4  -3  455.34   45.62
   9   4  -2  601.08   53.36
   9   4  -1  448.73   46.08
   9   4   0  366.41   41.44
   9   4   1  247.73   34.61
   9   4   2    5.62    7.85
   9   4   3   36.85   14.30
   9   4   3   29.71   11.15
   9   4   4  484.79   48.20
  -9  -4  -4  465.08   44.47
   9   4   4  489.65   43.75
  -9  -4  -5  174.43   27.45
   9   4   5  122.50   24.11
   9   4   5  142.06   24.41
   9   4   6  335.11   38.84
  -9  -4  -6  326.97   38.83
   9   4   6  324.69   38.45
  -9  -4  -7  197.14   30.13
   9   4   7  130.60   24.18
   9   4   7  164.91   28.68
  -9  -4  -8   45.05   16.70
   9   4   8   57.24   15.80
   9   4   8   55.84   17.50
  -9  -4  -9    2.82    8.49
   9   4   9    9.08    8.22
   9   4   9   19.45   12.90
   9   4  10   80.86   22.89
  -9  -4 -10   57.18   18.47
   9   4  11  128.95   29.38
  -9  -4 -11  115.96   26.88
   9   4  12  221.01   39.42
  -9  -4 -12  161.07   31.88
  -9  -5   9  -17.44   11.16
  -9  -5   8  130.84   26.73
  -9  -5   7  831.95   66.15
  -9  -5   6  918.30   66.69
   9   5  -6  934.33   65.93
  -9  -5   5  544.78   47.89
   9   5  -5  445.63   45.34
  -9  -5   4   98.42   19.52
   9   5  -4   97.38   21.39
   9   5  -3    9.89    7.49
   9   5  -2   48.91   15.35
   9   5  -1    3.80    6.89
   9   5   0    8.87   10.83
   9   5   1  101.54   22.02
   9   5   2  653.90   56.66
   9   5   3 1073.34   72.99
  -9  -5  -3  969.36   65.06
   9   5   4  662.58   56.49
  -9  -5  -4  673.55   54.32
   9   5   4  668.76   50.83
  -9  -5  -5   16.48    9.16
   9   5   5    6.98    8.93
   9   5   5   49.43   16.06
   9   5   6  176.20   27.99
  -9  -5  -6  164.08   27.53
   9   5   6  159.40   26.90
   9   5   7  832.18   63.19
  -9  -5  -7 1004.57   69.89
   9   5   7  899.86   67.35
   9   5   8 1385.80   82.38
  -9  -5  -8 1389.72   86.58
   9   5   8 1378.38   88.47
   9   5   9  594.77   51.33
  -9  -5  -9  484.75   51.26
   9   5   9  517.83   54.35
   9   5  10  113.95   26.81
  -9  -5 -10   94.70   22.97
   9   5  11   41.09   18.65
  -9  -5 -11  142.50   29.30
   9   5  12  164.16   33.40
  -9  -6   9  447.09   53.11
  -9  -6   8   98.89   24.31
  -9  -6   7   90.46   21.47
  -9  -6   6   48.56   15.42
   9   6  -6   68.17   18.03
  -9  -6   5  251.62   33.35
   9   6  -5  264.21   35.52
   9   6  -4  169.52   28.60
   9   6  -3  503.33   49.54
   9   6  -2   84.40   20.58
   9   6  -1  301.69   38.06
   9   6   0  117.21   23.89
   9   6   1   40.77   14.54
   9   6   2   29.99   13.67
   9   6   3  358.82   42.31
  -9  -6  -3  403.18   40.77
   9   6   4  658.27   57.17
  -9  -6  -4  692.46   54.67
   9   6   5 1149.18   76.25
  -9  -6  -5 1101.60   71.43
   9   6   5 1032.62   67.07
   9   6   6  153.16   26.27
  -9  -6  -6  162.96   27.59
   9   6   6  194.16   29.88
   9   6   7    7.66    7.93
  -9  -6  -7   30.65   13.21
   9   6   7   -2.14    7.75
   9   6   8  301.24   37.23
  -9  -6  -8  318.19   39.51
   9   6   8  299.37   39.81
   9   6   9  602.05   53.07
  -9  -6  -9  525.00   53.25
   9   6   9  568.29   57.37
   9   6  10  334.00   45.04
  -9  -6 -10  320.35   42.37
   9   6  11  124.87   29.63
  -9  -6 -11  151.73   30.03
   9   6  12   44.93   18.41
  -9  -7   8  253.72   38.51
  -9  -7   7  757.80   65.07
  -9  -7   6  609.78   56.01
  -9  -7   5  348.52   39.74
   9   7  -5  355.36   42.02
   9   7  -4   23.94   11.61
   9   7  -3   -0.05    6.52
   9   7  -2  229.01   33.89
   9   7  -1  477.61   49.70
   9   7   0  374.15   43.89
   9   7   1  440.58   47.59
  -9  -7  -2   93.28   19.55
   9   7   2  100.86   23.16
  -9  -7  -3   19.78   10.77
   9   7   3   15.92    8.91
  -9  -7  -4   26.18   10.74
   9   7   4   16.57    9.80
  -9  -7  -5  219.81   30.80
   9   7   5  196.80   31.38
   9   7   6  598.44   55.17
  -9  -7  -6  633.09   54.11
   9   7   6  660.61   54.97
   9   7   7  422.81   45.91
  -9  -7  -7  443.04   46.01
   9   7   7  408.56   45.43
   9   7   8   84.23   21.06
   9   7   8  155.15   29.39
  -9  -7  -8  134.89   26.02
   9   7   9    4.63    7.57
   9   7   9   -3.70    8.09
  -9  -7  -9    5.86    9.64
   9   7  10   15.35   13.18
  -9  -7 -10   27.58   12.90
   9   7  11    7.59    8.95
  -9  -7 -11    4.87    9.22
  -9  -8   7   81.86   22.21
  -9  -8   6  563.35   55.03
   9   8  -5 1283.86   85.11
   9   8  -4  608.59   57.21
   9   8  -3  119.70   25.16
   9   8  -2   19.29   10.61
   9   8  -1  106.94   24.07
   9   8   0  133.48   27.40
   9   8   1  143.77   27.70
  -9  -8  -1  196.37   27.19
   9   8   2   88.43   22.19
  -9  -8  -2  105.80   20.47
   9   8   3   76.82   20.61
  -9  -8  -3  123.69   22.20
   9   8   4  358.06   43.92
  -9  -8  -4  362.14   38.69
   9   8   5  501.88   51.47
  -9  -8  -5  429.20   43.57
   9   8   6  134.88   26.81
  -9  -8  -6  178.79   28.41
   9   8   7   16.97   10.93
  -9  -8  -7   83.76   20.10
   9   8   8  444.11   47.60
  -9  -8  -8  390.49   44.71
   9   8   8  357.86   44.38
   9   8   9  539.42   53.06
  -9  -8  -9  642.55   58.86
   9   8   9  542.90   57.32
  -9  -8 -10  380.66   46.81
   9   8  10  372.93   49.43
   9   8  11   98.32   27.58
  -9  -8 -11  132.46   28.66
   9   9  -5   16.49   10.34
   9   9  -4  187.44   32.15
   9   9  -3  277.86   39.93
   9   9  -2  153.63   30.45
   9   9  -1  260.84   38.74
   9   9   0  132.02   27.38
   9   9   1   98.70   24.08
   9   9   2   22.50   12.42
   9   9   3   -9.88    9.82
   9   9   4   77.82   21.51
   9   9   5  449.92   50.50
  -9  -9  -5  444.58   43.63
   9   9   6  731.80   64.48
  -9  -9  -6  769.03   60.13
   9   9   7  265.36   38.52
  -9  -9  -7  390.08   42.92
   9   9   8   16.17   11.65
  -9  -9  -8   -3.46    9.82
   9   9   9  193.09   35.27
   9   9   9  187.27   31.73
  -9  -9  -9  173.42   30.49
  -9  -9 -10  509.00   54.29
   9   9  10  523.69   59.24
   9   9  11  387.63   52.92
   9  10  -5  328.11   45.27
   9  10  -4  264.35   39.90
   9  10  -3   69.22   20.56
   9  10  -2    3.60    5.35
   9  10  -1   19.54   10.29
   9  10   0  118.53   27.61
   9  10   1  319.47   44.52
  -9 -10  -2  291.78   37.18
   9  10   2  368.53   47.93
   9  10   3  412.71   50.40
   9  10   4   63.80   20.71
   9  10   5    0.11    8.66
   9  10   6  307.49   43.23
   9  10   7  738.50   67.69
   9  10   8  579.42   58.95
   9  10   9  173.03   31.44
   9  11  -2  281.45   43.34
   9  11  -1  -16.51   12.45
   9  11   0   36.84   16.10
   9  11   1  206.83   36.97
   9  11   2   51.82   19.60
  -9 -11  -2   25.08   12.10
   9  11   3   28.68   15.91
  -9 -11  -3   43.26   16.10
   9  11   4   73.27   22.52
  -9 -11  -4   48.42   17.15
   9  11   5   76.47   22.25
  -9 -11  -5  146.50   29.92
   9  11   6   61.58   19.55
   9  11   7   19.60   12.23
  -9 -12  -3  -13.06    9.76
  -9 -12  -4    4.02    7.43
  10  -5  -2  110.29   26.13
  10  -5  -1   30.69   15.02
  10  -5   1  329.49   47.26
  10  -4  -3  673.73   69.67
  10  -4  -2  140.84   32.97
  10  -4  -2  165.63   30.49
  10  -4  -1  135.92   28.54
  10  -4  -1   59.82   21.97
  10  -4   0  -24.28   13.33
  10  -4   0   12.96   12.96
  10  -4   1   56.45   23.05
  10  -4   2  280.38   44.81
  10  -4   3  342.85   50.25
  10  -3  -6  610.12   62.85
  10  -3  -5  170.45   33.92
  10  -3  -4  120.89   28.70
  10  -3  -3  429.41   53.60
  10  -3  -2  227.94   34.20
  10  -3  -2  237.69   40.07
  10  -3  -1  265.97   37.82
  10  -3  -1  230.87   39.53
  10  -3   0   -4.33    8.70
  10  -3   1   84.84   24.50
  10  -3   2   -0.25    8.60
  10  -3   3   12.55    8.36
  10  -3   4    4.09   10.29
 -10   3  -4  -12.52   10.48
  10  -3   5  343.80   48.18
 -10   3  -5  288.13   38.84
  10  -3   6  267.73   42.57
  10  -3   7  496.58   57.64
 -10   2   7  224.69   37.31
  10  -2  -6  299.66   41.89
  10  -2  -5  975.71   77.95
  10  -2  -4  118.21   26.81
  10  -2  -3   42.33   17.08
  10  -2  -2   23.93   13.34
  10  -2  -1   59.66   21.36
  10  -2   0    4.56    7.82
  10  -2   1  191.26   35.16
  10  -2   2   90.59   24.48
  10  -2   3  833.31   73.71
 -10   2  -4  291.64   38.75
  10  -2   4  262.13   40.94
  10  -2   5  262.93   40.78
 -10   2  -5  257.24   36.89
  10  -2   6    7.01    7.31
  10  -2   6    9.72   12.03
 -10   2  -6    3.61    8.33
  10  -2   7  518.85   57.56
  10  -2   7  613.77   65.18
 -10   2  -7  646.37   59.50
 -10   2  -8  569.98   56.82
 -10   1   8  268.88   41.58
 -10   1   7  141.26   29.01
 -10   1   6   73.18   19.84
  10  -1  -6   57.70   19.02
 -10   1   5   83.95   21.14
  10  -1  -5   79.30   21.82
  10  -1  -4  250.37   38.07
  10  -1  -3  461.87   52.08
  10  -1  -2  151.58   29.67
  10  -1  -1  139.68   28.68
  10  -1   0   93.87   24.12
  10  -1   1   24.38   14.06
  10  -1   2    4.87    7.59
  10  -1   3  327.06   44.24
  10  -1   4  416.94   49.94
 -10   1  -4  349.91   42.05
  10  -1   5  595.29   60.22
  10  -1   5  620.59   61.16
 -10   1  -5  699.56   60.54
  10  -1   6  387.62   47.96
  10  -1   6  365.04   47.79
 -10   1  -6  373.95   44.51
  10  -1   7   66.75   20.39
 -10   1  -7   71.06   20.02
  10  -1   7   53.88   19.78
  10  -1   8   89.54   22.51
 -10   1  -8   63.39   19.47
  10  -1   8   47.82   20.33
 -10   1  -9  450.97   51.41
 -10   0   8    6.98    7.57
 -10   0   7  438.43   49.75
 -10   0   6 1079.34   77.32
  10   0  -6  962.28   73.40
 -10   0   5  838.61   64.70
  10   0  -5  693.56   62.44
  10   0  -4  405.07   47.17
  10   0  -3  148.10   28.54
  10   0  -2  215.00   34.92
  10   0  -1  827.32   69.08
  10   0   0  402.22   48.01
  10   0   1  192.53   33.13
  10   0   2   30.63   15.21
  10   0   3   -2.81    7.63
  10   0   4   -8.88    9.11
 -10   0  -4   -1.03    7.23
  10   0   4    7.12    7.92
  10   0   5  213.88   35.15
 -10   0  -5  166.93   29.18
  10   0   5  210.10   34.37
  10   0   6   72.85   20.29
 -10   0  -6   15.64   11.63
  10   0   6   29.61   13.63
  10   0   7  336.72   43.45
 -10   0  -7  418.36   47.50
  10   0   7  427.58   51.26
  10   0   8  250.13   37.27
 -10   0  -8  222.42   35.02
  10   0   8  169.66   33.43
 -10   0  -9   77.86   22.06
  10   0   9  128.18   30.54
 -10   0 -10   11.66    9.56
 -10  -1   8  277.40   40.59
 -10  -1   7    4.34    7.49
 -10  -1   6  107.30   23.57
  10   1  -6   61.53   18.02
 -10  -1   5  847.34   63.87
  10   1  -5  868.38   68.22
  10   1  -4  909.14   70.38
  10   1  -3  814.79   66.93
  10   1  -2  142.80   28.20
  10   1  -1   54.37   18.95
  10   1   0   96.58   23.11
  10   1   1  428.01   48.93
  10   1   2   26.65   15.53
  10   1   3   84.69   22.82
  10   1   3   75.57   18.94
 -10  -1  -4  151.99   28.44
  10   1   4  195.14   32.82
  10   1   4  240.04   34.31
  10   1   5  231.88   35.70
 -10  -1  -5  262.58   36.51
  10   1   5  195.33   32.08
  10   1   6  200.38   33.49
 -10  -1  -6  177.37   30.36
  10   1   6  166.51   30.49
  10   1   7   24.27   11.99
 -10  -1  -7   19.50   12.02
  10   1   7   17.16   10.55
  10   1   8  284.51   38.56
 -10  -1  -8  164.69   30.57
  10   1   8  216.07   36.21
 -10  -1  -9 1095.85   81.03
  10   1   9 1126.77   88.12
 -10  -1 -10  701.75   65.56
  10   1  10  636.73   67.34
 -10  -2   9  189.15   34.82
 -10  -2   8  468.83   52.86
 -10  -2   7  374.76   45.00
 -10  -2   6  276.84   37.21
  10   2  -6  267.33   36.65
  10   2  -5   14.14   10.04
  10   2  -4   12.21   10.35
  10   2  -3   88.55   21.81
  10   2  -2  222.30   34.56
  10   2  -1  123.81   26.68
  10   2   0  129.10   26.17
  10   2   1   10.41   10.37
  10   2   2    0.15    9.74
  10   2   2   27.09   10.97
  10   2   3   -0.30    8.85
  10   2   3   10.53    8.39
 -10  -2  -4   19.65   12.01
  10   2   4   16.48   10.68
  10   2   4   48.83   16.30
  10   2   5  700.37   62.21
 -10  -2  -5  663.82   58.23
  10   2   5  619.13   56.24
  10   2   6 1166.00   81.68
 -10  -2  -6 1254.06   82.61
  10   2   6 1161.36   81.29
  10   2   7  753.11   63.94
 -10  -2  -7  718.11   62.75
  10   2   7  787.34   67.38
 -10  -2  -8  274.74   38.53
  10   2   8  250.52   35.98
  10   2   8  278.14   40.73
 -10  -2  -9  122.66   26.68
  10   2   9  126.82   29.36
 -10  -2 -10  331.45   44.89
  10   2  10  277.03   42.72
 -10  -3   9   57.10   19.49
 -10  -3   8   80.76   22.22
 -10  -3   7  -19.81   11.84
 -10  -3   6  329.43   40.28
  10   3  -6  284.56   37.39
  10   3  -5  438.24   46.84
  10   3  -4  764.85   63.11
  10   3  -3   96.46   22.83
  10   3  -2  106.16   23.72
  10   3  -1  226.36   34.48
  10   3   0  538.27   54.12
  10   3   1  524.79   54.06
  10   3   2  534.18   55.08
  10   3   3   27.60   11.83
  10   3   3   25.67   11.21
 -10  -3  -4  138.37   26.11
  10   3   4  210.25   33.47
  10   3   4  175.28   28.36
 -10  -3  -5    1.68    6.69
  10   3   5   -8.71    8.20
  10   3   5   -0.96   10.21
 -10  -3  -6   29.37   13.97
  10   3   6   28.47   13.66
  10   3   6   27.44   13.39
  10   3   7  418.85   47.43
 -10  -3  -7  435.23   48.43
  10   3   7  642.86   58.97
  10   3   8  686.95   59.19
 -10  -3  -8  594.90   57.60
  10   3   8  641.07   61.87
 -10  -3  -9  383.24   47.36
  10   3   9  356.58   47.02
 -10  -3 -10  118.33   27.40
  10   3  10  121.61   30.19
 -10  -4   8  482.53   53.40
 -10  -4   7  289.92   39.49
  10   4  -6  112.88   24.09
  10   4  -5   37.94   13.93
  10   4  -4  541.47   52.87
  10   4  -3  849.47   67.07
  10   4  -2  860.53   67.93
  10   4  -1  142.98   27.85
  10   4   0    1.79    7.35
  10   4   1  452.13   50.42
  10   4   2  474.67   51.90
  10   4   3  319.70   42.34
 -10  -4  -4  156.30   27.25
  10   4   4  189.21   32.15
  10   4   4  171.23   27.03
 -10  -4  -5   52.58   17.38
  10   4   5   55.17   18.41
  10   4   5   45.81   15.38
  10   4   6  443.96   48.40
 -10  -4  -6  425.38   46.57
  10   4   6  524.01   51.52
 -10  -4  -7   62.16   18.72
  10   4   7  111.89   24.51
  10   4   7  108.18   23.94
 -10  -4  -8   43.79   16.06
  10   4   8   59.52   17.41
  10   4   8   25.04   12.98
 -10  -4  -9   23.63   14.17
  10   4   9   69.78   18.81
  10   4   9   51.07   19.55
 -10  -4 -10  337.90   44.99
  10   4  10  318.49   46.21
  10   4  11  376.88   51.13
 -10  -5   8  143.76   28.46
 -10  -5   7  261.92   37.32
  10   5  -6  566.15   53.95
  10   5  -5  236.41   34.87
  10   5  -4    4.74    7.36
  10   5  -3  110.91   25.12
  10   5  -2  621.70   58.15
  10   5  -1  416.11   47.62
  10   5   0  483.34   51.60
  10   5   1   19.72   11.64
  10   5   2   26.56   14.71
 -10  -5  -3   -1.21    6.68
  10   5   3    7.16    9.74
 -10  -5  -4    3.79    8.00
  10   5   4   11.45    9.65
 -10  -5  -5    5.06    6.47
  10   5   5   -8.20    8.73
  10   5   5   14.12    9.87
 -10  -5  -6  149.18   28.01
  10   5   6  119.46   25.70
  10   5   6  152.73   27.66
  10   5   7  405.67   46.17
 -10  -5  -7  397.55   45.75
  10   5   7  462.82   49.71
  10   5   8  635.25   57.53
 -10  -5  -8  700.08   62.51
  10   5   8  726.17   64.87
  10   5   9  241.78   38.70
 -10  -5  -9  204.47   34.54
  10   5   9  232.60   33.94
  10   5  10    9.01    9.17
 -10  -5 -10    1.21    9.12
  10   5  11  256.24   42.12
 -10  -6   8  -33.32   14.61
  10   6  -5   37.09   13.91
  10   6  -4  634.49   58.65
  10   6  -3  550.36   54.49
  10   6  -2  343.19   43.16
  10   6  -1   41.52   15.95
  10   6   0   59.40   18.64
  10   6   1  172.50   31.75
  10   6   2  468.95   51.63
  10   6   3  348.25   44.19
 -10  -6  -3  306.43   37.75
  10   6   4  615.47   59.13
 -10  -6  -4  637.31   55.74
 -10  -6  -5  210.30   32.24
  10   6   5  161.78   29.82
 -10  -6  -6   13.57   11.01
  10   6   6   -6.61    7.75
  10   6   7   43.86   18.55
 -10  -6  -7   49.20   16.58
  10   6   7   37.77   15.00
  10   6   8  517.59   52.54
 -10  -6  -8  531.76   54.53
  10   6   8  525.08   55.30
  10   6   9  530.47   52.54
 -10  -6  -9  531.34   55.64
  10   6   9  480.66   54.47
 -10  -6 -10  629.11   61.99
  10   6  10  514.25   58.23
  10   6  11  243.90   41.73
  10   7  -5  113.93   25.26
  10   7  -4   -5.66    8.54
  10   7  -3  157.21   29.77
  10   7  -2 1074.13   80.04
  10   7  -1  691.41   63.69
  10   7   0  394.31   47.77
  10   7   1    8.40    8.37
 -10  -7  -2  116.14   23.42
  10   7   2   79.23   22.21
 -10  -7  -3  124.44   24.43
  10   7   3  148.25   29.38
  10   7   4  481.38   52.55
 -10  -7  -4  518.11   49.92
  10   7   5  331.77   43.74
 -10  -7  -5  271.66   36.41
  10   7   6  388.00   46.49
 -10  -7  -6  383.54   44.12
 -10  -7  -7    0.05   15.44
  10   7   7   53.62   17.49
  10   7   8   23.14   14.82
 -10  -7  -8   40.16   15.16
  10   7   8   84.39   21.97
  10   7   9   13.93   10.85
  10   7   9   -7.45    9.81
 -10  -7  -9  -14.18   11.64
  10   7  10   45.55   20.68
 -10  -7 -10   47.97   17.15
  10   8  -5  568.90   57.44
  10   8  -4  499.61   53.81
  10   8  -3  264.57   39.37
  10   8  -2   83.28   23.06
  10   8  -1  574.80   58.91
  10   8   0  723.04   66.73
 -10  -8  -1  234.88   32.37
  10   8   1  254.61   39.53
 -10  -8  -2   65.75   17.85
  10   8   2   55.17   19.44
 -10  -8  -3    5.18    6.74
  10   8   3  -22.89   13.53
  10   8   4   -5.99    9.54
 -10  -8  -4    1.65    6.26
  10   8   5   12.45   10.39
 -10  -8  -5    2.40    5.29
  10   8   6   12.77    9.86
 -10  -8  -6   40.68   15.11
  10   8   7   22.33   12.80
 -10  -8  -7   14.22    9.71
  10   8   8  143.41   29.13
 -10  -8  -8  115.68   26.11
  10   8   9  285.13   39.93
 -10  -8  -9  339.64   44.05
  10   8  10  404.41   52.75
  10   9  -5   37.61   17.07
  10   9  -4  215.27   36.46
  10   9  -3  387.42   48.88
  10   9  -2  512.26   56.53
  10   9  -1  329.46   45.42
  10   9   0    5.06    7.71
  10   9   1   65.61   20.84
  10   9   2  213.32   36.31
  10   9   3  217.50   37.54
  10   9   4  310.31   44.37
  10   9   5  359.54   47.12
 -10  -9  -5  342.61   40.54
  10   9   6  171.38   32.65
 -10  -9  -6  223.03   33.26
  10   9   7  101.23   24.81
 -10  -9  -7  155.78   28.46
  10   9   8    5.38    8.01
 -10  -9  -8   14.17   11.14
  10   9   9   19.04   11.73
 -10  -9  -9   43.66   16.15
  10  10  -3   17.83   11.70
  10  10  -2  102.63   26.90
  10  10  -1  327.50   47.02
  10  10   0  565.85   62.27
  10  10   1  514.29   59.31
  10  10   2  179.10   34.46
  10  10   3    7.82    9.92
  10  10   4   93.24   25.12
  10  10   5  153.85   31.91
  10  10   6  364.27   48.62
  10  10   7  207.55   36.59
  10  10   8   79.06   23.60
 -10 -11  -4   11.40    8.04
 -11   3  -3  236.45   37.17
  11  -2  -3  -14.43   13.77
  11  -2  -2   94.85   26.67
  11  -2  -1  277.51   44.93
  11  -2   0  180.50   35.54
  11  -2   1  171.39   35.11
  11  -2   2   56.10   20.80
  11  -2   3    5.33   10.60
  11  -2   4    5.01    8.10
 -11   2  -4   -2.47    7.71
 -11   2  -5    1.71    6.25
 -11   2  -6  140.92   29.39
  11  -1  -6   29.42   14.62
  11  -1  -5  143.53   29.90
  11  -1  -4  221.83   37.87
  11  -1  -3  366.99   48.97
  11  -1  -2  334.38   46.53
  11  -1  -1  133.91   30.21
  11  -1   0    7.67    8.43
  11  -1   1  163.16   32.75
  11  -1   2  281.97   43.76
  11  -1   3  530.27   59.93
  11  -1   4  422.08   53.29
 -11   1  -4  392.79   47.39
  11  -1   5  222.21   38.35
 -11   1  -5  185.64   33.20
  11  -1   5  195.19   35.56
  11  -1   6  110.53   27.41
 -11   1  -6   64.99   19.84
  11  -1   6   87.86   24.05
  11  -1   7   32.92   16.26
 -11   1  -7   55.74   18.56
  11   0  -6  197.86   34.30
  11   0  -5  165.71   31.50
  11   0  -4    6.67   10.38
  11   0  -3  412.68   50.28
  11   0  -2  571.93   59.44
  11   0  -1  977.84   79.75
  11   0   0  492.56   55.74
  11   0   1   73.98   21.49
  11   0   2   17.92   15.54
  11   0   3   56.59   19.36
  11   0   4  221.24   38.26
 -11   0  -4  197.12   33.35
  11   0   4  201.44   34.82
  11   0   5  334.11   45.80
 -11   0  -5  265.34   38.92
  11   0   5  288.73   41.69
  11   0   6  143.51   30.76
 -11   0  -6   95.49   24.11
  11   0   6   82.58   23.35
  11   0   7  113.43   26.82
 -11   0  -7  122.43   26.50
  11   0   7  130.53   29.60
  11   0   8   21.33   12.56
  11   1  -6  312.09   42.63
  11   1  -5  589.08   58.93
  11   1  -4  958.41   76.45
  11   1  -3  375.40   47.58
  11   1  -2   14.76   13.84
  11   1  -1  428.04   51.55
  11   1   0  574.81   60.00
  11   1   1  457.78   53.21
  11   1   2   57.71   20.92
  11   1   3    2.34    8.40
  11   1   3    9.01    7.41
 -11  -1  -4    4.56    8.21
  11   1   4   12.08   10.67
  11   1   4   12.64   11.25
  11   1   5    9.78    9.17
 -11  -1  -5    7.92    9.54
  11   1   5    1.53    8.64
  11   1   6    7.73    9.44
 -11  -1  -6    1.11    6.35
  11   1   6   18.38   11.48
 -11  -1  -7    2.75    8.52
  11   1   7    2.23    5.85
  11   1   7   10.34   12.91
 -11  -1  -8   90.30   24.28
  11   1   8   86.77   22.93
  11   1   8  127.40   29.37
  11   2  -6    1.54    5.92
  11   2  -5   17.00    9.23
  11   2  -4   63.57   19.26
  11   2  -3  432.51   49.80
  11   2  -2  752.63   67.30
  11   2  -1  324.71   43.59
  11   2   0  193.13   34.10
  11   2   1    7.32   10.45
  11   2   2   82.64   23.02
  11   2   3  136.18   29.69
  11   2   4  328.43   45.13
 -11  -2  -4  327.64   42.57
  11   2   4  326.06   41.64
 -11  -2  -5  345.75   44.03
  11   2   5  401.09   47.00
  11   2   5  289.03   42.35
 -11  -2  -6  261.06   38.72
  11   2   6  228.09   37.13
  11   2   6  273.18   39.82
 -11  -2  -7   10.86   11.09
  11   2   7   22.02   12.40
  11   2   7    3.91    6.51
 -11  -2  -8   16.35   11.12
  11   2   8   -4.06    8.09
  11   2   8    1.98    9.63
  11   2   9  211.08   38.24
  11   3  -6  159.51   29.08
  11   3  -5  197.65   33.72
  11   3  -4  265.83   38.61
  11   3  -3   28.42   15.02
  11   3  -2    3.21   10.92
  11   3  -1  440.14   51.22
  11   3   0  449.48   52.20
  11   3   1  341.21   46.09
  11   3   2  168.56   32.60
  11   3   3   12.64   10.45
 -11  -3  -4    4.42    9.39
  11   3   4    9.02   11.24
  11   3   5  342.81   46.17
 -11  -3  -5  411.53   48.14
  11   3   5  375.60   45.16
  11   3   6  491.49   54.71
 -11  -3  -6  497.29   53.96
  11   3   6  598.23   58.95
  11   3   7  562.13   58.02
 -11  -3  -7  552.82   57.35
  11   3   7  617.55   61.54
 -11  -3  -8  296.38   42.97
  11   3   8  262.97   39.33
  11   3   8  252.88   40.06
  11   3   9   81.45   23.25
  11   4  -5   52.86   17.79
  11   4  -4  448.39   50.23
  11   4  -3  694.04   63.93
  11   4  -2  557.57   57.19
  11   4  -1   15.80   10.86
  11   4   0  200.60   34.61
  11   4   1  618.57   62.19
  11   4   2  576.52   61.08
  11   4   3  321.97   44.86
 -11  -4  -4    7.41    7.89
  11   4   4    8.18   11.40
 -11  -4  -5    3.15    7.21
  11   4   5   -6.13   12.37
 -11  -4  -6    1.59    7.10
  11   4   6   -3.61   12.13
  11   4   6   13.38    8.42
 -11  -4  -7    4.59    9.57
  11   4   7   19.09   13.53
  11   4   7    1.29    9.56
 -11  -4  -8   -3.02    7.88
  11   4   8    9.28   10.51
  11   4   8   -1.32    7.23
  11   4   9   57.45   20.03
  11   5  -5  116.41   26.25
  11   5  -4   -8.49    8.67
  11   5  -3  120.28   26.21
  11   5  -2  514.85   55.40
  11   5  -1  495.03   54.84
  11   5   0  428.29   51.63
  11   5   1    6.10    9.82
  11   5   2    2.36    8.04
 -11  -5  -3  178.27   31.08
  11   5   3  171.84   32.96
  11   5   4  370.79   48.06
 -11  -5  -4  371.91   44.64
 -11  -5  -5  102.41   23.88
  11   5   5   62.81   20.33
 -11  -5  -6  161.06   30.28
  11   5   6  208.90   35.23
 -11  -5  -7  149.85   30.21
  11   5   7  176.67   31.86
  11   5   7  213.72   34.99
  11   5   8  141.47   29.44
 -11  -5  -8  128.83   28.29
  11   5   8  168.88   30.85
  11   5   9   41.96   18.10
  11   5  10   77.56   23.51
  11   6  -5  110.28   25.36
  11   6  -4  256.82   38.92
  11   6  -3   32.73   15.29
  11   6  -2   14.33   10.55
  11   6  -1   75.66   22.50
  11   6   0  161.52   31.26
  11   6   1  466.29   54.72
  11   6   2  394.35   50.65
 -11  -6  -3  232.63   35.13
  11   6   3  163.44   32.56
 -11  -6  -4   45.04   15.20
  11   6   4   16.45   12.18
 -11  -6  -5   78.40   21.60
  11   6   5   87.64   23.22
 -11  -6  -6   65.10   18.85
  11   6   6   88.13   22.64
 -11  -6  -7  234.00   36.75
  11   6   7  248.05   38.56
  11   6   8  364.96   46.48
 -11  -6  -8  344.14   45.40
  11   6   9  363.44   48.91
  11   6   9  442.53   50.48
  11   6  10  171.42   34.20
  11   7  -5   50.58   16.98
  11   7  -4   20.70   12.33
  11   7  -3  327.02   44.77
  11   7  -2  543.07   58.39
  11   7  -1  570.54   60.59
  11   7   0  200.70   35.83
  11   7   1    3.61    7.28
 -11  -7  -2  366.22   43.45
  11   7   2  327.09   46.44
  11   7   3  770.83   71.50
 -11  -7  -3  751.38   63.83
  11   7   4  567.77   60.69
 -11  -7  -4  589.42   56.63
 -11  -7  -5  158.35   29.53
  11   7   5  163.53   32.68
 -11  -7  -6   19.79   14.29
  11   7   6   10.56    8.05
 -11  -7  -7   25.40   13.74
  11   7   7   42.87   18.46
 -11  -7  -8   36.06   15.62
  11   7   8   10.56    8.65
  11   7   9   38.20   16.61
  11   8  -5  211.34   35.91
  11   8  -4  125.44   28.14
  11   8  -3   10.28    9.60
  11   8  -2  328.75   46.74
  11   8  -1  381.60   50.28
  11   8   0  626.33   65.23
 -11  -8  -1  334.94   41.19
  11   8   1  274.31   43.25
 -11  -8  -2   74.89   21.70
  11   8   2   47.21   18.46
 -11  -8  -3   22.55   12.46
  11   8   3   42.96   17.18
 -11  -8  -4  338.46   42.13
  11   8   4  220.92   38.82
 -11  -8  -5  271.89   38.50
  11   8   5  196.84   35.64
  11   8   6  277.40   42.29
 -11  -8  -6  207.07   34.90
  11   8   7   52.62   19.80
 -11  -8  -7   88.04   23.24
  11   8   8  204.30   35.57
 -11  -8  -8  221.84   36.75
  11   8   9  175.42   33.25
  11   9  -1    7.45    8.75
  11   9   0  152.53   32.81
  11   9   1  349.73   49.86
  11   9   2  348.08   49.37
  11   9   3  208.59   38.62
  11   9   4   19.94   12.70
  11   9   5  -16.22   12.76
 -11  -9  -5   -2.21    6.70
  11   9   6   10.31    8.18
 -11  -9  -6   29.16   13.66
 -11  -9  -7   17.63    7.42
  12   0   4 1042.26   83.37
  12   0   5  176.55   34.75
  12   1  -3   15.07   11.33
  12   1  -2  127.45   29.75
  12   1  -1  470.71   56.55
  12   1   0  814.58   75.14
  12   1   1  628.01   66.22
  12   1   2  267.12   42.70
  12   1   3   87.08   24.88
 -12  -1  -4  120.15   27.90
  12   1   4  100.60   27.62
  12   1   5  205.39   37.66
  12   1   5  184.94   34.35
  12   1   6   92.51   26.65
  12   2  -4   53.64   19.75
  12   2  -3  330.97   46.25
  12   2  -2   18.20   10.30
  12   2  -1   63.29   20.71
  12   2   0   12.09   10.25
  12   2   1   19.22   14.20
  12   2   2  285.50   43.96
  12   2   3  598.38   64.64
  12   2   4  453.89   55.97
 -12  -2  -4  430.72   51.52
 -12  -2  -5  232.88   38.35
  12   2   5  170.80   34.10
  12   2   6   59.17   19.98
  12   2   6   28.67   13.86
  12   2   7   46.42   17.00
  12   3  -5   -8.39    9.33
  12   3  -4    1.73    7.49
  12   3  -3   -6.47    8.46
  12   3  -2   51.31   19.21
  12   3  -1  193.61   37.10
  12   3   0  417.84   52.88
  12   3   1  608.02   64.06
  12   3   2  173.35   34.93
  12   3   3   17.82   12.64
  12   3   4  424.46   53.78
 -12  -3  -4  363.95   47.62
  12   3   5  790.07   74.09
 -12  -3  -5  706.90   67.12
  12   3   6  507.48   58.32
  12   3   7  118.34   29.18
  12   3   7   44.46   18.82
  12   4  -5  330.31   45.48
  12   4  -4  158.90   31.55
  12   4  -3  149.35   30.79
  12   4  -2  232.61   38.70
  12   4  -1   -2.73    8.84
  12   4   0   43.22   17.80
  12   4   1  623.51   65.28
  12   4   2  801.02   75.01
 -12  -4  -3  406.67   49.01
  12   4   3  355.64   49.66
 -12  -4  -4    3.48   11.84
  12   4   4    5.05    8.34
 -12  -4  -5   60.03   20.84
  12   4   5  108.10   26.90
  12   4   6  385.68   51.03
 -12  -4  -6  333.34   45.93
  12   4   7  437.98   53.65
  12   4   8  111.99   28.23
  12   4   8   97.43   26.35
  12   5  -4  222.56   37.91
  12   5  -3  271.53   41.96
  12   5  -2   21.96   13.58
  12   5  -1  161.13   33.20
  12   5   0    4.73    8.80
  12   5   1   18.07   12.13
  12   5   2   65.12   21.97
  12   5   3  432.69   55.16
 -12  -5  -3  415.74   50.01
 -12  -5  -4  208.49   35.24
  12   5   4  188.92   36.50
 -12  -5  -5  161.64   30.74
  12   5   5  189.07   36.22
 -12  -5  -6   63.90   21.69
  12   5   6   62.58   20.26
  12   5   7   -7.09    9.77
  12   6  -3   58.25   20.01
  12   6  -2   15.17   10.84
  12   6  -1   31.14   14.93
  12   6   0  123.07   28.98
  12   6   1  390.32   52.46
  12   6   2  324.42   48.45
 -12  -6  -3  122.77   27.25
  12   6   3   76.78   24.81
 -12  -6  -4    0.77    8.46
  12   6   4   27.71   13.94
 -12  -6  -5  142.48   29.79
  12   6   5  178.94   35.27
 -12  -6  -6  267.92   40.77
  12   6   6  212.91   37.98
  12   6   7  609.80   63.80
  12   7  -1  109.05   27.87
  12   7   0   64.64   22.29
  12   7   1   66.17   22.38
 -12  -7  -2  455.35   52.02
  12   7   2  365.66   53.09
  12   7   3  934.95   83.78
 -12  -7  -3  922.97   75.09
  12   7   4  582.55   65.49
 -12  -7  -4  563.35   59.00
 -12  -7  -5   62.44   21.15
  12   7   5   80.67   24.62
 -12  -8  -1   78.28   20.92
 -12  -8  -2   -7.75   10.74
 -12  -8  -3   85.46   23.02
 -12  -8  -4  193.62   34.54
 -12  -8  -5  461.26   52.58
   0   0   0    0.00    0.00


TITL LBX-017ABS in P-1
REM P-1 (#2 in standard setting)
CELL 0.71073   8.768300   9.063842  10.937180  81.3394  84.1150  71.9829
ZERR    1.00   0.000539   0.000598   0.000564   0.0049   0.0046   0.0057
LATT  1
SFAC C H Cl Rh
UNIT 24.00 38.00 4.00 2.00
TREF
HKLF 4
END
_computing_structure_solution     'SHELXT 2014/5 (Sheldrick, 2014)'
_computing_structure_solution     'SHELXT 2014/5 (Sheldrick, 2014)'
;
_shelx_hkl_checksum              67866
_shelx_shelxl_version_number     2014/7
_olex2_submission_special_instructions 'No special instructions were received'
loop_
_space_group_symop_operation_xyz
'x, y, z'
'-x, -y, -z'
loop_
_atom_site_label
_atom_site_type_symbol
_atom_site_fract_x
_atom_site_fract_y
_atom_site_fract_z
_atom_site_U_iso_or_equiv
_atom_site_adp_type
_atom_site_occupancy
_atom_site_site_symmetry_order
_atom_site_calc_flag
_atom_site_refinement_flags_posn
C1 C 0.7204(3) 0.0590(3) 0.6176(2) 0.0104(4) Uani 1 1 d .
C2 C 0.7874(3) 0.1185(3) 0.5031(2) 0.0106(4) Uani 1 1 d .
C3 C 0.8506(3) 0.2405(3) 0.5259(2) 0.0096(4) Uani 1 1 d .
C4 C 0.8254(3) 0.2540(3) 0.6555(2) 0.0098(4) Uani 1 1 d .
C5 C 0.7395(3) 0.1465(3) 0.7127(2) 0.0102(4) Uani 1 1 d .
C6 C 0.6458(3) -0.0709(3) 0.6399(2) 0.0147(5) Uani 1 1 d .
H6A H 0.6236 -0.0950 0.5604 0.022 Uiso 1 1 calc GR
H6B H 0.5452 -0.0390 0.6906 0.022 Uiso 1 1 calc GR
H6C H 0.7198 -0.1639 0.6833 0.022 Uiso 1 1 calc GR
C7 C 0.7940(3) 0.0660(3) 0.3783(2) 0.0139(5) Uani 1 1 d .
H7A H 0.9063 0.0208 0.3499 0.021 Uiso 1 1 calc GR
H7B H 0.7427 0.1559 0.3190 0.021 Uiso 1 1 calc GR
H7C H 0.7373 -0.0128 0.3845 0.021 Uiso 1 1 calc GR
C8 C 0.9384(3) 0.3305(3) 0.4347(2) 0.0150(5) Uani 1 1 d .
H8A H 1.0488 0.3072 0.4590 0.022 Uiso 1 1 calc GR
H8B H 0.8837 0.4427 0.4334 0.022 Uiso 1 1 calc GR
H8C H 0.9404 0.3004 0.3521 0.022 Uiso 1 1 calc GR
C9 C 0.8798(3) 0.3627(3) 0.7180(2) 0.0144(5) Uani 1 1 d .
H9A H 0.9970 0.3251 0.7214 0.022 Uiso 1 1 calc GR
H9B H 0.8301 0.3668 0.8024 0.022 Uiso 1 1 calc GR
H9C H 0.8482 0.4675 0.6713 0.022 Uiso 1 1 calc GR
C10 C 0.6909(3) 0.1191(3) 0.8471(2) 0.0146(5) Uani 1 1 d .
H10A H 0.5883 0.0932 0.8559 0.017 Uiso 1 1 calc R
H10B H 0.6730 0.2163 0.8847 0.017 Uiso 1 1 calc R
C11 C 0.8183(3) -0.0137(3) 0.9168(2) 0.0185(5) Uani 1 1 d .
H11A H 0.8375 -0.1108 0.8787 0.022 Uiso 1 1 calc R
H11B H 0.9205 0.0128 0.9096 0.022 Uiso 1 1 calc R
C12 C 0.7651(4) -0.0415(4) 1.0537(2) 0.0269(7) Uani 1 1 d .
H12A H 0.6648 -0.0694 1.0610 0.040 Uiso 1 1 calc GR
H12B H 0.7478 0.0540 1.0918 0.040 Uiso 1 1 calc GR
H12C H 0.8486 -0.1269 1.0960 0.040 Uiso 1 1 calc GR
Cl1 Cl 0.33792(7) 0.27623(7) 0.64676(5) 0.01282(11) Uani 1 1 d .
Cl2 Cl 0.50748(7) 0.57218(7) 0.62645(5) 0.01123(11) Uani 1 1 d .
Rh1 Rh 0.59761(2) 0.30352(2) 0.57555(2) 0.00800(5) Uani 1 1 d .
C13 C 0.2982(5) 0.4566(4) 0.9144(3) 0.0371(8) Uani 1 1 d .
H13A H 0.3888 0.4777 0.8605 0.045 Uiso 1 1 calc R
H13B H 0.2586 0.3845 0.8757 0.045 Uiso 1 1 calc R
Cl3 Cl 0.14401(12) 0.63196(11) 0.92379(7) 0.0433(2) Uani 1 1 d .
Cl4 Cl 0.36787(10) 0.36504(9) 1.06155(7) 0.03260(18) Uani 1 1 d .
loop_
_atom_site_aniso_label
_atom_site_aniso_U_11
_atom_site_aniso_U_22
_atom_site_aniso_U_33
_atom_site_aniso_U_23
_atom_site_aniso_U_13
_atom_site_aniso_U_12
C1 0.0077(10) 0.0069(11) 0.0142(11) 0.0002(8) -0.0026(8) 0.0013(8)
C2 0.0088(10) 0.0089(11) 0.0125(11) -0.0026(8) -0.0007(8) 0.0000(8)
C3 0.0079(10) 0.0079(11) 0.0101(10) 0.0004(8) -0.0005(8) 0.0009(8)
C4 0.0060(10) 0.0100(11) 0.0116(11) 0.0003(8) -0.0013(8) -0.0002(8)
C5 0.0094(10) 0.0094(11) 0.0093(10) 0.0005(8) -0.0008(8) 0.0000(8)
C6 0.0128(11) 0.0100(12) 0.0200(12) -0.0011(9) -0.0003(9) -0.0020(9)
C7 0.0152(12) 0.0132(12) 0.0122(11) -0.0044(9) 0.0014(9) -0.0019(9)
C8 0.0134(12) 0.0169(13) 0.0146(11) 0.0011(9) 0.0003(9) -0.0062(10)
C9 0.0122(11) 0.0164(13) 0.0159(12) -0.0036(9) -0.0022(9) -0.0051(10)
C10 0.0140(12) 0.0185(13) 0.0104(11) 0.0014(9) -0.0002(9) -0.0054(10)
C11 0.0133(12) 0.0231(15) 0.0167(12) 0.0068(10) -0.0052(10) -0.0049(11)
C12 0.0263(15) 0.0397(19) 0.0147(13) 0.0110(12) -0.0057(11) -0.0150(14)
Cl1 0.0098(3) 0.0116(3) 0.0168(3) -0.0017(2) 0.0012(2) -0.0035(2)
Cl2 0.0133(3) 0.0087(3) 0.0105(2) -0.00131(19) -0.0028(2) -0.0008(2)
Rh1 0.00717(8) 0.00737(9) 0.00865(9) -0.00033(6) -0.00071(6) -0.00124(6)
C13 0.062(2) 0.0262(18) 0.0174(14) -0.0037(12) -0.0012(15) -0.0055(17)
Cl3 0.0528(6) 0.0387(5) 0.0247(4) -0.0017(3) -0.0072(4) 0.0066(4)
Cl4 0.0410(5) 0.0266(4) 0.0212(3) -0.0011(3) 0.0020(3) 0.0008(3)
loop_
_atom_type_symbol
_atom_type_description
_atom_type_scat_dispersion_real
_atom_type_scat_dispersion_imag
_atom_type_scat_source
C C 0.0033 0.0016 'International Tables Vol C Tables 4.2.6.8 and 6.1.1.4'
H H 0.0000 0.0000 'International Tables Vol C Tables 4.2.6.8 and 6.1.1.4'
Cl Cl 0.1484 0.1585 'International Tables Vol C Tables 4.2.6.8 and 6.1.1.4'
Rh Rh -1.1178 0.9187 'International Tables Vol C Tables 4.2.6.8 and 6.1.1.4'
loop_
_exptl_crystal_face_index_h
_exptl_crystal_face_index_k
_exptl_crystal_face_index_l
_exptl_crystal_face_perp_dist
_exptl_oxdiff_crystal_face_indexfrac_h
_exptl_oxdiff_crystal_face_indexfrac_k
_exptl_oxdiff_crystal_face_indexfrac_l
_exptl_oxdiff_crystal_face_x
_exptl_oxdiff_crystal_face_y
_exptl_oxdiff_crystal_face_z
1 5 1 0.2038 1.0003 5.0007 1.0003 0.1548 -0.1816 0.3131
5 0 -1 0.0537 5.0006 -0.0001 -1.0002 -0.2457 0.2804 0.2242
1 -1 5 0.0724 1.0001 -1.0004 5.0005 0.2161 0.2848 -0.0453
1 0 -5 0.0437 1.0001 0.0002 -5.0006 -0.3192 -0.1038 0.0770
3 0 -5 0.0368 3.0003 0.0002 -5.0006 -0.3950 0.0217 0.1640
0 -4 -5 0.1415 -0.0001 -4.0004 -5.0008 -0.3904 0.0556 -0.1876
-5 0 1 0.0712 -5.0006 0.0001 1.0002 0.2457 -0.2804 -0.2242
-1 0 -5 0.0722 -1.0002 0.0003 -5.0006 -0.2434 -0.2293 -0.0100
5 0 4 0.0716 5.0006 -0.0003 4.0004 0.0356 0.4469 0.1907
3 5 -3 0.1510 3.0005 5.0009 -3.0002 -0.1460 -0.1894 0.4270
1 0 -1 0.0425 1.0001 0.0000 -1.0001 -0.0941 0.0294 0.0502
-1 0 5 0.0597 -1.0001 -0.0002 5.0006 0.3192 0.1038 -0.0770
4 5 0 0.1869 4.0006 5.0007 0.0002 -0.0151 -0.0267 0.4504
-2 -5 1 0.1927 -2.0004 -5.0008 0.9999 -0.0044 0.1855 -0.3701
-4 -5 -1 0.2037 -4.0007 -5.0006 -1.0003 -0.0411 -0.0066 -0.4437
0 -5 -1 0.1922 -0.0002 -5.0007 -1.0003 -0.1927 0.2444 -0.2696
loop_
_geom_angle_atom_site_label_1
_geom_angle_atom_site_label_2
_geom_angle_atom_site_label_3
_geom_angle
_geom_angle_site_symmetry_3
C2 C1 C5 107.7(2) .
C2 C1 C6 127.7(2) .
C2 C1 Rh1 70.65(13) .
C5 C1 C6 124.6(2) .
C5 C1 Rh1 68.92(13) .
C6 C1 Rh1 126.51(16) .
C1 C2 C3 108.56(19) .
C1 C2 C7 127.2(2) .
C1 C2 Rh1 70.42(13) .
C3 C2 C7 124.2(2) .
C3 C2 Rh1 70.26(13) .
C7 C2 Rh1 125.32(16) .
C2 C3 C8 127.4(2) .
C2 C3 Rh1 70.44(13) .
C4 C3 C2 107.7(2) .
C4 C3 C8 124.8(2) .
C4 C3 Rh1 70.91(13) .
C8 C3 Rh1 127.57(16) .
C3 C4 C5 108.40(19) .
C3 C4 C9 124.6(2) .
C3 C4 Rh1 70.25(12) .
C5 C4 C9 127.0(2) .
C5 C4 Rh1 68.71(12) .
C9 C4 Rh1 126.63(17) .
C1 C5 C10 125.6(2) .
C1 C5 Rh1 71.26(12) .
C4 C5 C1 107.53(19) .
C4 C5 C10 126.7(2) .
C4 C5 Rh1 71.76(12) .
C10 C5 Rh1 126.36(17) .
C1 C6 H6A 109.5 .
C1 C6 H6B 109.5 .
C1 C6 H6C 109.5 .
H6A C6 H6B 109.5 .
H6A C6 H6C 109.5 .
H6B C6 H6C 109.5 .
C2 C7 H7A 109.5 .
C2 C7 H7B 109.5 .
C2 C7 H7C 109.5 .
H7A C7 H7B 109.5 .
H7A C7 H7C 109.5 .
H7B C7 H7C 109.5 .
C3 C8 H8A 109.5 .
C3 C8 H8B 109.5 .
C3 C8 H8C 109.5 .
H8A C8 H8B 109.5 .
H8A C8 H8C 109.5 .
H8B C8 H8C 109.5 .
C4 C9 H9A 109.5 .
C4 C9 H9B 109.5 .
C4 C9 H9C 109.5 .
H9A C9 H9B 109.5 .
H9A C9 H9C 109.5 .
H9B C9 H9C 109.5 .
C5 C10 H10A 109.2 .
C5 C10 H10B 109.2 .
C5 C10 C11 112.0(2) .
H10A C10 H10B 107.9 .
C11 C10 H10A 109.2 .
C11 C10 H10B 109.2 .
C10 C11 H11A 109.4 .
C10 C11 H11B 109.4 .
H11A C11 H11B 108.0 .
C12 C11 C10 111.1(2) .
C12 C11 H11A 109.4 .
C12 C11 H11B 109.4 .
C11 C12 H12A 109.5 .
C11 C12 H12B 109.5 .
C11 C12 H12C 109.5 .
H12A C12 H12B 109.5 .
H12A C12 H12C 109.5 .
H12B C12 H12C 109.5 .
Rh1 Cl2 Rh1 96.53(2) 2_666
C1 Rh1 C2 38.93(9) .
C1 Rh1 C3 65.89(9) .
C1 Rh1 C4 65.77(9) .
C1 Rh1 Cl1 94.07(6) .
C1 Rh1 Cl2 124.34(6) 2_666
C1 Rh1 Cl2 151.91(6) .
C2 Rh1 C4 65.27(8) .
C2 Rh1 Cl1 122.67(6) .
C2 Rh1 Cl2 95.35(6) 2_666
C2 Rh1 Cl2 147.80(6) .
C3 Rh1 C2 39.29(8) .
C3 Rh1 C4 38.84(8) .
C3 Rh1 Cl1 159.86(6) .
C3 Rh1 Cl2 109.02(6) .
C3 Rh1 Cl2 99.89(6) 2_666
C4 Rh1 Cl1 135.96(6) .
C4 Rh1 Cl2 134.27(6) 2_666
C4 Rh1 Cl2 92.65(6) .
C5 Rh1 C1 39.82(8) .
C5 Rh1 C2 66.15(9) .
C5 Rh1 C3 66.34(9) .
C5 Rh1 C4 39.53(9) .
C5 Rh1 Cl1 99.95(7) .
C5 Rh1 Cl2 161.50(7) 2_666
C5 Rh1 Cl2 112.13(6) .
Cl1 Rh1 Cl2 89.53(2) .
Cl1 Rh1 Cl2 89.68(2) 2_666
Cl2 Rh1 Cl2 83.47(2) 2_666
H13A C13 H13B 107.9 .
Cl3 C13 H13A 109.1 .
Cl3 C13 H13B 109.1 .
Cl3 C13 Cl4 112.33(17) .
Cl4 C13 H13A 109.1 .
Cl4 C13 H13B 109.1 .
loop_
_geom_bond_atom_site_label_1
_geom_bond_atom_site_label_2
_geom_bond_distance
_geom_bond_site_symmetry_2
C1 C2 1.430(3) .
C1 C5 1.450(3) .
C1 C6 1.494(3) .
C1 Rh1 2.145(2) .
C2 C3 1.444(3) .
C2 C7 1.501(3) .
C2 Rh1 2.148(2) .
C3 C4 1.430(3) .
C3 C8 1.496(3) .
C3 Rh1 2.146(2) .
C4 C5 1.444(3) .
C4 C9 1.492(3) .
C4 Rh1 2.154(2) .
C5 C10 1.494(3) .
C5 Rh1 2.114(2) .
C6 H6A 0.9800 .
C6 H6B 0.9800 .
C6 H6C 0.9800 .
C7 H7A 0.9800 .
C7 H7B 0.9800 .
C7 H7C 0.9800 .
C8 H8A 0.9800 .
C8 H8B 0.9800 .
C8 H8C 0.9800 .
C9 H9A 0.9800 .
C9 H9B 0.9800 .
C9 H9C 0.9800 .
C10 H10A 0.9900 .
C10 H10B 0.9900 .
C10 C11 1.531(3) .
C11 H11A 0.9900 .
C11 H11B 0.9900 .
C11 C12 1.529(4) .
C12 H12A 0.9800 .
C12 H12B 0.9800 .
C12 H12C 0.9800 .
Cl1 Rh1 2.4040(6) .
Cl2 Rh1 2.4546(6) 2_666
Cl2 Rh1 2.4478(6) .
Rh1 Cl2 2.4546(6) 2_666
C13 H13A 0.9900 .
C13 H13B 0.9900 .
C13 Cl3 1.748(4) .
C13 Cl4 1.771(3) .
loop_
_geom_torsion_atom_site_label_1
_geom_torsion_atom_site_label_2
_geom_torsion_atom_site_label_3
_geom_torsion_atom_site_label_4
_geom_torsion
C1 C2 C3 C4 1.2(3)
C1 C2 C3 C8 176.9(2)
C1 C2 C3 Rh1 -60.26(16)
C1 C5 C10 C11 82.7(3)
C2 C1 C5 C4 -2.7(3)
C2 C1 C5 C10 -177.9(2)
C2 C1 C5 Rh1 60.30(16)
C2 C3 C4 C5 -2.9(3)
C2 C3 C4 C9 177.3(2)
C2 C3 C4 Rh1 -61.15(16)
C3 C4 C5 C1 3.5(3)
C3 C4 C5 C10 178.6(2)
C3 C4 C5 Rh1 -59.22(15)
C4 C5 C10 C11 -91.6(3)
C5 C1 C2 C3 1.0(3)
C5 C1 C2 C7 -179.2(2)
C5 C1 C2 Rh1 -59.21(16)
C5 C10 C11 C12 -179.1(2)
C6 C1 C2 C3 -178.1(2)
C6 C1 C2 C7 1.7(4)
C6 C1 C2 Rh1 121.7(2)
C6 C1 C5 C4 176.4(2)
C6 C1 C5 C10 1.2(4)
C6 C1 C5 Rh1 -120.6(2)
C7 C2 C3 C4 -178.6(2)
C7 C2 C3 C8 -3.0(4)
C7 C2 C3 Rh1 119.9(2)
C8 C3 C4 C5 -178.7(2)
C8 C3 C4 C9 1.5(4)
C8 C3 C4 Rh1 123.0(2)
C9 C4 C5 C1 -176.8(2)
C9 C4 C5 C10 -1.7(4)
C9 C4 C5 Rh1 120.5(2)
Rh1 C1 C2 C3 60.16(16)
Rh1 C1 C2 C7 -120.0(2)
Rh1 C1 C5 C4 -63.02(15)
Rh1 C1 C5 C10 121.8(2)
Rh1 C2 C3 C4 61.45(16)
Rh1 C2 C3 C8 -122.9(2)
Rh1 C3 C4 C5 58.26(15)
Rh1 C3 C4 C9 -121.5(2)
Rh1 C4 C5 C1 62.69(15)
Rh1 C4 C5 C10 -122.2(2)
Rh1 C5 C10 C11 174.76(17)
