#------------------------------------------------------------------------------
#$Date: 2019-11-24 11:17:33 +0200 (Sun, 24 Nov 2019) $
#$Revision: 237770 $
#$URL: file:///home/coder/svn-repositories/cod/cif/4/08/86/4088692.cif $
#------------------------------------------------------------------------------
#
# This file is available in the Crystallography Open Database (COD),
# http://www.crystallography.net/
#
# All data on this site have been placed in the public domain by the
# contributors.
#
data_4088692
loop_
_publ_author_name
'Tanaka, Naoki'
'Shoji, Yoshiaki'
'Fukushima, Takanori'
_publ_section_title
;
 Convenient Route to Monocarba-closo-dodecaborate Anions
;
_journal_issue                   11
_journal_name_full               Organometallics
_journal_page_first              2022
_journal_paper_doi               10.1021/acs.organomet.6b00309
_journal_volume                  35
_journal_year                    2016
_chemical_formula_sum            'C4 H24 B9 N'
_chemical_formula_weight         183.53
_space_group_crystal_system      monoclinic
_space_group_IT_number           4
_space_group_name_Hall           'P 2yb'
_space_group_name_H-M_alt        'P 1 21 1'
_atom_sites_solution_hydrogens   mixed
_audit_creation_method           SHELXL-2014/6
_cell_angle_alpha                90
_cell_angle_beta                 100.2780(10)
_cell_angle_gamma                90
_cell_formula_units_Z            2
_cell_length_a                   6.4166(5)
_cell_length_b                   10.3935(8)
_cell_length_c                   9.5956(7)
_cell_measurement_reflns_used    4531
_cell_measurement_temperature    90
_cell_measurement_theta_max      29.18
_cell_measurement_theta_min      2.91
_cell_volume                     629.67(8)
_computing_cell_refinement       'APEX2 (Bruker AXS, 2006)'
_computing_data_collection       'APEX2 (Bruker AXS, 2006)'
_computing_data_reduction        'SAINT (Bruker AXS, 2004)'
_computing_molecular_graphics    'XSHELL (Bruker AXS,2002)'
_computing_publication_material  'XCIF (Bruker AXS, 2001)'
_computing_structure_refinement  'SHELXL-2014 (Sheldrick, 2014)'
_computing_structure_solution    'SHELXT (Sheldrick, 2014)'
_diffrn_ambient_temperature      90
_diffrn_detector_area_resol_mean 8.333
_diffrn_measured_fraction_theta_full 0.976
_diffrn_measured_fraction_theta_max 0.998
_diffrn_measurement_device_type  'Bruker APEXII CCD area detector'
_diffrn_measurement_method       'phi and omega scans'
_diffrn_radiation_monochromator  'Bruker Helios multilayer confocal mirror'
_diffrn_radiation_source         'Bruker TXS fine-focus rotating anode'
_diffrn_radiation_type           MoK\a
_diffrn_radiation_wavelength     0.71073
_diffrn_reflns_av_R_equivalents  0.0115
_diffrn_reflns_av_unetI/netI     0.0152
_diffrn_reflns_Laue_measured_fraction_full 0.976
_diffrn_reflns_Laue_measured_fraction_max 0.998
_diffrn_reflns_limit_h_max       7
_diffrn_reflns_limit_h_min       -7
_diffrn_reflns_limit_k_max       12
_diffrn_reflns_limit_k_min       -12
_diffrn_reflns_limit_l_max       10
_diffrn_reflns_limit_l_min       -11
_diffrn_reflns_number            4578
_diffrn_reflns_point_group_measured_fraction_full 0.968
_diffrn_reflns_point_group_measured_fraction_max 0.991
_diffrn_reflns_theta_full        25.242
_diffrn_reflns_theta_max         25.026
_diffrn_reflns_theta_min         2.157
_exptl_absorpt_coefficient_mu    0.044
_exptl_absorpt_correction_T_max  0.995
_exptl_absorpt_correction_T_min  0.957
_exptl_absorpt_correction_type   multi-scan
_exptl_absorpt_process_details
;
SADABS Sheldrick 1996
;
_exptl_crystal_colour            colorless
_exptl_crystal_density_diffrn    0.968
_exptl_crystal_description       block
_exptl_crystal_F_000             200
_exptl_crystal_size_max          0.220
_exptl_crystal_size_mid          0.180
_exptl_crystal_size_min          0.110
_refine_diff_density_max         0.138
_refine_diff_density_min         -0.116
_refine_diff_density_rms         0.027
_refine_ls_abs_structure_details
;
 Flack x determined using 998 quotients [(I+)-(I-)]/[(I+)+(I-)]
 (Parsons, Flack and Wagner, Acta Cryst. B69 (2013) 249-259).
;
_refine_ls_abs_structure_Flack   0.5(4)
_refine_ls_extinction_method     none
_refine_ls_goodness_of_fit_ref   1.084
_refine_ls_hydrogen_treatment    mixed
_refine_ls_matrix_type           full
_refine_ls_number_parameters     190
_refine_ls_number_reflns         2208
_refine_ls_number_restraints     1
_refine_ls_restrained_S_all      1.084
_refine_ls_R_factor_all          0.0306
_refine_ls_R_factor_gt           0.0301
_refine_ls_shift/su_max          0.000
_refine_ls_shift/su_mean         0.000
_refine_ls_structure_factor_coef Fsqd
_refine_ls_weighting_details
'w=1/[\s^2^(Fo^2^)+(0.0587P)^2^+0.0565P] where P=(Fo^2^+2Fc^2^)/3'
_refine_ls_weighting_scheme      calc
_refine_ls_wR_factor_gt          0.0850
_refine_ls_wR_factor_ref         0.0857
_reflns_Friedel_coverage         0.873
_reflns_Friedel_fraction_full    0.959
_reflns_Friedel_fraction_max     0.984
_reflns_number_gt                2175
_reflns_number_total             2208
_reflns_threshold_expression     'I > 2\s(I)'
_cod_data_source_file            om6b00309_si_002.cif
_cod_data_source_block           arachno_Me3NH
_cod_original_sg_symbol_H-M      'P 21'
_cod_database_code               4088692
_shelx_space_group_comment
;
The symmetry employed for this shelxl refinement is uniquely defined
by the following loop, which should always be used as a source of
symmetry information in preference to the above space-group names.
They are only intended as comments.
;
_shelx_estimated_absorpt_t_min   0.990
_shelx_estimated_absorpt_t_max   0.995
_shelxl_version_number           2014/6
_shelx_res_file
;
TITL arachno_0m_0302_a.res in P2(1)
CELL  0.71073   6.4166  10.3935   9.5956   90.000  100.278   90.000
ZERR    2.000   0.0005   0.0008   0.0007    0.000    0.001    0.000
LATT -1
SYMM -X, 1/2+Y, -Z
SFAC C  H  B  N
UNIT 8  48  18  2
REM Old TITL arachno_0m_0302 in P2(1)
REM SHELXT solution in P2(1)
REM R1 0.143,  Rweak 0.035,  Alpha 0.003,  Orientation as input
REM Flack x=  0.330 ( 0.369 ) from Parsons' quotients
REM Formula found by SHELXT:  C5 B8 N
L.S. 30
ACTA
BOND $H
FMAP 2
PLAN 5
SIZE 0.169 0.172 0.259
Size 0.22 0.18 0.11
TEMP -183
WGHT    0.058700    0.056500
FVAR       1.60125
B1    3    0.492705    0.662011    0.279310    11.00000    0.03807    0.02012 =
         0.02131    0.00494   -0.01002   -0.01004
B2    3    0.337775    0.588107    0.128195    11.00000    0.03126    0.02353 =
         0.02045    0.00599   -0.00784   -0.00889
B3    3    0.489111    0.460365    0.074248    11.00000    0.02683    0.04432 =
         0.01317   -0.00082    0.00246   -0.01087
B4    3    0.279102    0.556790    0.295831    11.00000    0.01974    0.02126 =
         0.02189   -0.00097   -0.00107    0.00068
B5    3    0.276407    0.429601    0.166448    11.00000    0.01928    0.02201 =
         0.01590    0.00013   -0.00091   -0.00634
B6    3    0.513399    0.542732    0.426048    11.00000    0.01945    0.01818 =
         0.01372    0.00054    0.00056   -0.00106
B7    3    0.392547    0.403752    0.347339    11.00000    0.02041    0.01783 =
         0.01498    0.00070    0.00176   -0.00346
B8    3    0.509541    0.335861    0.214655    11.00000    0.02557    0.02511 =
         0.01888   -0.00615    0.00041    0.00064
B9    3    0.666384    0.394058    0.389501    11.00000    0.02423    0.02424 =
         0.01680   -0.00437   -0.00080    0.00306
C1    1    0.598082    0.606443    0.137217    11.00000    0.04000    0.04923 =
         0.01648    0.01048   -0.00226   -0.02695
C2    1    1.036049    0.615212    0.662677    11.00000    0.03805    0.02733 =
         0.04397    0.00770    0.00011   -0.00631
AFIX 137
H2A   2    0.928763    0.683279    0.653308    11.00000   -1.50000
H2B   2    1.095613    0.610364    0.575619    11.00000   -1.50000
H2C   2    1.149150    0.634588    0.742896    11.00000   -1.50000
AFIX   0
C3    1    1.092638    0.384162    0.694832    11.00000    0.03795    0.02613 =
         0.05432   -0.01072   -0.01483    0.01126
AFIX 137
H3A   2    1.206689    0.397631    0.776163    11.00000   -1.50000
H3B   2    1.152153    0.382331    0.607629    11.00000   -1.50000
H3C   2    1.021855    0.302180    0.705783    11.00000   -1.50000
AFIX   0
C4    1    0.837189    0.495321    0.814211    11.00000    0.02645    0.09815 =
         0.02182    0.00387    0.00565   -0.00601
AFIX 137
H4A   2    0.945170    0.513701    0.897708    11.00000   -1.50000
H4B   2    0.770472    0.412272    0.826543    11.00000   -1.50000
H4C   2    0.729489    0.563209    0.802691    11.00000   -1.50000
AFIX   0
N1    4    0.937309    0.490468    0.687155    11.00000    0.01474    0.02205 =
         0.01543   -0.00047   -0.00194   -0.00016
H2    2    0.725369    0.572067    0.190225    11.00000    0.04030
H5    2    0.473185    0.441882   -0.034557    11.00000    0.04021
H3    2    0.482925    0.766574    0.293279    11.00000    0.04203
H1    2    0.620229    0.664080    0.066212    11.00000    0.06788
H4    2    0.246894    0.651082    0.049639    11.00000    0.03728
H6    2    0.631544    0.614774    0.380993    11.00000    0.03831
H7    2    0.621022    0.388369    0.145636    11.00000    0.04412
H8    2    0.131030    0.591184    0.319669    11.00000    0.03458
H9    2    0.132434    0.386084    0.118322    11.00000    0.03191
H10   2    0.501040    0.575486    0.535437    11.00000    0.02392
H11   2    0.317487    0.342551    0.411144    11.00000    0.02626
H12   2    0.494518    0.240027    0.185321    11.00000    0.03234
H14   2    0.718061    0.320119    0.480255    11.00000    0.03152
H13   2    0.801363    0.437335    0.352523    11.00000    0.04211
H15   2    0.840815    0.478394    0.616477    11.00000    0.01958
HKLF 4

REM  arachno_0m_0302_a.res in P2(1)
REM R1 =  0.0301 for    2175 Fo > 4sig(Fo)  and  0.0306 for all    2208 data
REM    190 parameters refined using      1 restraints

END

WGHT      0.0587      0.0565

REM Highest difference peak  0.138,  deepest hole -0.116,  1-sigma level  0.027
Q1    1   0.5276  0.4579  0.4014  11.00000  0.05    0.14
Q2    1   0.3714  0.3954  0.2434  11.00000  0.05    0.13
Q3    1   0.4743  0.6155  0.1828  11.00000  0.05    0.13
Q4    1   0.5285  0.3801  0.3328  11.00000  0.05    0.12
Q5    1   0.2726  0.5246  0.2012  11.00000  0.05    0.12
;
_shelx_res_checksum              73857
_shelx_hkl_file
;
   1   0   0 1591.64   24.60
   1   0   0 1586.74   30.60
  -1   0   0 1638.94   24.80
   2   0   0 1257.27   20.20
  -2   0   0 1301.07   20.50
   2   0   0 1294.87   20.10
   3   0   0   32.70    0.80
   3   0   0   33.00    0.80
  -3   0   0   34.20    0.90
   4   0   0   85.49    1.70
   4   0   0   83.19    1.60
  -4   0   0   83.49    1.70
  -5   0   0  461.15    7.50
   5   0   0  452.05    7.30
   5   0   0  458.65    7.40
   6   0   0   69.99    1.70
  -6   0   0   71.59    1.80
   6   0   0   69.29    1.60
   0   1   0  -12.00    0.10
   0   1   0  -11.90    0.10
   0   1   0  -12.00    0.10
   1  -1   0   54.19    1.00
   1  -1   0   54.79    0.90
  -1  -1   0   54.59    0.90
   1   1   0   52.89    0.90
  -1   1   0   55.19    1.00
   1   1   0   54.49    1.00
   2  -1   0   63.89    1.20
  -2  -1   0   66.59    1.20
   2  -1   0   65.69    1.20
  -2   1   0   64.79    1.30
   2   1   0   67.19    1.20
   2   1   0   66.29    1.20
  -3  -1   0  227.08    3.60
   3  -1   0  221.68    3.60
   3  -1   0  217.68    3.70
  -3   1   0  219.18    3.70
   3   1   0  221.08    3.60
   3   1   0  227.58    3.60
   4  -1   0  119.69    2.20
   4  -1   0  121.19    2.20
  -4  -1   0  119.29    2.20
   4   1   0  118.79    2.20
  -4   1   0  118.99    2.30
   4   1   0  121.89    2.20
  -5  -1   0   16.10    0.80
   5  -1   0   14.70    0.70
   5  -1   0   15.10    0.70
  -5   1   0   14.80    0.80
   5   1   0   14.40    0.70
   5   1   0   16.40    0.70
   6  -1   0   35.00    1.10
   6  -1   0   34.80    1.10
  -6  -1   0   35.00    1.20
  -6   1   0   32.20    1.20
   6   1   0   32.40    1.10
   6   1   0   31.40    1.10
   7  -1   0  127.59    2.80
  -7   1   0  131.59    2.90
   0   2   0 7907.81  129.99
   0   2   0 7942.01  130.29
   0   2   0 8058.29  127.79
   1  -2   0  102.89    1.70
  -1  -2   0   99.99    1.60
   1   2   0  105.29    1.70
  -1   2   0  100.89    1.70
  -1   2   0  101.09    1.70
   1   2   0  100.59    1.70
   2  -2   0  139.69    2.30
  -2  -2   0  138.69    2.20
   2  -2   0  136.59    2.30
   2   2   0  137.89    2.30
  -2   2   0  136.89    2.40
   2   2   0  137.19    2.30
   3  -2   0   36.10    0.80
  -3  -2   0   37.00    0.80
   3  -2   0   36.90    0.90
  -3   2   0   38.10    1.00
   3   2   0   36.80    0.90
   3   2   0   38.00    0.90
   4  -2   0   43.50    1.10
   4  -2   0   43.00    1.10
  -4  -2   0   43.50    1.00
   4   2   0   41.60    1.10
   4   2   0   42.30    1.10
  -4   2   0   44.60    1.20
   5  -2   0   82.19    1.80
   5  -2   0   80.89    1.70
  -5  -2   0   79.89    1.70
  -5   2   0   82.89    1.90
   5   2   0   81.99    1.80
   5   2   0   82.89    1.80
   6  -2   0    5.10    0.60
   6  -2   0    5.30    0.80
   6   2   0    5.00    0.50
   6   2   0    5.70    0.60
  -6   2   0    4.70    0.60
   7  -2   0    7.30    0.70
  -7   2   0    6.30    0.80
   7   2   0    7.00    0.70
   0   3   0    0.10    0.20
   0   3   0    0.00    0.20
   0   3   0   -0.20    0.20
   1  -3   0  222.98    3.60
  -1  -3   0  220.48    3.40
   1   3   0  219.38    3.60
   1   3   0  221.08    3.60
  -1   3   0  227.88    3.60
  -1   3   0  222.48    3.60
   2  -3   0 1528.55   23.60
  -2  -3   0 1487.95   23.40
  -2   3   0 1517.85   24.30
   2   3   0 1524.95   23.60
   2   3   0 1529.55   24.20
  -3  -3   0  379.16    5.80
   3  -3   0  377.46    5.90
   3  -3   0  377.16    6.00
   3   3   0  375.96    5.90
  -3   3   0  371.36    6.10
   3   3   0  367.06    6.00
   4  -3   0  239.68    4.10
  -4  -3   0  240.18    3.90
   4  -3   0  238.58    4.00
   4   3   0  234.68    4.00
   4   3   0  237.18    4.10
  -4   3   0  237.68    4.20
   5  -3   0   29.90    1.00
   5  -3   0   27.40    0.90
   5   3   0   28.90    0.90
   5   3   0   28.80    1.00
  -5   3   0   27.70    1.10
   6  -3   0   39.30    1.30
   6   3   0   40.60    1.30
  -6   3   0   42.10    1.50
   7  -3   0  110.79    2.60
   7   3   0  113.49    2.50
  -7   3   0  116.09    2.80
   0   4   0 1652.13   26.20
   0   4   0 1667.73   25.90
   0   4   0 1661.13   26.30
   1  -4   0  245.28    4.00
  -1  -4   0  246.98    3.90
  -1   4   0  255.17    4.10
  -1   4   0  249.28    4.10
   1   4   0  249.48    4.10
   1   4   0  247.38    4.00
   2  -4   0    0.20    0.20
  -2  -4   0   -0.10    0.10
   2   4   0   -0.20    0.20
  -2   4   0    0.00    0.30
   2   4   0   -0.10    0.30
  -2   4   0   -0.30    0.30
   3  -4   0  278.27    4.50
  -3  -4   0  278.17    4.30
   3  -4   0  270.37    4.60
   3   4   0  280.37    4.50
  -3   4   0  275.27    4.70
   3   4   0  277.67    4.60
   4  -4   0   81.79    1.70
   4  -4   0   83.49    1.80
   4   4   0   83.79    1.80
  -4   4   0   83.29    1.90
   4   4   0   80.69    1.70
   5  -4   0    5.00    0.60
   5  -4   0    5.80    0.50
  -5   4   0    5.70    0.70
   5   4   0    5.70    0.60
   5   4   0    4.70    0.50
   6  -4   0   11.70    0.90
  -6   4   0   12.20    1.00
   6   4   0   10.40    0.80
   7  -4   0    1.40    0.60
   7   4   0    1.20    0.50
  -7   4   0    2.00    0.60
   1  -5   0  544.55    8.40
   1   5   0  540.05    8.40
   1   5   0  534.95    8.30
  -1   5   0  525.95    8.40
  -1   5   0  530.25    8.40
   1   5   0  534.45    8.20
  -2  -5   0  663.53   10.00
   2  -5   0  652.73   10.10
  -2   5   0  655.73   10.20
   2   5   0  635.94   10.20
  -2   5   0  645.44   10.20
   2   5   0  651.73   10.10
   3  -5   0  184.28    3.20
   3  -5   0  187.88    3.30
   3   5   0  182.88    3.30
   3   5   0  189.48    3.20
  -3   5   0  179.58    3.40
   4  -5   0  145.19    2.60
   4  -5   0  145.69    2.80
  -4   5   0  136.79    2.90
   4   5   0  145.79    2.70
   4   5   0  145.89    2.80
   5  -5   0   36.70    1.20
   5   5   0   36.80    1.60
  -5   5   0   39.50    1.40
   5   5   0   37.70    1.20
   6  -5   0    9.90    0.90
   6   5   0   10.00    0.80
  -6   5   0   10.10    0.90
   0   6   0  149.69    2.70
   0   6   0  159.58    2.70
   0   6   0  153.88    2.80
   1  -6   0  143.19    2.60
   1   6   0  139.49    2.60
  -1   6   0  144.49    2.70
   1   6   0  147.99    2.60
   1   6   0  149.99    2.40
  -1   6   0  146.09    2.60
   2  -6   0  405.76    6.50
  -2   6   0  419.66    6.60
   2   6   0  400.96    6.50
  -2   6   0  392.16    6.60
   2   6   0  399.56    6.60
   3  -6   0  363.86    6.00
   3  -6   0  374.46    6.20
   3   6   0  376.86    6.10
  -3   6   0  372.26    6.30
   3   6   0  377.86    6.20
   4  -6   0  110.79    2.20
   4  -6   0  112.69    2.40
   4   6   0  111.49    2.20
   4   6   0  110.09    2.30
  -4   6   0  112.49    2.50
   5  -6   0   49.60    1.50
   5   6   0   49.70    1.50
  -5   6   0   48.20    1.60
   6  -6   0   15.50    1.00
   6   6   0   15.90    1.00
  -6   6   0   14.20    1.10
   1  -7   0  232.68    4.00
  -1   7   0  227.68    4.00
  -1   7   0  233.28    4.00
   1   7   0  234.18    4.00
   1   7   0  222.68    4.00
   1   7   0  232.38    3.80
   2  -7   0   14.20    0.70
   2   7   0   14.90    0.70
   2   7   0   14.60    0.70
  -2   7   0   13.40    0.70
  -2   7   0   14.90    0.80
   3  -7   0   45.30    1.20
  -3   7   0   49.30    1.40
   3   7   0   46.10    1.20
   3   7   0   46.80    1.40
   4  -7   0   55.39    1.40
   4  -7   0   52.89    1.50
   4   7   0   53.39    1.40
  -4   7   0   53.09    1.60
   4   7   0   54.79    1.50
   5  -7   0   10.50    0.90
   5   7   0   11.10    0.90
  -5   7   0   14.00    1.00
   6  -7   0    3.80    0.70
   6   7   0    3.40    0.60
  -6   7   0    3.40    0.70
   0  -8   0   47.20    1.30
   0   8   0   44.40    1.20
   0   8   0   45.10    1.10
   1  -8   0  343.27    5.70
  -1   8   0  336.77    5.60
  -1   8   0  337.77    5.70
   1   8   0  335.37    5.70
   1   8   0  338.27    5.70
   2  -8   0   99.69    2.10
  -2   8   0   97.59    2.20
   2   8   0  100.79    2.10
  -2   8   0  102.99    2.20
   2   8   0   95.29    2.10
   3  -8   0   24.00    0.90
   3   8   0   23.50    1.00
  -3   8   0   25.20    1.10
   3   8   0   24.70    0.90
   4  -8   0  160.08    3.20
  -4   8   0  150.68    3.20
   4   8   0  148.19    3.10
   5  -8   0   51.69    1.60
  -5   8   0   51.39    1.80
   5   8   0   50.99    1.60
   0  -9   0    1.30    0.40
   0   9   0    1.50    0.40
   1  -9   0   50.69    1.40
   1   9   0   49.20    1.40
  -1   9   0   50.59    1.50
   1   9   0   50.79    1.40
  -1   9   0   52.19    1.40
   2  -9   0   37.40    1.20
   2   9   0   36.60    1.20
  -2   9   0   36.70    1.30
   2   9   0   36.10    1.30
  -2   9   0   36.10    1.20
   3  -9   0   40.50    1.20
   3   9   0   40.40    1.30
  -3   9   0   40.00    1.40
   3   9   0   41.30    1.30
   4  -9   0   14.20    1.00
  -4   9   0   15.60    1.10
   4   9   0   13.20    0.90
   5  -9   0    0.90    0.50
  -5   9   0    1.20    0.60
   5   9   0    1.40    0.60
   0 -10   0   42.20    1.40
   0  10   0   41.20    1.40
   1 -10   0  116.19    2.50
   1  10   0  111.49    2.50
   1  10   0  108.89    2.40
  -1  10   0  114.59    2.50
   2 -10   0    7.80    0.70
   2  10   0    9.70    0.80
   2  10   0    7.00    0.70
  -2  10   0    7.90    0.70
  -2  10   0    6.10    0.70
   3 -10   0  201.88    3.80
   3  10   0  193.98    3.90
  -3  10   0  202.78    4.00
   4 -10   0  316.77    5.90
  -4  10   0  330.77    6.00
   4  10   0  325.97    5.90
   0 -11   0    1.10    0.50
   0  11   0    2.40    0.50
   1 -11   0    0.20    0.50
  -1 -11   0    1.20    0.60
   1  11   0    0.70    0.50
  -1  11   0    0.70    0.50
   2 -11   0   38.30    1.30
   2  11   0   34.30    1.30
  -2  11   0   36.90    1.40
   2  11   0   38.50    1.40
   3  11   0   15.70    1.10
  -3  11   0   16.90    1.20
   0 -12   0   55.29    1.70
   0  12   0   52.19    1.70
  -1 -12   0   16.40    1.10
   1 -12   0   17.20    1.10
  -1  12   0   16.90    1.10
   1  12   0   16.60    1.10
   7   0  -1    6.60    0.70
   6   0  -1    2.70    0.50
   6   0  -1    2.90    0.60
  -6   0   1    2.90    0.50
  -5   0   1   18.20    0.80
   5   0  -1   18.00    0.80
   5   0  -1   18.80    0.70
   4   0  -1   26.10    0.70
   4   0  -1   25.70    0.80
  -4   0   1   27.30    0.80
   3   0  -1  409.06    6.50
  -3   0   1  413.06    6.50
   3   0  -1  411.06    6.40
  -2   0   1   98.79    1.70
   2   0  -1   96.99    1.60
   2   0  -1   96.49    1.70
   1   0  -1   57.29    0.90
  -1   0   1   58.19    1.00
   1   0  -1   57.89    1.00
   0   0   1  215.88    3.60
   0   0  -1  230.88    3.70
   0   0  -1  228.18    3.80
   1   0   1 2572.14   39.30
   1   0   1 2540.85   42.00
  -1   0  -1 2585.74   39.50
   2   0   1  219.78    3.50
   2   0   1  215.28    3.40
  -2   0  -1  212.98    3.50
  -3   0  -1   29.40    0.90
   3   0   1   28.80    0.80
   3   0   1   29.30    0.70
   4   0   1   23.10    0.70
   4   0   1   21.40    0.70
  -4   0  -1   21.90    0.80
   5   0   1    1.00    0.40
   5   0   1    1.60    0.40
  -5   0  -1    1.00    0.40
  -6   0  -1   16.60    0.90
   6   0   1   18.20    0.90
  -7   0  -1   17.70    1.10
   7   0   1   17.70    1.00
   7  -1  -1   17.10    1.00
   7   1  -1   16.80    1.00
  -7   1   1   17.70    1.10
   6  -1  -1   84.09    2.00
   6   1  -1   85.49    1.90
   6   1  -1   85.69    1.80
  -6   1   1   83.49    2.00
  -5  -1   1   77.19    1.70
   5  -1  -1   76.19    1.60
   5  -1  -1   74.69    1.70
   5   1  -1   76.79    1.60
   5   1  -1   76.69    1.70
  -5   1   1   77.89    1.80
   4  -1  -1   11.30    0.60
  -4  -1   1   11.90    0.60
   4  -1  -1   12.60    0.50
   4   1  -1   12.40    0.50
  -4   1   1   11.70    0.60
   4   1  -1   11.50    0.60
   3  -1  -1  265.07    4.30
  -3  -1   1  264.57    4.20
   3  -1  -1  262.37    4.10
   3   1  -1  255.27    4.20
   3   1  -1  261.87    4.20
  -3   1   1  252.67    4.30
   2  -1  -1   96.99    1.60
  -2  -1   1   97.39    1.60
   2  -1  -1   96.09    1.70
   2   1  -1   96.59    1.60
   2   1  -1   94.29    1.70
  -2   1   1   96.79    1.70
  -1  -1   1 9655.03  148.19
   1  -1  -1 9999.00  154.78
  -1   1   1 8937.01  156.58
   1   1  -1 9537.05  155.08
   1   1  -1 9786.32  152.28
   0  -1  -1  663.63   10.40
   0  -1  -1  644.04   10.00
   0  -1   1  648.14   10.20
   0   1  -1  647.44   10.30
   0   1  -1  650.43   10.20
   0   1   1  646.84   10.20
   1  -1   1 8284.17  132.89
  -1  -1  -1 8298.17  133.99
   1   1   1 7841.02  125.19
  -1   1  -1 8000.60  135.69
   1   1   1 7899.11  133.09
  -1   1  -1 8056.19  131.59
   2  -1   1  525.95    8.10
  -2  -1  -1  520.65    8.10
   2  -1   1  524.65    8.10
  -2   1  -1  534.75    8.20
   2   1   1  525.65    8.10
   2   1   1  526.55    8.10
  -3  -1  -1   21.40    0.70
   3  -1   1   23.20    0.70
   3  -1   1   22.20    0.60
   3   1   1   21.40    0.70
  -3   1  -1   22.40    0.80
   3   1   1   21.60    0.60
   4  -1   1  230.48    3.90
   4  -1   1  224.08    3.80
  -4  -1  -1  224.58    3.90
   4   1   1  230.48    3.80
  -4   1  -1  232.98    4.00
   4   1   1  229.88    3.90
  -5  -1  -1   41.90    1.20
   5  -1   1   42.90    1.20
   5  -1   1   43.50    1.20
   5   1   1   43.00    1.10
  -5   1  -1   43.70    1.30
   5   1   1   42.90    1.20
   6  -1   1    7.30    0.60
  -6  -1  -1    7.10    0.70
   6  -1   1    8.10    0.70
  -6   1  -1    8.90    0.80
   6   1   1    7.80    0.70
  -7   1  -1   66.29    1.90
   7   1   1   68.79    1.80
   7  -2  -1   25.30    1.20
  -7   2   1   23.60    1.20
   7   2  -1   22.30    1.70
   6  -2  -1   90.09    2.10
  -6   2   1   89.29    2.20
   6   2  -1   90.89    2.00
   6   2  -1   90.99    2.00
   5  -2  -1   27.50    0.80
  -5  -2   1   27.00    0.90
   5  -2  -1   28.20    1.00
   5   2  -1   26.70    1.00
   5   2  -1   27.80    0.90
  -5   2   1   28.30    1.00
   4  -2  -1  175.98    3.10
  -4  -2   1  174.38    2.90
   4  -2  -1  171.58    2.90
   4   2  -1  168.58    3.00
  -4   2   1  172.58    3.20
   4   2  -1  173.08    3.00
  -3  -2   1  107.19    1.80
   3  -2  -1  106.29    2.00
   3  -2  -1  106.69    1.80
  -3   2   1  100.99    2.00
   3   2  -1  104.59    1.90
   3   2  -1  104.89    1.90
   2  -2  -1  119.39    2.10
  -2  -2   1  119.79    1.90
   2  -2  -1  122.79    1.90
  -2   2   1  121.09    2.10
   2   2  -1  114.79    2.10
   2   2  -1  120.79    2.00
   1  -2  -1  735.23   11.60
   1   2  -1  727.63   11.90
   1   2  -1  757.42   12.00
   0  -2   1   66.29    1.20
   0   2  -1   64.79    1.20
   0   2  -1   66.19    1.10
   0   2   1   64.39    1.10
   0   2   1   67.59    1.10
   0   2   1   63.69    1.20
  -1  -2  -1 1347.37   20.70
   1  -2   1 1306.57   20.70
   1   2   1 1328.37   20.40
   1   2   1 1328.07   20.80
  -1   2  -1 1312.67   20.80
  -1   2  -1 1331.17   21.00
  -2  -2  -1 1031.70   16.60
   2  -2   1 1030.30   16.60
  -2   2  -1 1035.60   16.20
   2   2   1 1053.69   16.20
   2   2   1 1049.09   16.80
  -3  -2  -1  481.95    7.60
   3  -2   1  487.05    7.70
   3  -2   1  488.45    7.60
   3   2   1  494.25    7.60
   3   2   1  493.05    7.70
  -3   2  -1  487.85    7.80
  -4  -2  -1  653.93   10.00
   4  -2   1  634.64   10.00
   4  -2   1  641.74   10.00
  -4   2  -1  637.54   10.20
   4   2   1  655.63    9.90
   4   2   1  609.34   10.00
   5  -2   1  125.69    2.50
   5  -2   1  127.59    2.50
  -5  -2  -1  124.89    2.50
  -5   2  -1  130.19    2.70
   5   2   1  128.09    2.50
   5   2   1  126.59    2.40
   6  -2   1   24.60    0.90
   6  -2   1   23.10    1.00
   6   2   1   25.50    1.00
  -6   2  -1   23.20    1.10
  -7   2  -1   19.90    1.20
   7   2   1   18.00    1.00
   7  -3  -1   14.30    1.10
  -7   3   1   15.00    1.10
   6  -3  -1   30.90    1.20
   6   3  -1   30.90    1.10
  -6   3   1   31.20    1.30
   6   3  -1   29.60    1.10
   5  -3  -1   44.10    1.30
   5   3  -1   45.40    1.20
  -5   3   1   43.40    1.40
   5   3  -1   45.30    1.20
  -4  -3   1   11.60    0.50
   4  -3  -1   11.40    0.50
   4  -3  -1   11.10    0.60
   4   3  -1   10.60    0.60
   4   3  -1   11.30    0.60
  -4   3   1   11.70    0.70
   3  -3  -1   55.89    1.30
   3  -3  -1   56.29    1.10
  -3  -3   1   55.39    1.00
  -3   3   1   54.59    1.30
   3   3  -1   55.39    1.20
   3   3  -1   56.39    1.20
   2  -3  -1  109.49    2.00
   2  -3  -1  110.59    1.80
   2   3  -1  110.29    2.00
   2   3  -1  109.69    2.00
   1  -3  -1  283.27    4.40
  -1   3   1  279.37    4.50
  -1   3   1  279.57    4.50
   1   3  -1  283.67    4.50
   0  -3   1  815.42   13.30
   0   3   1  829.12   13.40
   0   3  -1  828.82   13.00
   0   3   1  826.12   13.30
   0   3  -1  866.51   13.60
   0   3   1  848.62   13.30
   1  -3   1  285.57    4.70
  -1  -3  -1  291.47    4.60
   1   3   1  294.67    4.60
  -1   3  -1  295.97    4.70
  -1   3  -1  295.47    4.70
   1   3   1  301.17    4.70
  -2  -3  -1  165.18    2.70
   2  -3   1  164.68    2.80
  -2   3  -1  166.98    2.90
   2   3   1  167.78    2.70
  -2   3  -1  164.88    2.80
   2   3   1  166.48    2.80
   3  -3   1  483.05    7.50
  -3  -3  -1  476.45    7.40
   3  -3   1  479.05    7.50
   3   3   1  467.45    7.60
   3   3   1  481.95    7.40
  -3   3  -1  472.25    7.70
   4  -3   1   67.69    1.50
  -4  -3  -1   69.49    1.50
   4  -3   1   68.09    1.50
   4   3   1   69.89    1.60
   4   3   1   67.69    1.40
  -4   3  -1   66.89    1.70
   5  -3   1  143.79    2.70
   5  -3   1  142.39    2.70
   5   3   1  140.99    2.80
  -5   3  -1  141.79    2.90
   6  -3   1   21.50    0.90
   6  -3   1   23.70    1.00
   6   3   1   22.50    1.00
  -6   3  -1   21.40    1.10
   7   3   1   37.50    1.40
  -7   3  -1   39.70    1.60
   7  -4  -1   21.90    1.20
   7   4  -1   23.40    1.10
  -7   4   1   22.70    1.30
   6  -4  -1   42.30    1.40
   6   4  -1   41.10    1.30
  -6   4   1   40.40    1.50
   6   4  -1   41.50    1.30
   5  -4  -1   37.70    1.20
   5   4  -1   37.30    1.10
  -5   4   1   38.70    1.30
   5   4  -1   37.30    1.20
   4  -4  -1  133.29    2.30
   4  -4  -1  136.19    2.60
   4   4  -1  130.49    2.50
  -4   4   1  131.09    2.70
   4   4  -1  133.99    2.50
   3  -4  -1  406.16    6.50
   3  -4  -1  409.06    6.30
  -3  -4   1  367.16    6.10
   3   4  -1  410.36    6.40
  -3   4   1  408.06    6.60
   3   4  -1  401.16    6.40
   2  -4  -1  501.15    8.00
   2  -4  -1  506.25    7.90
   2   4  -1  501.45    8.00
  -2   4   1  516.85    8.10
   2   4  -1  526.95    8.00
   1  -4  -1  862.11   13.40
  -1   4   1  851.61   13.70
  -1   4   1  846.12   13.40
   1   4  -1  872.81   13.60
   1   4  -1  862.71   13.80
   1   4  -1  880.11   15.90
   0   4   1  157.18    2.60
   0   4   1  159.58    2.60
   0   4  -1  160.28    2.60
   0   4  -1  160.58    2.70
   0   4   1  155.18    2.60
   1  -4   1  297.17    4.80
  -1  -4  -1  302.67    4.70
  -1   4  -1  301.47    4.80
   1   4   1  300.17    4.80
  -1   4  -1  304.77    4.90
   1   4   1  299.17    4.70
  -2  -4  -1  366.66    5.70
   2  -4   1  362.26    5.80
  -2   4  -1  364.86    5.90
   2   4   1  367.96    5.70
   2   4   1  369.36    5.90
  -2   4  -1  368.96    5.90
  -3  -4  -1  651.53    9.80
   3  -4   1  620.54    9.90
   3  -4   1  643.94   10.00
   3   4   1  616.64    9.90
  -3   4  -1  628.64   10.10
   3   4   1  639.94    9.80
   4  -4   1  415.56    6.80
   4  -4   1  403.86    6.70
  -4   4  -1  418.36    6.90
   4   4   1  412.66    6.60
   4   4   1  420.86    6.80
   5  -4   1  215.48    3.80
   5  -4   1  208.08    3.90
   5   4   1  217.78    3.90
  -5   4  -1  211.38    4.10
   6  -4   1    0.60    0.40
   6   4   1    0.20    0.50
  -6   4  -1    0.20    0.50
   6  -5  -1    5.50    0.70
   6   5  -1    6.90    0.70
  -6   5   1    5.00    0.70
   5  -5  -1  146.99    2.90
  -5   5   1  145.69    3.10
   5   5  -1  147.59    2.80
   5   5  -1  149.39    2.90
   4  -5  -1  213.68    3.80
   4  -5  -1  210.58    3.60
   4   5  -1  210.48    3.70
   4   5  -1  216.88    3.80
  -4   5   1  210.78    3.90
   3  -5  -1  655.63   10.20
   3  -5  -1  653.03   10.40
   3   5  -1  656.33   10.30
   3   5  -1  655.63   10.30
  -3   5   1  666.43   10.50
   2  -5  -1   28.00    0.70
   2   5  -1   28.50    0.90
   2   5  -1   30.00    0.90
  -2   5   1   28.40    0.90
   1  -5  -1  126.89    2.20
   1   5  -1  126.99    2.30
  -1   5   1  126.89    2.30
  -1   5   1  129.09    2.30
   1   5  -1  125.99    2.10
   1   5  -1  126.49    2.30
   0  -5   1  705.23   10.80
   0   5   1  673.83   10.70
   0   5  -1  677.23   10.70
   0   5   1  707.33   10.70
   0   5  -1  701.73   10.60
   0   5   1  683.13   10.70
   1  -5   1   46.30    1.10
  -1  -5  -1   45.90    1.00
   1   5   1   46.00    1.10
   1   5   1   45.10    1.00
  -1   5  -1   46.10    1.10
  -1   5  -1   45.80    1.10
  -2  -5  -1  235.08    3.70
   2  -5   1  227.58    3.90
  -2   5  -1  231.88    4.00
   2   5   1  230.78    3.90
   2   5   1  231.08    3.80
  -2   5  -1  224.68    3.90
  -3  -5  -1   62.99    1.30
   3  -5   1   63.49    1.40
   3   5   1   58.99    1.40
   3   5   1   63.59    1.30
  -3   5  -1   63.49    1.60
   4  -5   1   68.69    1.70
   4  -5   1   70.59    1.60
   4   5   1   73.79    1.70
  -4   5  -1   71.99    1.80
   5  -5   1   19.70    1.00
   5  -5   1   20.50    0.90
  -5   5  -1   21.10    1.10
   5   5   1   21.10    1.00
   6  -5   1   50.79    1.50
   6   5   1   51.09    1.60
  -6   5  -1   47.50    1.70
   6  -6  -1   34.20    1.30
   6   6  -1   36.30    1.30
  -6   6   1   34.50    1.50
   5  -6  -1   86.79    2.10
   5   6  -1   87.99    2.10
  -5   6   1   88.59    2.20
   5   6  -1   87.09    2.00
   4  -6  -1   48.70    1.40
   4   6  -1   46.20    1.30
   4   6  -1   46.00    1.30
  -4   6   1   45.20    1.40
   3  -6  -1   56.09    1.20
   3  -6  -1   56.09    1.40
   3   6  -1   58.09    1.40
   3   6  -1   57.09    1.40
  -3   6   1   53.89    1.50
   2  -6  -1  389.96    6.20
   2   6  -1  383.26    6.30
  -2   6   1  397.06    6.40
   2   6  -1  395.46    6.40
  -2   6   1  383.36    6.40
   1  -6  -1  280.97    4.60
   1   6  -1  279.47    4.70
   1   6  -1  282.77    4.40
  -1   6   1  276.97    4.60
  -1   6   1  274.07    4.60
   1   6  -1  275.07    4.60
   0  -6   1  242.68    4.20
   0   6  -1  237.58    4.10
   0   6   1  247.78    4.10
   0   6   1  252.07    4.10
   0   6  -1  248.38    4.00
   0   6   1  245.88    4.10
  -1  -6  -1  355.26    5.60
   1  -6   1  347.77    5.70
  -1   6  -1  356.66    5.70
  -1   6  -1  347.97    5.80
   1   6   1  353.06    5.60
   1   6   1  340.87    5.70
   2  -6   1  191.18    3.30
  -2  -6  -1  191.38    3.20
   2   6   1  193.38    3.20
  -2   6  -1  189.28    3.40
  -2   6  -1  183.88    3.40
   2   6   1  191.18    3.40
   3  -6   1  255.87    4.30
  -3   6  -1  256.07    4.50
   3   6   1  247.98    4.20
   3   6   1  252.27    4.40
  -3   6  -1  256.57    4.50
   4  -6   1    6.90    0.60
   4  -6   1    5.50    0.50
   4   6   1    4.10    0.50
  -4   6  -1    6.30    0.60
   5  -6   1   21.90    1.00
   5  -6   1   21.70    0.90
   5   6   1   21.70    1.10
  -5   6  -1   21.60    1.10
   6  -6   1   32.20    1.30
   6   6   1   34.40    1.40
  -6   6  -1   33.30    1.50
   6  -7  -1    4.30    0.70
   6   7  -1    3.20    0.60
  -6   7   1    3.90    0.80
   5  -7  -1    1.90    0.50
   5   7  -1    3.00    0.50
   5   7  -1    2.30    0.60
  -5   7   1    3.10    0.70
   4  -7  -1   20.10    1.00
   4   7  -1   21.50    0.90
  -4   7   1   19.70    1.10
   4   7  -1   20.70    1.00
   3  -7  -1  205.88    3.60
   3  -7  -1  208.88    3.80
   3   7  -1  207.28    3.70
  -3   7   1  207.08    3.90
   3   7  -1  207.38    3.80
   2  -7  -1   47.40    1.20
  -2   7   1   47.80    1.30
  -2   7   1   46.10    1.30
   2   7  -1   51.69    1.30
   2   7  -1   48.20    1.30
   1  -7  -1  133.69    2.50
  -1   7   1  131.99    2.60
   1   7  -1  132.79    2.60
   1   7  -1  135.39    2.60
  -1   7   1  139.39    2.60
   0  -7   1  404.16    6.70
   0   7  -1  414.36    6.50
   0   7   1  411.76    6.60
   0   7   1  409.66    6.60
   0   7   1  405.56    6.60
   0   7  -1  411.56    6.70
  -1  -7  -1  229.88    3.80
   1  -7   1  231.78    4.00
   1   7   1  225.78    4.00
  -1   7  -1  229.58    4.00
  -1   7  -1  224.68    3.90
   1   7   1  229.68    3.90
   2  -7   1   93.89    2.00
   2   7   1   92.59    2.00
  -2   7  -1   93.49    2.00
   2   7   1   95.29    1.90
  -2   7  -1   94.29    2.10
   3  -7   1  124.89    2.40
   3   7   1  124.19    2.40
  -3   7  -1  124.99    2.60
   3   7   1  121.09    2.50
  -3   7  -1  125.79    2.60
   4  -7   1   20.50    1.00
   4  -7   1   20.60    0.90
   4   7   1   20.90    1.00
  -4   7  -1   20.10    1.10
   5  -7   1    8.20    0.80
  -5   7  -1    9.40    0.90
   5   7   1    7.60    0.70
   6  -7   1   48.90    1.60
  -6   7  -1   47.90    1.80
   6   7   1   49.30    1.70
   5  -8  -1   39.80    1.50
  -5   8   1   39.90    1.60
   5   8  -1   39.30    1.40
   4  -8  -1   28.50    1.20
   4   8  -1   29.50    1.20
  -4   8   1   28.00    1.30
   4   8  -1   28.40    1.10
   3  -8  -1   14.00    0.70
   3  -8  -1   13.00    0.80
   3   8  -1   12.20    0.80
  -3   8   1   12.80    0.90
   3   8  -1   12.30    0.80
   2  -8  -1  131.69    2.50
   2   8  -1  134.39    2.70
   2   8  -1  128.59    2.60
  -2   8   1  133.19    2.70
  -2   8   1  132.29    2.70
   1  -8  -1  367.46    6.10
  -1   8   1  362.46    6.20
  -1   8   1  367.96    6.10
   1   8  -1  369.36    6.20
   1   8  -1  375.86    6.20
   0  -8   1  202.28    3.70
   0   8   1  197.68    3.60
   0   8  -1  195.48    3.60
   0   8   1  199.38    3.50
   0   8   1  197.38    3.50
   0   8  -1  198.08    3.40
   1  -8   1  249.28    4.40
  -1   8  -1  248.08    4.30
  -1   8  -1  249.38    4.40
   1   8   1  250.77    4.40
   1   8   1  248.08    4.30
   2  -8   1   35.80    1.10
   2   8   1   35.60    1.00
   2   8   1   35.10    1.20
  -2   8  -1   35.00    1.20
  -2   8  -1   34.60    1.20
   3  -8   1   71.49    1.70
   3   8   1   68.79    1.80
  -3   8  -1   71.79    1.90
  -3   8  -1   72.29    1.90
   4  -8   1   60.19    1.70
   4  -8   1   58.79    1.50
   4   8   1   59.09    1.70
  -4   8  -1   56.99    1.80
   5  -8   1   18.10    1.10
   5   8   1   20.00    1.10
  -5   8  -1   17.70    1.20
   5  -9  -1  222.78    4.40
   5   9  -1  218.38    4.30
  -5   9   1  223.38    4.50
   4  -9  -1  304.37    5.40
   4   9  -1  290.77    5.40
  -4   9   1  301.37    5.50
   4   9  -1  297.87    5.30
   3  -9  -1  136.29    2.90
   3   9  -1  136.99    2.90
  -3   9   1  130.29    2.90
   3   9  -1  136.19    2.80
   2  -9  -1   59.29    1.50
  -2   9   1   59.49    1.60
  -2   9   1   58.69    1.60
   2   9  -1   59.09    1.60
   2   9  -1   58.49    1.60
   1  -9  -1   23.80    1.00
  -1  -9   1   21.70    1.00
   1   9  -1   23.90    1.00
  -1   9   1   25.20    1.00
  -1   9   1   24.30    1.00
   0  -9   1  427.76    7.10
   0   9  -1  429.26    7.10
   0   9   1  414.16    7.00
   1  -9   1   29.80    1.10
  -1   9  -1   29.80    1.10
   1   9   1   28.20    1.10
  -1   9  -1   28.70    1.00
   1   9   1   30.90    1.00
   2  -9   1  107.39    2.30
  -2   9  -1  109.29    2.40
  -2   9  -1  107.49    2.40
   2   9   1  107.29    2.40
   2   9   1  108.99    2.20
   3  -9   1   34.90    1.20
  -3   9  -1   35.30    1.30
  -3   9  -1   33.10    1.30
   3   9   1   33.00    1.30
   4  -9   1   75.69    1.90
   4  -9   1   74.99    2.00
  -4   9  -1   76.69    2.10
   4   9   1   74.99    2.00
   4 -10  -1    3.80    0.70
  -4  10   1    4.20    0.80
   4  10  -1    3.20    0.70
   3 -10  -1   24.00    1.20
  -3  10   1   25.20    1.30
   3  10  -1   24.00    1.10
   3  10  -1   26.40    1.20
   2 -10  -1    4.80    0.60
  -2  10   1    5.60    0.70
   2  10  -1    5.70    0.70
   2  10  -1    6.20    0.70
  -2  10   1    5.90    0.70
  -1 -10   1   32.90    1.30
   1 -10  -1   33.60    1.20
  -1  10   1   36.30    1.30
  -1  10   1   34.80    1.20
   1  10  -1   33.40    1.20
   0 -10   1    7.90    0.80
   0 -10  -1    7.90    0.70
   0  10   1    6.90    0.70
   0  10  -1    7.00    0.70
   1 -10   1    3.10    0.60
   1  10   1    2.90    0.50
  -1  10  -1    3.00    0.60
   1  10   1    2.80    0.50
   2 -10   1    8.00    0.70
  -2  10  -1    7.50    0.80
  -2  10  -1    7.50    0.70
   2  10   1    6.20    0.90
   2  10   1    8.40    0.80
   3 -10   1   72.59    1.80
  -3  10  -1   69.19    2.00
  -3  10  -1   73.29    2.00
   3  10   1   72.09    2.00
   4 -10   1   18.20    1.10
  -4  10  -1   22.70    1.20
   4  10   1   20.80    1.20
   3 -11  -1   44.00    1.60
   3  11  -1   44.60    1.50
  -3  11   1   47.00    1.70
   3  11  -1   45.80    1.60
   2 -11  -1    3.10    0.60
   2  11  -1    4.00    0.60
  -2  11   1    3.80    0.70
  -2  11   1    3.20    0.70
  -1 -11   1   54.99    1.70
   1 -11  -1   51.69    1.60
  -1  11   1   52.99    1.60
   1  11  -1   50.59    1.60
   0 -11  -1    4.50    0.60
   0 -11   1    3.60    0.60
   0  11   1    4.60    0.60
   0  11  -1    4.70    0.60
   1 -11   1   17.80    1.00
   1  11   1   18.20    1.10
  -1  11  -1   18.00    1.10
   1  11   1   17.70    0.90
   2 -11   1    2.40    0.60
   2  11   1    2.00    0.50
  -2  11  -1    1.50    0.50
   3 -11   1   43.80    1.50
  -3  11  -1   43.10    1.60
   3  11   1   44.60    1.60
  -3  11  -1   45.10    1.60
  -1 -12   1   26.90    1.30
   1 -12  -1   27.10    1.20
  -1  12   1   28.00    1.30
   1  12  -1   26.20    1.20
   0 -12   1   68.89    2.00
   0 -12  -1   67.29    2.00
   0  12  -1   66.39    1.90
   0  12   1   64.29    1.90
   1 -12   1   40.00    1.50
  -1  12  -1   38.30    1.50
   1  12   1   40.30    1.50
   7   0  -2   88.09    2.20
  -6   0   2    7.10    0.60
   6   0  -2    8.30    0.70
   5   0  -2    0.50    0.30
   5   0  -2    0.10    0.40
  -5   0   2    0.40    0.30
   4   0  -2   49.40    1.00
  -4   0   2   50.49    1.20
   4   0  -2   47.40    1.20
  -3   0   2  127.59    2.20
   3   0  -2  126.79    2.10
   3   0  -2  126.19    2.30
   2   0  -2  164.28    2.70
  -2   0   2  164.98    2.70
   2   0  -2  162.18    2.60
   1   0  -2   -0.20    0.20
  -1   0   2   -0.30    0.20
   0   0  -2 5895.61   94.89
   0   0   2 5928.81   98.09
   0   0  -2 5983.50  103.19
  -1   0  -2 2079.89   32.70
  -1   0  -2 2101.59   34.40
   1   0   2 2098.19   32.60
  -2   0  -2  480.95    7.60
   2   0   2  493.95    7.60
   2   0   2  488.45    7.50
   3   0   2  134.39    2.20
  -3   0  -2  127.99    2.40
   3   0   2  127.79    2.30
   4   0   2  141.19    2.60
  -4   0  -2  141.79    2.70
   4   0   2  145.29    2.50
  -5   0  -2  142.79    2.90
   5   0   2  144.69    2.80
   6   0   2  118.09    2.50
  -6   0  -2  118.69    2.60
  -7   0  -2  108.09    2.60
   7   0   2  109.99    2.50
   7  -1  -2   70.29    1.90
   7   1  -2   72.99    1.90
  -7   1   2   71.09    1.90
   6  -1  -2  129.39    2.70
   6   1  -2  130.09    2.70
  -6   1   2  126.49    2.70
  -5  -1   2  162.38    2.90
   5  -1  -2  159.98    3.00
   5   1  -2  158.98    2.80
  -5   1   2  162.28    3.10
   5   1  -2  164.88    3.00
   4  -1  -2  224.88    3.90
  -4  -1   2  227.58    3.80
   4  -1  -2  229.58    3.60
   4   1  -2  226.28    3.70
  -4   1   2  226.88    3.90
   4   1  -2  227.48    3.90
  -3  -1   2  455.25    7.10
   3  -1  -2  458.25    7.00
   3  -1  -2  467.55    7.30
   3   1  -2  463.55    7.30
   3   1  -2  460.65    7.10
  -3   1   2  451.65    7.30
  -2  -1   2  139.79    2.30
   2  -1  -2  140.39    2.10
   2  -1  -2  141.59    2.40
   2   1  -2  140.09    2.30
  -2   1   2  139.49    2.40
   2   1  -2  135.49    2.40
  -1  -1   2  664.53   10.60
   1  -1  -2  667.83   10.70
  -1   1   2  656.33   10.60
   1   1  -2  671.13   10.70
   1   1  -2  670.83   10.50
   0  -1  -2  802.92   13.00
   0  -1   2  847.32   13.10
   0  -1  -2  833.32   12.90
   0   1   2  827.02   13.10
   0   1  -2  836.22   13.10
   0   1  -2  845.02   13.30
  -1  -1  -2  121.19    2.10
   1  -1   2  122.99    2.10
   1   1   2  127.39    2.10
  -1   1  -2  127.29    2.20
  -1   1  -2  125.69    2.00
  -2  -1  -2  832.02   13.00
   2  -1   2  787.42   12.70
   2  -1   2  826.22   12.80
  -2   1  -2  802.12   12.90
   2   1   2  816.22   12.90
   2   1   2  833.62   12.60
   3  -1   2  585.34    9.00
   3  -1   2  588.94    8.90
  -3  -1  -2  570.74    9.00
  -3   1  -2  556.44    9.10
   3   1   2  570.64    9.00
   3   1   2  581.54    8.80
  -4  -1  -2   53.99    1.30
   4  -1   2   51.69    1.30
   4  -1   2   53.19    1.20
   4   1   2   54.19    1.10
  -4   1  -2   53.09    1.40
   4   1   2   54.69    1.30
  -5  -1  -2  106.29    2.30
   5  -1   2  104.29    2.10
   5  -1   2  104.09    2.20
  -5   1  -2  107.89    2.30
   5   1   2  108.09    2.20
  -6  -1  -2    5.30    0.60
   6  -1   2    6.80    0.60
   6   1   2    5.30    0.60
  -6   1  -2    5.90    0.70
   7  -1   2    7.60    0.70
   7   1   2    9.70    0.80
  -7   1  -2    8.60    0.90
   7  -2  -2    0.10    0.50
  -7   2   2    0.30    0.50
   7   2  -2    0.80    0.50
   6  -2  -2   21.80    1.00
   6   2  -2   21.50    1.00
  -6   2   2   22.60    1.10
   5  -2  -2   60.79    1.50
   5   2  -2   62.89    1.50
  -5   2   2   62.89    1.60
   5   2  -2   59.49    1.40
   4  -2  -2   19.00    0.50
   4  -2  -2   20.40    0.80
  -4  -2   2   20.90    0.60
  -4   2   2   19.50    0.80
   4   2  -2   20.20    0.70
   4   2  -2   20.70    0.80
   3  -2  -2  473.15    7.50
   3  -2  -2  489.85    7.40
  -3  -2   2  479.95    7.30
   3   2  -2  479.15    7.50
  -3   2   2  468.05    7.60
   3   2  -2  462.25    7.40
  -2  -2   2  761.12   12.00
   2  -2  -2  774.72   12.50
   2  -2  -2  770.62   11.90
  -2   2   2  774.82   12.20
   2   2  -2  769.12   12.00
   2   2  -2  812.52   12.40
   1  -2  -2  682.03   10.80
   1   2  -2  692.83   10.70
  -1   2   2  711.13   10.80
  -1   2   2  707.83   11.30
   1   2  -2  715.53   10.90
   0  -2  -2  143.89    2.50
   0  -2   2  148.99    2.40
   0  -2  -2  148.89    2.30
   0   2  -2  150.18    2.40
   0   2   2  150.28    2.40
   0   2  -2  141.89    2.40
   1  -2   2 2167.38   34.00
  -1  -2  -2 2256.87   34.30
   1   2   2 2132.49   33.00
   1   2   2 2179.88   34.00
  -1   2  -2 2247.68   34.40
  -1   2  -2 2164.88   34.00
  -2  -2  -2  761.22   11.70
   2  -2   2  744.23   11.70
  -2   2  -2  764.42   11.80
   2   2   2  773.12   11.70
  -2   2  -2  762.32   11.70
  -3  -2  -2  125.29    2.30
   3  -2   2  127.09    2.30
   3  -2   2  129.99    2.30
  -3   2  -2  126.09    2.40
   3   2   2  127.79    2.10
   3   2   2  124.99    2.30
   4  -2   2  192.58    3.30
  -4  -2  -2  194.38    3.40
   4  -2   2  190.38    3.40
  -4   2  -2  191.88    3.60
   4   2   2  193.78    3.20
   4   2   2  196.78    3.40
  -5  -2  -2    1.50    0.40
   5  -2   2    1.50    0.40
   5  -2   2    0.80    0.30
   5   2   2    1.10    0.40
  -5   2  -2    0.60    0.50
   6  -2   2  308.17    5.40
  -6   2  -2  305.87    5.60
   6   2   2  311.97    5.40
   7  -2   2  125.09    2.70
   7   2   2  124.19    2.80
  -7   2  -2  124.29    3.00
   7  -3  -2   44.70    1.50
  -7   3   2   43.70    1.60
   7   3  -2   43.90    1.50
   6  -3  -2   50.19    1.50
   6   3  -2   48.00    1.30
   6   3  -2   49.10    1.40
  -6   3   2   49.30    1.60
   5  -3  -2  298.87    5.10
   5   3  -2  286.27    5.00
  -5   3   2  294.37    5.20
   5   3  -2  295.97    4.90
   4  -3  -2  202.28    3.60
   4  -3  -2  207.98    3.30
   4   3  -2  205.78    3.60
  -4   3   2  196.38    3.60
   4   3  -2  201.18    3.50
   3  -3  -2  311.27    4.80
  -3  -3   2  307.17    4.80
   3  -3  -2  306.67    5.10
  -3   3   2  304.67    5.10
   3   3  -2  308.97    5.10
   3   3  -2  314.37    5.00
   2  -3  -2  357.96    5.60
   2  -3  -2  360.36    5.40
   2   3  -2  344.97    5.60
   2   3  -2  358.66    5.60
  -2   3   2  349.17    5.70
   1  -3  -2  491.25    7.80
  -1   3   2  507.75    7.70
  -1   3   2  498.05    9.20
   1   3  -2  483.55    7.60
   1   3  -2  476.25    7.60
   0  -3   2  402.66    6.40
   0   3   2  413.26    6.30
   0   3   2  421.26    6.30
   0   3  -2  412.86    6.30
   0   3  -2  394.06    6.40
  -1  -3  -2  117.09    2.10
   1  -3   2  115.39    2.10
   1   3   2  114.59    1.90
  -1   3  -2  119.19    2.10
  -1   3  -2  111.99    2.00
   1   3   2  117.99    2.00
  -2  -3  -2  168.68    2.90
   2  -3   2  165.08    2.90
  -2   3  -2  173.38    2.90
   2   3   2  165.38    2.70
   2   3   2  165.38    2.90
  -2   3  -2  166.68    2.90
   3  -3   2  740.73   11.50
   3  -3   2  731.73   11.50
  -3  -3  -2  747.13   11.50
   3   3   2  745.33   11.30
  -3   3  -2  741.43   11.70
   3   3   2  758.22   11.60
   4  -3   2  220.38    3.80
   4  -3   2  226.58    3.90
  -4  -3  -2  222.98    3.80
  -4   3  -2  219.38    4.00
   4   3   2  223.58    3.90
  -5  -3  -2  125.99    2.60
   5  -3   2  128.89    2.60
   5  -3   2  131.49    2.50
  -5   3  -2  130.69    2.80
   5   3   2  133.59    2.70
   6  -3   2   20.40    1.00
   6  -3   2   21.20    1.00
  -6   3  -2   20.90    1.20
   6   3   2   21.10    1.00
   7  -4  -2   50.59    1.70
   7   4  -2   48.90    1.60
  -7   4   2   50.29    1.80
   6  -4  -2   27.90    1.20
   6   4  -2   25.20    1.10
  -6   4   2   23.80    1.20
   6   4  -2   26.40    1.00
   5  -4  -2   39.60    1.30
  -5   4   2   43.50    1.40
   5   4  -2   41.10    1.20
   5   4  -2   41.10    1.30
   4  -4  -2  323.07    5.50
   4   4  -2  328.07    5.40
   4   4  -2  325.67    5.50
  -4   4   2  329.87    5.60
   3  -4  -2  134.59    2.20
   3  -4  -2  129.69    2.50
   3   4  -2  131.79    2.50
  -3   4   2  134.09    2.60
   3   4  -2  131.29    2.40
   2  -4  -2   11.60    0.50
   2  -4  -2   12.00    0.40
   2   4  -2   12.90    0.60
  -2   4   2   12.10    0.60
   2   4  -2   12.90    0.50
   1   4  -2  459.95    7.10
  -1   4   2  461.25    7.10
  -1   4   2  458.95    7.30
   1   4  -2  475.05    7.30
   0  -4   2  123.89    2.30
   0   4   2  125.09    2.20
   0   4   2  128.69    2.10
   0   4  -2  127.99    2.30
   0   4   2  122.39    2.20
   0   4  -2  127.09    2.10
   1  -4   2  107.39    2.00
  -1  -4  -2  110.59    2.00
  -1   4  -2  115.69    2.10
  -1   4  -2  109.59    2.00
   1   4   2  111.39    1.90
   1   4   2  108.29    2.00
  -2  -4  -2  609.54    9.50
   2  -4   2  610.24    9.50
  -2   4  -2  606.94    9.60
   2   4   2  619.14    9.30
  -2   4  -2  611.84    9.60
   2   4   2  605.84    9.60
   3  -4   2  180.38    3.30
  -3  -4  -2  190.08    3.20
   3   4   2  181.08    3.30
  -3   4  -2  183.78    3.40
   3   4   2  191.88    3.00
   4  -4   2  669.53   10.50
  -4  -4  -2  659.63   10.40
   4  -4   2  664.33   10.50
   4   4   2  672.93   10.60
  -4   4  -2  662.03   10.70
   5  -4   2    9.70    0.70
   5  -4   2    9.10    0.70
  -5   4  -2    9.50    0.80
   5   4   2    8.60    0.70
   6  -4   2   59.59    1.60
   6  -4   2   59.69    1.60
   6   4   2   59.19    1.70
  -6   4  -2   58.09    1.90
   6  -5  -2    7.40    0.70
   6   5  -2    9.70    0.80
  -6   5   2   10.00    0.90
   6   5  -2    8.80    0.70
   5  -5  -2   57.89    1.60
   5   5  -2   53.59    1.50
   5   5  -2   55.89    1.50
  -5   5   2   55.59    1.70
   4  -5  -2  101.99    2.20
   4   5  -2   97.19    2.10
  -4   5   2  102.49    2.30
   4   5  -2  103.59    2.10
   3  -5  -2   56.09    1.10
   3  -5  -2   54.49    1.30
  -3   5   2   55.99    1.40
   3   5  -2   55.79    1.40
   3   5  -2   56.49    1.30
   2  -5  -2   84.89    1.70
   2  -5  -2   85.79    1.60
   2   5  -2   86.79    1.70
   2   5  -2   84.39    1.80
  -2   5   2   85.59    1.80
  -1   5   2  368.76    5.80
  -1   5   2  356.06    5.90
   1   5  -2  363.06    5.60
   1   5  -2  364.96    5.90
  -1   5   2  356.76    5.70
   0  -5   2  373.96    6.20
   0   5   2  390.96    6.10
   0   5  -2  390.86    6.20
   0   5   2  385.96    6.10
   0   5  -2  386.86    6.00
   0   5   2  381.46    6.20
  -1  -5  -2   96.59    1.80
   1  -5   2   94.89    1.90
  -1   5  -2   98.39    1.90
   1   5   2   95.69    1.70
   1   5   2   93.29    1.80
  -1   5  -2   97.29    1.90
  -2  -5  -2  134.39    2.40
   2  -5   2  134.29    2.50
   2   5   2  133.39    2.50
  -2   5  -2  131.99    2.50
  -2   5  -2  135.69    2.50
   2   5   2  136.79    2.30
   3  -5   2  106.29    2.10
  -3  -5  -2  102.79    2.00
  -3   5  -2  102.59    2.10
   3   5   2  103.09    2.10
  -3   5  -2  106.09    2.20
   4  -5   2  198.98    3.60
   4  -5   2  196.78    3.70
  -4   5  -2  208.68    3.90
   4   5   2  208.08    3.70
   5  -5   2   14.30    0.80
   5  -5   2   14.40    0.80
   5   5   2   14.10    0.90
  -5   5  -2   16.20    1.00
   6  -5   2    4.90    0.60
   6  -5   2    5.30    0.60
  -6   5  -2    5.10    0.80
   6   5   2    4.40    0.70
   6  -6  -2   19.40    1.10
   6   6  -2   19.30    1.00
  -6   6   2   19.70    1.20
   6   6  -2   19.30    1.10
   5  -6  -2    1.20    0.50
  -5   6   2    1.50    0.50
   5   6  -2    1.10    0.50
   5   6  -2    1.90    0.50
   4  -6  -2  337.67    5.80
   4   6  -2  340.67    5.80
   4   6  -2  342.57    5.80
  -4   6   2  337.47    5.90
   3  -6  -2  181.18    3.00
   3  -6  -2  178.58    3.30
   3   6  -2  175.38    3.30
  -3   6   2  177.78    3.40
   3   6  -2  181.88    3.30
   2  -6  -2  460.75    7.10
   2  -6  -2  460.75    7.30
   2   6  -2  442.06    7.30
   2   6  -2  447.86    7.30
  -2   6   2  454.45    7.40
  -1  -6   2   35.90    1.10
  -1   6   2   35.30    1.00
   1   6  -2   36.20    0.70
  -1   6   2   34.30    0.90
   1   6  -2   35.20    1.00
  -1   6   2   35.50    1.00
   0  -6   2   34.30    1.00
   0   6   2   34.30    0.90
   0   6  -2   36.80    1.00
   0   6  -2   34.40    0.80
   0   6   2   34.00    1.00
   0   6   2   33.70    0.90
   1  -6   2   73.09    1.60
  -1  -6  -2   76.49    1.60
   1   6   2   76.19    1.60
  -1   6  -2   75.79    1.70
  -1   6  -2   77.09    1.60
   1   6   2   76.59    1.50
  -2  -6  -2  167.08    2.90
   2  -6   2  167.38    3.10
   2   6   2  169.38    2.90
  -2   6  -2  166.18    3.10
   2   6   2  168.18    3.10
  -2   6  -2  172.08    3.10
   3  -6   2  138.19    2.60
  -3   6  -2  137.89    2.70
  -3   6  -2  132.29    2.70
   3   6   2  131.99    2.60
   4  -6   2  100.29    2.10
   4  -6   2   96.69    2.20
   4   6   2   98.59    2.20
  -4   6  -2   97.39    2.30
   5  -6   2   78.19    1.90
   5  -6   2   72.79    1.80
  -5   6  -2   76.59    2.10
   5   6   2   76.79    2.00
   6  -6   2   72.19    1.90
   6   6   2   75.79    2.10
  -6   6  -2   72.89    2.20
   6  -7  -2   73.89    2.10
   6   7  -2   76.49    2.00
  -6   7   2   75.29    2.30
   5  -7  -2   28.90    1.20
  -5   7   2   25.30    1.30
   5   7  -2   28.80    1.20
   5   7  -2   25.00    1.10
   4  -7  -2   19.10    1.00
   4   7  -2   17.20    0.90
  -4   7   2   17.20    1.00
   4   7  -2   18.40    0.90
   3  -7  -2   -0.10    0.40
   3   7  -2    0.50    0.40
  -3   7   2    0.00    0.50
   3   7  -2    0.30    0.30
   2  -7  -2  194.28    3.50
   2  -7  -2  194.58    3.40
   2   7  -2  195.58    3.60
   2   7  -2  196.28    3.50
  -2   7   2  198.88    3.60
  -1  -7   2  480.25    7.80
  -1   7   2  479.85    7.70
  -1   7   2  490.95    7.80
   1   7  -2  465.55    7.70
   0  -7   2  749.23   11.70
   0   7  -2  741.83   11.70
   0   7  -2  755.82   11.50
   0   7   2  730.63   11.60
   0   7   2  732.73   11.60
   0   7   2  752.32   11.60
  -1  -7  -2  247.28    4.20
   1  -7   2  247.68    4.30
  -1   7  -2  246.38    4.20
   1   7   2  247.38    4.30
   1   7   2  247.08    4.10
  -1   7  -2  253.57    4.40
   2  -7   2  143.39    2.70
   2   7   2  138.69    2.50
  -2   7  -2  137.29    2.80
   2   7   2  140.49    2.70
  -2   7  -2  137.89    2.70
   3  -7   2  118.99    2.40
  -3   7  -2  111.89    2.50
  -3   7  -2  115.19    2.50
   3   7   2  115.39    2.40
   4  -7   2   26.00    1.00
   4  -7   2   24.90    1.10
  -4   7  -2   26.50    1.20
   4   7   2   26.10    1.10
   5  -7   2   17.60    1.00
   5  -7   2   18.50    0.90
  -5   7  -2   16.90    1.10
   5   7   2   17.50    1.00
   5  -8  -2   22.20    1.20
  -5   8   2   24.60    1.30
   5   8  -2   22.80    1.10
   5   8  -2   24.10    1.10
   4  -8  -2   42.30    1.40
  -4   8   2   44.90    1.60
   4   8  -2   42.30    1.40
   4   8  -2   46.30    1.40
   3  -8  -2    4.20    0.60
   3   8  -2    3.20    0.50
   3   8  -2    5.20    0.60
  -3   8   2    3.80    0.60
   2  -8  -2   70.49    1.60
   2   8  -2   71.69    1.80
  -2   8   2   72.89    1.80
   2   8  -2   71.29    1.70
  -1  -8   2   57.09    1.50
   1  -8  -2   55.59    1.40
  -1   8   2   55.49    1.40
   1   8  -2   57.59    1.50
  -1   8   2   57.49    1.50
   0  -8   2   35.40    1.20
   0   8  -2   35.50    1.20
   0   8   2   35.00    1.10
   0   8   2   36.40    1.10
   0   8   2   35.40    1.10
  -1  -8  -2   65.69    1.60
   1  -8   2   67.09    1.70
  -1   8  -2   67.59    1.60
   1   8   2   68.09    1.50
   1   8   2   65.79    1.60
  -1   8  -2   66.99    1.70
   2  -8   2  175.88    3.30
   2   8   2  174.18    3.30
  -2   8  -2  175.58    3.40
  -2   8  -2  173.48    3.30
   3  -8   2    9.00    0.70
  -3   8  -2    6.70    0.70
  -3   8  -2    7.40    0.70
   3   8   2    8.70    0.70
   4  -8   2    5.60    0.70
   4  -8   2    6.80    0.60
   4   8   2    7.10    0.70
  -4   8  -2    6.00    0.70
   5  -8   2    3.50    0.60
   5  -8   2    3.70    0.60
  -5   8  -2    4.80    0.70
   5   8   2    3.40    0.70
   5  -9  -2   33.40    1.40
   5   9  -2   30.60    1.30
   5   9  -2   31.00    1.30
  -5   9   2   32.30    1.50
   4  -9  -2   21.20    1.10
   4   9  -2   19.60    1.10
   4   9  -2   21.50    1.00
  -4   9   2   20.50    1.20
   3  -9  -2   14.70    0.90
   3   9  -2   15.40    0.90
  -3   9   2   12.70    1.00
   3   9  -2   14.50    0.90
   2  -9  -2  110.09    2.20
  -2   9   2  109.59    2.40
   2   9  -2  107.89    2.40
  -1  -9   2  119.79    2.60
   1  -9  -2  119.39    2.40
  -1   9   2  118.79    2.50
  -1   9   2  121.39    2.50
   1   9  -2  120.39    2.50
   0  -9   2  173.78    3.40
   0   9   2  175.48    3.20
   0   9   2  169.68    3.20
   0   9  -2  171.78    3.40
   0   9   2  172.58    3.20
   1  -9   2  123.79    2.60
   1   9   2  128.59    2.50
   1   9   2  125.99    2.60
  -1   9  -2  128.79    2.70
  -1   9  -2  124.79    2.50
   2  -9   2   59.99    1.60
   2   9   2   62.09    1.70
  -2   9  -2   57.49    1.60
  -2   9  -2   62.59    1.70
   3  -9   2   20.50    1.00
   3   9   2   20.80    1.10
  -3   9  -2   19.70    1.10
  -3   9  -2   20.90    1.10
   4  -9   2   17.90    1.00
   4  -9   2   17.10    1.10
  -4   9  -2   14.80    1.10
   4   9   2   16.90    1.00
   4 -10  -2  106.29    2.50
  -4  10   2  104.99    2.70
   4  10  -2  104.49    2.60
   4  10  -2  107.79    2.50
   3 -10  -2   49.10    1.60
   3  10  -2   48.20    1.60
   3  10  -2   47.30    1.60
  -3  10   2   48.60    1.60
  -2 -10   2   26.20    1.20
   2  10  -2   29.10    1.20
  -2  10   2   27.10    1.20
  -1 -10   2   16.00    1.00
   1 -10  -2   16.60    0.90
  -1  10   2   17.20    1.00
   1  10  -2   15.80    1.00
  -1  10   2   15.90    0.90
   0 -10   2    8.40    0.80
   0  10   2    7.30    0.70
   0  10  -2    7.00    0.70
   0  10   2    7.10    0.60
   1 -10   2   58.69    1.70
  -1  10  -2   55.99    1.70
   1  10   2   55.09    1.60
   1  10   2   59.59    1.60
   2 -10   2   34.00    1.30
  -2  10  -2   34.10    1.30
   2  10   2   33.20    1.30
  -2  10  -2   34.50    1.20
   3 -10   2   32.20    1.20
  -3  10  -2   28.20    1.30
   3  10   2   31.60    1.30
  -3  10  -2   28.50    1.30
   3 -11  -2   13.60    1.00
   3  11  -2   12.20    0.90
  -3  11   2   12.70    1.10
  -2 -11   2   10.60    1.00
   2  11  -2    8.90    0.80
  -2  11   2   10.40    0.90
   1 -11  -2   39.00    1.30
  -1 -11   2   39.80    1.50
  -1  11   2   40.90    1.40
   1  11  -2   41.50    1.50
   0 -11  -2   73.79    2.00
   0 -11   2   75.99    2.10
   0  11   2   71.49    1.90
   0  11  -2   80.19    2.10
   1 -11   2   22.50    1.20
   1  11   2   22.20    1.10
  -1  11  -2   22.30    1.20
   2 -11   2   12.30    0.90
   2  11   2   12.60    1.00
  -2  11  -2   10.40    0.90
  -1 -12   2   83.39    2.30
  -1  12   2   81.49    2.20
   1  12  -2   81.29    2.20
   0 -12  -2   49.50    1.70
   0 -12   2   47.00    1.70
   0  12  -2   51.09    1.70
   0  12   2   50.59    1.70
   1 -12   2   54.99    1.80
  -1  12  -2   59.39    1.90
   1  12   2   55.59    1.80
   7   0  -3   68.49    1.90
   6   0  -3   50.39    1.50
  -6   0   3   51.09    1.40
  -5   0   3   11.10    0.70
   5   0  -3   11.20    0.80
   4   0  -3    7.40    0.40
   4   0  -3    7.20    0.60
  -4   0   3    6.80    0.50
   3   0  -3  148.99    2.40
   3   0  -3  150.18    2.60
  -3   0   3  143.79    2.60
   2   0  -3 1498.95   23.50
  -2   0   3 1447.76   23.10
  -2   0   3 1446.06   22.40
   1   0  -3  553.74    8.50
  -1   0   3  544.75    8.70
   1   0  -3  551.24    8.40
   0   0   3  296.17    4.60
   0   0  -3  301.17    4.80
   0   0  -3  297.67    4.60
   1   0   3 1944.41   30.30
  -1   0  -3 1901.01   30.60
  -1   0  -3 1902.81   29.20
   2   0   3  307.37    4.70
   2   0   3  302.87    4.90
  -2   0  -3  312.07    5.10
   3   0   3  149.49    2.50
  -3   0  -3  154.88    2.80
   3   0   3  150.18    2.70
  -4   0  -3    1.40    0.40
   4   0   3    0.80    0.30
  -5   0  -3    1.00    0.50
   5   0   3    1.00    0.40
   6   0   3   71.09    1.80
  -6   0  -3   71.59    1.90
   7  -1  -3   18.50    1.10
   7   1  -3   19.30    1.10
   6  -1  -3   37.30    1.30
   6   1  -3   35.90    1.30
  -6   1   3   39.20    1.30
  -5  -1   3    2.60    0.40
   5  -1  -3    2.10    0.40
  -5   1   3    2.20    0.40
   5   1  -3    1.50    0.40
   4  -1  -3   79.59    1.70
  -4  -1   3   78.29    1.60
   4   1  -3   77.19    1.70
   4   1  -3   78.99    1.50
  -4   1   3   78.69    1.70
   3  -1  -3   71.99    1.20
  -3  -1   3   73.09    1.40
   3  -1  -3   71.69    1.50
  -3   1   3   72.69    1.50
   3   1  -3   73.29    1.50
   3   1  -3   72.59    1.30
  -2  -1   3   49.50    1.00
   2  -1  -3   50.99    1.10
  -2   1   3   48.90    1.10
   2   1  -3   49.90    1.10
   1  -1  -3  839.82   13.40
  -1  -1   3  826.82   13.00
   1   1  -3  846.42   13.60
  -1   1   3  836.32   12.90
   1   1  -3  838.92   13.30
   0  -1   3 1655.23   26.30
   0  -1  -3 1669.53   25.90
   0  -1  -3 1674.43   26.90
   0   1  -3 1714.33   27.00
   0   1  -3 1721.03   26.40
   0   1   3 1722.53   26.20
   1  -1   3   10.80    0.50
  -1  -1  -3   10.00    0.50
  -1   1  -3   10.70    0.50
   1   1   3    9.70    0.40
  -1   1  -3    9.80    0.40
   2  -1   3   55.99    1.20
  -2  -1  -3   57.29    1.30
  -2   1  -3   55.19    1.10
   2   1   3   56.09    0.90
   2   1   3   56.09    1.20
  -2   1  -3   56.59    1.30
  -3  -1  -3  112.59    2.20
   3  -1   3  113.49    2.20
   3  -1   3  115.99    2.00
   3   1   3  113.69    2.20
   3   1   3  114.29    1.90
  -3   1  -3  111.89    2.30
   4  -1   3  338.87    5.40
  -4  -1  -3  339.47    5.70
   4  -1   3  339.17    5.60
   4   1   3  345.07    5.70
  -4   1  -3  334.17    5.80
  -5  -1  -3   73.29    1.80
   5  -1   3   73.89    1.80
  -5   1  -3   70.89    1.90
   5   1   3   76.09    1.80
  -6  -1  -3   21.90    1.10
   6  -1   3   21.20    1.00
  -6   1  -3   21.10    1.20
   6   1   3   21.80    1.00
   7  -2  -3   86.89    2.20
  -7   2   3   85.39    2.20
   7   2  -3   86.09    2.20
   6  -2  -3   56.39    1.60
   6   2  -3   56.69    1.60
  -6   2   3   56.99    1.70
   5  -2  -3  219.18    4.00
  -5   2   3  220.08    4.00
   5   2  -3  218.28    3.90
   5   2  -3  214.38    3.70
  -4  -2   3  650.83    9.80
   4  -2  -3  600.64   10.00
  -4   2   3  646.44   10.10
   4   2  -3  638.74    9.80
   4   2  -3  639.84   10.10
   3  -2  -3  191.38    2.90
  -3  -2   3  195.08    3.10
   3  -2  -3  194.88    3.30
   3   2  -3  196.68    3.40
   3   2  -3  195.98    3.20
  -3   2   3  188.08    3.40
   2  -2  -3  128.69    2.30
   2   2  -3  137.29    2.40
   2   2  -3  137.09    2.30
  -2   2   3  134.89    2.40
   2   2  -3  137.09    2.20
   1  -2  -3  127.19    2.10
  -1  -2   3  124.79    2.10
  -1   2   3  124.09    2.20
   1   2  -3  124.19    2.10
  -1   2   3  125.29    2.00
   1   2  -3  120.59    2.20
   0  -2   3   34.20    0.80
   0  -2  -3   32.80    0.90
   0  -2  -3   32.60    0.60
   0   2  -3   32.50    0.80
   0   2   3   33.30    0.70
   0   2  -3   32.90    0.80
  -1  -2  -3  504.75    7.80
   1  -2   3  504.05    7.80
  -1   2  -3  486.55    7.80
  -1   2  -3  496.65    7.70
   1   2   3  503.55    7.70
  -2  -2  -3  252.17    4.20
   2  -2   3  243.98    4.10
  -2   2  -3  259.47    4.10
   2   2   3  248.48    4.10
  -2   2  -3  251.97    4.20
   3  -2   3   51.19    1.20
   3  -2   3   49.99    1.10
  -3  -2  -3   48.50    1.20
   3   2   3   49.90    1.20
  -3   2  -3   49.00    1.30
  -4  -2  -3  212.88    3.80
   4  -2   3  213.08    3.60
   4  -2   3  217.58    3.80
   4   2   3  217.38    3.80
  -4   2  -3  209.48    3.90
   5  -2   3    3.90    0.50
  -5  -2  -3    3.50    0.50
  -5   2  -3    4.90    0.70
   5   2   3    4.70    0.60
   6  -2   3   44.60    1.40
  -6  -2  -3   43.90    1.40
  -6   2  -3   42.60    1.50
   6   2   3   42.40    1.40
   7  -3  -3   72.29    2.00
   7   3  -3   74.19    2.00
  -7   3   3   74.29    2.10
   6  -3  -3  175.78    3.50
   6   3  -3  175.48    3.50
  -6   3   3  179.28    3.60
   5  -3  -3   31.20    1.10
   5   3  -3   29.30    0.90
  -5   3   3   30.50    1.20
   5   3  -3   29.90    1.10
   4   3  -3  511.95    8.10
  -4   3   3  521.65    8.40
   4   3  -3  509.95    8.30
   3  -3  -3  112.09    2.00
  -3   3   3  143.79    2.50
   3   3  -3  136.29    2.50
   3   3  -3  133.19    2.30
   2  -3  -3  777.12   11.90
   2  -3  -3  805.52   12.30
   2   3  -3  780.92   12.00
   2   3  -3  784.72   12.00
  -2   3   3  778.22   12.10
   2   3  -3  754.62   12.00
   1  -3  -3  523.65    8.30
  -1  -3   3  530.25    8.40
   1   3  -3  537.95    8.30
   1   3  -3  537.05    8.40
  -1   3   3  551.04    8.20
  -1   3   3  545.95    8.50
   0  -3   3  206.88    3.50
   0  -3  -3  212.58    3.40
   0  -3  -3  217.68    3.60
   0   3  -3  215.68    3.50
   0   3   3  214.58    3.40
   0   3  -3  216.58    3.50
  -1  -3  -3  337.37    5.50
   1  -3   3  337.27    5.50
   1   3   3  345.37    5.40
  -1   3  -3  339.07    5.50
  -1   3  -3  341.27    5.40
   2  -3   3  354.86    5.70
  -2  -3  -3  351.36    5.70
  -2   3  -3  355.76    5.60
  -2   3  -3  348.87    5.80
   2   3   3  345.17    5.30
   2   3   3  354.26    5.70
  -3  -3  -3 1130.79   17.60
   3  -3   3 1143.49   17.60
  -3   3  -3 1159.68   17.80
   3   3   3 1150.08   17.60
   4  -3   3   31.80    1.00
  -4  -3  -3   32.80    1.10
   4  -3   3   31.90    1.00
   4   3   3   30.70    1.10
  -4   3  -3   31.30    1.20
  -5  -3  -3  515.45    8.40
   5  -3   3  512.95    8.30
   5  -3   3  507.15    8.40
  -5   3  -3  520.85    8.60
   5   3   3  516.25    8.50
   6  -3   3   17.70    1.00
   6   3   3   15.30    1.00
  -6   3  -3   18.70    1.20
   7  -4  -3  130.39    2.90
   7   4  -3  126.39    2.90
  -7   4   3  128.49    3.00
   6  -4  -3   23.90    1.10
   6   4  -3   24.70    1.10
  -6   4   3   24.10    1.20
   5  -4  -3   66.29    1.70
  -5   4   3   65.39    1.80
   5   4  -3   68.09    1.70
   5   4  -3   65.99    1.60
   4  -4  -3   84.09    1.90
   4   4  -3   81.79    1.70
  -4   4   3   84.99    2.00
   4   4  -3   85.49    1.90
   3   4  -3   31.20    1.00
   3   4  -3   30.00    0.90
  -3   4   3   33.20    1.10
   2  -4  -3  395.56    6.30
   2  -4  -3  395.06    6.10
   2   4  -3  395.66    6.40
  -2   4   3  400.36    6.50
   2   4  -3  396.26    6.30
   1  -4  -3  295.77    4.80
  -1  -4   3  302.07    4.90
  -1   4   3  310.37    5.00
   1   4  -3  293.97    4.90
   1   4  -3  298.97    4.70
  -1   4   3  302.57    4.70
   0  -4   3  258.67    4.30
   0  -4  -3  252.17    4.10
   0  -4  -3  259.87    4.30
   0   4  -3  258.87    4.30
   0   4   3  258.47    4.10
   0   4  -3  259.87    4.20
   1  -4   3  263.47    4.40
  -1  -4  -3  266.07    4.40
   1   4   3  268.67    4.40
  -1   4  -3  264.87    4.40
  -1   4  -3  266.37    4.40
   1   4   3  263.07    4.10
  -2  -4  -3  236.48    4.00
   2  -4   3  233.38    4.00
   2   4   3  236.08    3.70
  -2   4  -3  229.28    4.00
   2   4   3  237.68    4.00
  -2   4  -3  240.78    4.10
   3  -4   3   30.30    1.00
  -3  -4  -3   30.50    0.90
   3   4   3   31.80    1.00
  -3   4  -3   30.10    1.10
  -3   4  -3   29.00    0.90
   4  -4   3   43.50    1.20
   4  -4   3   41.30    1.20
  -4  -4  -3   42.10    1.20
   4   4   3   41.90    1.30
  -4   4  -3   41.60    1.40
   5  -4   3    6.40    0.60
   5  -4   3    5.40    0.60
   5   4   3    6.20    0.70
  -5   4  -3    6.50    0.80
   6  -4   3   63.99    1.80
   6   4   3   66.09    1.90
  -6   4  -3   70.29    2.10
   6  -5  -3   92.99    2.30
   6   5  -3   91.19    2.10
  -6   5   3   98.09    2.50
   6   5  -3  102.29    2.30
   5  -5  -3  115.19    2.50
  -5   5   3  112.59    2.60
   5   5  -3  113.09    2.30
   5   5  -3  117.59    2.50
   4  -5  -3  173.58    3.30
   4   5  -3  180.68    3.30
  -4   5   3  178.88    3.50
   4   5  -3  178.28    3.20
   3  -5  -3  257.57    4.40
  -3   5   3  253.37    4.50
   3   5  -3  251.07    4.40
   3   5  -3  248.68    4.30
   2  -5  -3   87.99    1.80
   2  -5  -3   91.29    1.60
   2   5  -3   91.79    1.80
   2   5  -3   91.09    1.90
  -2   5   3   85.29    1.90
   1  -5  -3  240.98    3.90
  -1  -5   3  224.28    4.00
   1   5  -3  243.28    3.70
   1   5  -3  237.78    4.00
  -1   5   3  233.08    4.10
  -1   5   3  235.18    3.80
   0  -5   3   88.29    1.80
   0  -5  -3   89.49    1.80
   0   5   3   89.69    1.70
   0   5  -3   88.89    1.80
   0   5   3   90.79    1.70
   0   5  -3   89.39    1.70
   1  -5   3  125.19    2.30
  -1  -5  -3  120.99    2.30
   1   5   3  122.29    2.10
  -1   5  -3  124.19    2.30
  -1   5  -3  123.99    2.30
   1   5   3  120.49    2.30
  -2  -5  -3   34.20    1.00
   2  -5   3   32.70    1.00
  -2   5  -3   34.70    1.10
   2   5   3   34.40    1.00
  -2   5  -3   33.10    1.00
   3  -5   3  636.84   10.10
  -3  -5  -3  623.94   10.00
   3   5   3  629.64   10.10
  -3   5  -3  632.34   10.20
  -3   5  -3  637.84   10.10
   4  -5   3   16.60    0.80
   4  -5   3   15.60    0.80
   4   5   3   15.30    0.90
  -4   5  -3   17.10    1.00
   5  -5   3   90.99    2.10
   5  -5   3   92.09    2.10
   5   5   3   92.19    2.20
  -5   5  -3   90.39    2.30
   6  -5   3  123.69    2.70
   6   5   3  120.09    2.80
  -6   5  -3  120.59    3.00
   6  -6  -3   25.70    1.20
  -6   6   3   27.80    1.40
   6   6  -3   26.30    1.20
   6   6  -3   26.30    1.10
   5  -6  -3   12.70    0.90
  -5   6   3   11.30    1.00
   5   6  -3   12.30    0.80
   5   6  -3   11.50    0.90
   4  -6  -3   49.30    1.40
   4   6  -3   49.50    1.40
   4   6  -3   49.20    1.40
  -4   6   3   50.79    1.50
   3  -6  -3   87.99    1.90
   3   6  -3   88.19    2.00
  -3   6   3   89.49    2.10
   3   6  -3   89.49    1.90
   2  -6  -3   29.90    0.90
   2  -6  -3   30.90    0.80
  -2   6   3   30.10    1.10
   2   6  -3   31.60    1.00
  -1  -6   3  101.39    2.10
   1  -6  -3  106.19    2.00
  -1   6   3  108.19    2.00
   1   6  -3  104.89    2.10
  -1   6   3  108.89    2.20
   0  -6   3   32.40    1.00
   0   6   3   33.70    0.90
   0   6  -3   32.60    0.90
   0   6  -3   31.80    1.00
   0   6   3   31.30    0.90
  -1  -6  -3   15.40    0.70
   1  -6   3   15.40    0.80
  -1   6  -3   15.60    0.70
   1   6   3   15.10    0.70
   1   6   3   15.50    0.50
  -1   6  -3   15.00    0.70
  -2  -6  -3  256.87    4.50
   2  -6   3  266.57    4.60
  -2   6  -3  267.87    4.60
  -2   6  -3  265.97    4.60
   2   6   3  264.47    4.50
   3  -6   3   80.69    1.90
  -3  -6  -3   82.99    2.30
  -3   6  -3   85.49    1.90
  -3   6  -3   84.29    2.00
   3   6   3   84.99    1.90
   4  -6   3   44.60    1.30
   4  -6   3   44.00    1.30
   4   6   3   43.60    1.40
  -4   6  -3   42.00    1.50
   5  -6   3   23.60    1.00
   5  -6   3   24.30    1.10
  -5   6  -3   23.30    1.30
   5   6   3   25.90    1.20
   6  -7  -3   20.00    1.20
  -6   7   3   19.60    1.30
   6   7  -3   19.40    1.10
   6   7  -3   21.60    1.20
   5  -7  -3   14.00    1.00
   5   7  -3   12.80    0.90
   5   7  -3   14.40    0.90
  -5   7   3   13.60    1.00
   4  -7  -3    7.40    0.70
   4   7  -3    8.70    0.70
   4   7  -3    7.90    0.70
  -4   7   3    8.30    0.80
   3  -7  -3   75.99    1.80
   3   7  -3   80.49    1.80
  -3   7   3   76.69    1.90
   3   7  -3   79.99    1.90
   2  -7  -3   22.30    0.90
  -2  -7   3   24.00    0.90
   2  -7  -3   22.60    0.70
   2   7  -3   23.20    0.90
  -2   7   3   22.40    1.00
  -1  -7   3   77.69    1.80
  -1   7   3   78.29    1.80
  -1   7   3   77.49    1.60
   1   7  -3   77.99    1.80
   0  -7   3    7.80    0.70
   0   7   3    6.50    0.50
   0   7  -3    7.40    0.60
   0   7   3    6.00    0.50
   0   7  -3    6.20    0.50
  -1  -7  -3  207.88    3.70
   1  -7   3  207.58    3.80
  -1   7  -3  207.08    3.70
  -1   7  -3  211.48    3.80
   1   7   3  211.18    3.50
   1   7   3  207.68    3.70
  -2  -7  -3   48.70    1.30
   2  -7   3   50.99    1.40
  -2   7  -3   49.99    1.40
  -2   7  -3   47.00    1.40
   2   7   3   49.10    1.30
   3  -7   3    0.40    0.40
   3   7   3    0.10    0.40
  -3   7  -3   -0.20    0.40
  -3   7  -3    0.00    0.40
   4  -7   3   18.40    1.00
   4  -7   3   20.80    1.00
  -4   7  -3   18.70    1.10
   4   7   3   18.30    1.00
   5  -7   3    1.60    0.50
   5  -7   3    1.20    0.50
   5   7   3    1.70    0.60
  -5   7  -3    1.40    0.60
   5  -8  -3    1.30    0.60
  -5   8   3    1.60    0.60
   5   8  -3    0.40    0.50
   5   8  -3    1.30    0.50
   4  -8  -3   45.10    1.50
   4   8  -3   45.20    1.40
   4   8  -3   43.60    1.40
  -4   8   3   42.90    1.60
   3  -8  -3   27.40    1.10
   3   8  -3   24.00    1.10
  -3   8   3   24.30    1.20
   3   8  -3   26.00    1.10
   2  -8  -3   78.19    1.80
  -2  -8   3   76.39    1.90
   2   8  -3   77.89    1.90
  -2   8   3   78.49    1.90
  -1  -8   3  308.17    5.40
   1   8  -3  304.87    5.40
  -1   8   3  318.67    5.40
  -1   8   3  315.97    5.20
   0  -8   3  217.08    4.00
   0   8  -3  224.78    4.10
   0   8   3  224.38    3.90
   0   8   3  221.28    3.90
  -1  -8  -3  150.88    2.90
   1  -8   3  149.09    3.00
  -1   8  -3  148.29    3.00
  -1   8  -3  150.78    2.80
   1   8   3  152.08    2.90
   2  -8   3   39.70    1.30
   2   8   3   37.50    1.30
  -2   8  -3   41.10    1.30
  -2   8  -3   38.60    1.30
   3  -8   3   66.49    1.70
  -3   8  -3   66.59    1.80
  -3   8  -3   65.89    1.80
   3   8   3   61.39    1.70
   4  -8   3   21.80    1.10
  -4   8  -3   23.20    1.20
   4   8   3   25.40    1.20
   5  -8   3   42.60    1.50
   5  -8   3   42.60    1.50
  -5   8  -3   49.60    1.80
   5   8   3   45.40    1.60
   5  -9  -3    7.20    0.80
  -5   9   3    7.20    0.90
   5   9  -3    7.70    0.80
   5   9  -3    7.00    0.80
   4  -9  -3   10.10    0.80
   4   9  -3    7.30    0.70
   4   9  -3    8.20    0.80
  -4   9   3    7.40    0.80
   3  -9  -3   54.49    1.60
   3   9  -3   52.99    1.60
  -3   9   3   53.39    1.70
   2  -9  -3    2.60    0.50
  -2  -9   3    2.10    0.50
   2   9  -3    2.90    0.60
  -2   9   3    3.10    0.60
  -1  -9   3   18.00    1.00
   1  -9  -3   17.20    0.80
   1   9  -3   18.60    1.00
  -1   9   3   18.20    1.00
  -1   9   3   17.60    0.90
   0  -9  -3  161.68    3.10
   0  -9   3  159.28    3.20
   0   9  -3  158.08    3.20
   0   9   3  160.28    3.00
   0   9   3  154.88    3.00
   1  -9   3    0.10    0.50
  -1   9  -3    0.40    0.40
   1   9   3    0.80    0.40
   2  -9   3    4.40    0.60
   2   9   3    3.70    0.60
  -2   9  -3    3.40    0.50
  -2   9  -3    3.90    0.60
   3  -9   3   67.29    1.80
  -3   9  -3   68.79    1.90
   3   9   3   69.99    1.90
  -3   9  -3   68.59    1.90
   4  -9   3   24.10    1.10
  -4   9  -3   26.90    1.30
   4   9   3   23.60    1.20
   4 -10  -3   13.00    1.00
   4  10  -3   13.00    1.00
   4  10  -3   16.50    1.10
  -4  10   3   15.00    1.20
  -3 -10   3    6.00    0.80
   3 -10  -3    5.60    0.70
   3  10  -3    5.80    0.70
  -3  10   3    5.30    0.80
   2 -10  -3   38.10    1.30
  -2 -10   3   39.40    1.50
  -2  10   3   38.60    1.50
   2  10  -3   38.40    1.40
   1 -10  -3   28.90    1.10
  -1 -10   3   26.20    1.20
  -1  10   3   25.00    1.20
   1  10  -3   29.40    1.20
   0 -10   3   96.19    2.30
   0  10  -3   98.79    2.30
   0  10   3   96.99    2.30
   0  10   3   97.19    2.20
   1 -10   3   18.80    1.10
   1  10   3   19.50    1.00
  -1  10  -3   18.20    1.00
   2 -10   3   36.60    1.40
   2  10   3   38.50    1.40
  -2  10  -3   39.70    1.50
   3 -10   3   34.60    1.40
   3  10   3   35.10    1.40
  -3  10  -3   33.70    1.40
  -3  10  -3   34.60    1.40
   3 -11  -3  107.19    2.60
  -3 -11   3  101.99    2.60
  -3  11   3  107.79    2.70
   3  11  -3  107.89    2.60
   2 -11  -3   38.00    1.40
  -2 -11   3   38.90    1.50
  -2  11   3   38.20    1.50
   2  11  -3   38.60    1.40
  -1 -11   3   36.80    1.50
   1  11  -3   34.90    1.40
   0 -11   3    4.50    0.70
   0  11  -3    6.60    0.70
   0  11   3    6.30    0.70
   1 -11   3   25.60    1.20
  -1  11  -3   24.20    1.20
   1  11   3   24.40    1.20
   2 -11   3   91.29    2.30
   2  11   3   94.39    2.30
  -2  11  -3   91.69    2.40
   7   0  -4    1.60    0.60
   6   0  -4    0.80    0.50
  -5   0   4    2.10    0.40
   5   0  -4    1.30    0.40
   4   0  -4  325.27    5.50
  -4   0   4  330.97    5.40
  -3   0   4  107.79    2.00
   3   0  -4  105.49    2.10
  -3   0   4  104.59    1.70
   2   0  -4  155.68    2.70
  -2   0   4  151.58    2.40
   1   0  -4   41.60    0.90
  -1   0   4   42.30    0.80
   1   0  -4   42.70    1.00
   0   0  -4 1286.97   20.10
   0   0   4 1302.07   20.50
   0   0  -4 1279.87   20.80
  -1   0  -4   28.50    0.90
  -1   0  -4   27.10    0.60
   1   0   4   28.80    0.80
   2   0   4  372.56    5.90
   2   0   4  380.16    5.70
  -2   0  -4  352.46    6.00
   3   0   4  726.03   11.40
  -3   0  -4  733.93   11.60
  -4   0  -4  186.18    3.50
   4   0   4  181.98    3.40
  -5   0  -4  201.28    3.90
   5   0   4  196.68    3.70
  -6   0  -4    1.00    0.60
   6   0   4    1.40    0.50
   7  -1  -4   49.90    1.70
   7   1  -4   50.39    1.70
   6  -1  -4   50.79    1.60
  -6   1   4   48.50    1.40
   6   1  -4   50.59    1.60
  -5  -1   4  245.68    4.20
   5  -1  -4  245.38    4.40
   5   1  -4  240.08    4.40
  -5   1   4  246.48    4.30
  -4  -1   4  145.29    2.60
   4  -1  -4  145.29    2.70
  -4   1   4  141.89    2.70
   4   1  -4  141.69    2.70
   4   1  -4  142.89    2.40
  -3  -1   4  344.77    5.50
   3  -1  -4  331.07    5.50
  -3   1   4  350.16    5.60
   3   1  -4  335.67    5.60
  -2  -1   4  373.46    5.90
   2  -1  -4  382.36    6.00
   2   1  -4  378.76    6.00
  -2   1   4  377.56    6.10
   2   1  -4  384.66    6.10
   1  -1  -4  454.55    7.00
  -1  -1   4  449.86    7.00
   1  -1  -4  449.36    7.20
   1   1  -4  454.95    7.10
  -1   1   4  457.05    7.00
   1   1  -4  458.55    7.10
   0  -1  -4  443.86    7.10
   0  -1  -4  454.75    6.90
   0  -1   4  439.26    6.90
   0   1  -4  437.96    7.00
   0   1   4  450.25    6.90
   0   1  -4  439.06    6.90
   1  -1   4  155.68    2.70
  -1  -1  -4  153.48    2.80
   1   1   4  152.78    2.60
  -1   1  -4  153.18    2.50
  -1   1  -4  153.68    2.80
   2  -1   4  328.17    5.30
  -2  -1  -4  321.37    5.40
  -2   1  -4  330.47    5.40
   2   1   4  321.47    5.30
  -2   1  -4  328.57    5.10
  -3  -1  -4  136.89    2.70
   3  -1   4  141.29    2.30
   3  -1   4  133.09    2.60
   3   1   4  135.79    2.60
  -3   1  -4  138.99    2.70
   4  -1   4   38.60    1.20
  -4  -1  -4   39.00    1.30
  -4   1  -4   37.60    1.30
   4   1   4   39.90    1.20
  -5  -1  -4   76.79    2.00
   5  -1   4   77.79    1.90
   5   1   4   78.29    1.90
  -5   1  -4   77.89    2.00
   6  -1   4   17.50    1.00
  -6  -1  -4   17.10    1.10
   6   1   4   16.80    1.00
  -6   1  -4   15.20    1.10
   7  -2  -4   17.30    1.10
   7   2  -4   18.10    1.20
  -7   2   4   18.30    1.10
   6  -2  -4   57.29    1.70
  -6   2   4   53.79    1.60
   6   2  -4   57.29    1.70
   5  -2  -4  134.79    2.70
  -5   2   4  130.79    2.70
   5   2  -4  126.89    2.70
   4  -2  -4  103.39    2.10
  -4  -2   4  102.49    1.90
  -4   2   4  103.69    2.20
   4   2  -4  100.99    2.10
   4   2  -4  101.49    1.90
   3  -2  -4  201.38    3.50
  -3   2   4  197.38    3.60
   3   2  -4  209.98    3.40
   3   2  -4  210.58    3.60
   3   2  -4  208.58    3.40
  -2  -2   4  128.29    2.20
   2  -2  -4  129.39    2.30
   2   2  -4  128.79    2.20
   2   2  -4  126.69    2.30
  -2   2   4  127.29    2.40
   1  -2  -4  123.39    2.10
  -1  -2   4  124.29    2.10
   1  -2  -4  119.29    2.30
   1   2  -4  122.19    2.10
   1   2  -4  120.79    2.20
  -1   2   4  121.49    2.00
   0  -2  -4  529.85    8.30
   0  -2  -4  542.45    8.50
   0  -2   4  538.35    8.40
   0   2  -4  539.65    8.30
   0   2   4  533.55    8.30
   0   2  -4  540.65    8.40
   1  -2   4  294.77    4.80
  -1  -2  -4  292.97    4.90
  -1   2  -4  292.67    4.90
  -1   2  -4  297.07    4.70
   1   2   4  298.97    4.80
  -2  -2  -4  234.58    4.10
   2  -2   4  239.88    4.00
  -2   2  -4  235.68    4.10
  -2   2  -4  239.68    3.90
   2   2   4  232.68    4.00
   3  -2   4   64.19    1.50
  -3  -2  -4   63.89    1.60
   3  -2   4   64.79    1.30
  -3   2  -4   66.29    1.60
   3   2   4   63.19    1.50
  -4  -2  -4   74.69    1.80
   4  -2   4   74.89    1.80
   4   2   4   78.19    1.80
  -4   2  -4   78.49    1.90
  -5  -2  -4   75.69    1.90
   5  -2   4   74.99    1.90
  -5   2  -4   81.29    2.10
   5   2   4   76.99    1.90
   6  -2   4  103.19    2.40
  -6  -2  -4   96.89    2.40
  -6   2  -4   99.49    2.60
   6   2   4  102.39    2.40
   7  -3  -4  179.88    3.70
   7   3  -4  183.98    3.80
  -7   3   4  182.18    3.80
   6  -3  -4   64.29    1.80
   6   3  -4   66.79    1.80
  -6   3   4   65.69    1.90
   5  -3  -4  147.89    2.90
  -5   3   4  142.19    3.00
   5   3  -4  143.29    2.90
   4  -3  -4   60.29    1.50
  -4   3   4   60.49    1.60
   4   3  -4   58.99    1.30
   4   3  -4   57.79    1.50
   3  -3  -4   32.60    1.00
  -3   3   4   31.90    1.00
   3   3  -4   30.50    1.00
   3   3  -4   33.00    0.90
   3   3  -4   31.90    0.70
   2  -3  -4  293.57    4.70
  -2  -3   4  294.07    4.70
   2   3  -4  286.07    4.80
  -2   3   4  278.27    4.80
   2   3  -4  292.77    4.60
  -1  -3   4  141.39    2.50
   1  -3  -4  139.89    2.40
  -1   3   4  141.79    2.30
   1   3  -4  142.19    2.50
   1   3  -4  139.59    2.40
   0  -3  -4   65.69    1.20
   0  -3   4   65.49    1.40
   0  -3  -4   67.19    1.50
   0   3  -4   66.49    1.40
   0   3   4   63.99    1.30
   0   3  -4   62.99    1.30
   1  -3   4  130.29    2.40
  -1  -3  -4  126.09    2.40
   1   3   4  131.69    2.30
  -1   3  -4  126.29    2.40
  -1   3  -4  127.99    2.30
  -2  -3  -4  392.46    6.50
   2  -3   4  387.86    6.40
   2   3   4  392.36    6.40
  -2   3  -4  399.36    6.30
  -2   3  -4  399.36    6.50
  -3  -3  -4  118.69    2.40
   3  -3   4  118.59    2.30
  -3   3  -4  113.79    2.20
  -3   3  -4  118.49    2.50
   3   3   4  115.19    2.30
  -4  -3  -4   94.19    2.10
   4  -3   4   91.59    2.00
   4  -3   4   90.79    1.90
  -4   3  -4   91.19    2.20
   4   3   4   88.09    2.00
   5  -3   4    7.00    0.60
  -5  -3  -4    9.10    0.80
  -5   3  -4    7.60    0.80
   5   3   4    6.80    0.70
   6  -3   4   74.59    1.90
  -6   3  -4   69.59    2.10
   6   3   4   69.19    1.90
   7  -4  -4   16.20    1.10
  -7   4   4   16.30    1.10
   7   4  -4   16.60    1.10
   6  -4  -4   91.79    2.30
   6   4  -4   94.99    2.30
  -6   4   4   94.69    2.40
   5  -4  -4  337.37    5.90
  -5   4   4  340.67    6.00
   5   4  -4  343.97    5.90
   5   4  -4  343.17    5.70
   4  -4  -4   59.69    1.50
  -4   4   4   65.59    1.70
   4   4  -4   65.59    1.60
   4   4  -4   60.79    1.40
   3  -4  -4  708.43   11.10
  -3   4   4  710.13   11.20
   3   4  -4  693.63   11.00
   3   4  -4  708.93   11.10
   2  -4  -4   72.49    1.30
   2  -4  -4   71.39    1.50
  -2  -4   4   74.29    1.60
   2   4  -4   75.19    1.60
   2   4  -4   74.99    1.30
  -2   4   4   74.39    1.70
   1  -4  -4  105.89    1.90
  -1  -4   4  108.79    2.00
   1   4  -4  106.89    1.90
  -1   4   4  105.09    2.10
   1   4  -4  104.39    2.10
  -1   4   4  106.99    1.80
   0  -4   4  213.78    3.70
   0  -4  -4  217.08    3.80
   0  -4  -4  218.88    3.40
   0   4  -4  214.08    3.70
   0   4  -4  215.48    3.60
   0   4   4  216.58    3.50
  -1  -4  -4   86.19    1.40
  -1  -4  -4   83.69    1.80
   1  -4   4   82.99    1.80
  -1   4  -4   87.29    1.80
   1   4   4   87.29    1.70
  -1   4  -4   87.99    1.70
   2  -4   4  213.58    3.80
  -2  -4  -4  211.78    3.80
   2   4   4  218.18    3.70
  -2   4  -4  210.88    3.80
  -2   4  -4  219.48    3.70
   3  -4   4  106.29    2.20
  -3  -4  -4  109.79    2.30
  -3   4  -4  108.79    2.20
  -3   4  -4  106.99    2.30
   3   4   4  109.99    2.20
   4  -4   4  503.25    8.10
   4  -4   4  505.35    8.30
  -4  -4  -4  505.85    8.30
   4   4   4  510.05    8.30
  -4   4  -4  504.55    8.50
   5  -4   4   58.99    1.60
   5   4   4   57.49    1.70
  -5   4  -4   57.49    1.80
   6  -4   4   29.40    1.20
   6   4   4   25.30    1.30
  -6   4  -4   28.20    1.40
   6  -5  -4  107.09    2.50
  -6   5   4  102.09    2.60
   6   5  -4  101.39    2.40
   5  -5  -4   26.20    1.10
   5   5  -4   26.10    1.10
   5   5  -4   25.50    0.90
  -5   5   4   23.20    1.20
   4  -5  -4   62.29    1.60
   4   5  -4   58.99    1.60
   4   5  -4   60.99    1.50
  -4   5   4   59.99    1.70
   3  -5  -4  336.37    5.70
   3   5  -4  346.77    5.80
  -2  -5   4  300.37    5.00
   2  -5  -4  301.37    5.00
   2   5  -4  299.57    5.10
  -2   5   4  300.57    5.20
  -1  -5   4  187.58    3.40
   1  -5  -4  192.78    3.20
   1   5  -4  193.28    3.20
  -1   5   4  191.48    3.50
   1   5  -4  191.08    3.40
  -1   5   4  196.98    3.20
   0  -5   4   62.39    1.50
   0  -5  -4   61.49    1.50
   0  -5  -4   63.89    1.20
   0   5   4   62.49    1.30
   0   5  -4   63.59    1.30
  -1  -5  -4  205.08    3.70
   1  -5   4  212.58    3.70
  -1   5  -4  206.38    3.70
  -1   5  -4  211.38    3.70
   1   5   4  210.98    3.60
  -2  -5  -4  209.18    3.80
   2  -5   4  213.58    3.80
  -2   5  -4  212.68    3.70
   2   5   4  214.18    3.70
  -2   5  -4  214.18    3.80
   3  -5   4  157.68    3.00
  -3  -5  -4  157.38    3.00
   3   5   4  157.38    3.00
  -3   5  -4  157.38    3.00
  -3   5  -4  156.88    3.10
  -4  -5  -4    1.00    0.40
   4  -5   4    0.60    0.50
   4  -5   4    0.40    0.40
   4   5   4    0.80    0.40
  -4   5  -4    1.10    0.50
   5  -5   4   62.99    1.80
  -5   5  -4   64.29    1.90
   5   5   4   63.39    1.80
   6  -6  -4   36.60    1.50
  -6   6   4   36.10    1.50
   6   6  -4   35.90    1.40
   5  -6  -4   65.99    1.80
   5   6  -4   69.99    1.90
   5   6  -4   69.79    1.70
  -5   6   4   68.99    2.00
   4  -6  -4   40.40    1.30
   4   6  -4   38.40    1.30
  -4   6   4   39.30    1.40
   4   6  -4   41.80    1.20
   3  -6  -4  105.49    2.20
  -3   6   4  106.69    2.40
   3   6  -4  103.49    2.20
  -2  -6   4  106.89    2.20
   2  -6  -4  102.39    2.10
   2   6  -4  103.89    2.20
  -2   6   4  108.19    2.30
  -1  -6   4  237.68    4.20
   1  -6  -4  235.78    4.00
  -1   6   4  237.28    3.90
  -1   6   4  240.28    4.20
   1   6  -4  238.58    4.20
   0  -6  -4  497.25    7.60
   0  -6   4  481.75    7.90
   0  -6  -4  480.95    7.90
   0   6  -4  484.75    7.90
   0   6   4  480.55    7.70
   0   6  -4  492.35    7.70
   1  -6   4  165.98    3.10
  -1  -6  -4  164.88    3.10
   1   6   4  168.38    3.00
  -1   6  -4  164.88    3.00
  -1   6  -4  169.68    3.10
  -2  -6  -4   56.99    1.40
   2  -6   4   55.49    1.50
   2   6   4   55.09    1.40
  -2   6  -4   58.19    1.50
  -2   6  -4   56.39    1.50
  -3  -6  -4   52.89    1.40
   3  -6   4   53.79    1.50
  -3   6  -4   53.99    1.60
  -3   6  -4   53.79    1.50
   3   6   4   52.39    1.50
   4  -6   4   72.99    1.90
   4   6   4   71.79    1.90
  -4   6  -4   73.59    2.00
   5  -6   4  125.79    2.70
   5  -6   4  121.79    2.60
   5   6   4  126.99    2.80
  -5   6  -4  122.59    2.90
   6  -7  -4   14.00    1.10
   6   7  -4   14.70    1.00
   6   7  -4   14.60    1.10
  -6   7   4   14.50    1.20
   5  -7  -4   31.70    1.30
  -5   7   4   31.60    1.40
   5   7  -4   31.30    1.20
   5   7  -4   31.90    1.30
   4  -7  -4   50.39    1.50
  -4   7   4   47.60    1.60
   4   7  -4   48.90    1.50
   4   7  -4   51.69    1.50
   3  -7  -4  171.08    3.30
  -3  -7   4  173.18    3.40
   3   7  -4  176.28    3.40
  -3   7   4  172.78    3.50
   2  -7  -4   26.20    0.90
  -2  -7   4   24.30    1.00
  -2   7   4   24.70    1.10
   2   7  -4   25.50    1.00
   1  -7  -4   80.19    1.70
   1   7  -4   82.09    1.90
  -1   7   4   79.29    1.90
  -1   7   4   80.29    1.60
   0  -7  -4   58.39    1.30
   0  -7   4   58.59    1.50
   0  -7  -4   59.19    1.50
   0   7   4   58.79    1.40
   0   7  -4   58.49    1.30
   0   7  -4   58.19    1.50
  -1  -7  -4   32.10    1.10
   1  -7   4   33.10    1.10
  -1   7  -4   33.10    1.10
   1   7   4   34.30    1.00
  -1   7  -4   31.90    1.00
   2  -7   4   89.89    2.10
  -2  -7  -4   90.59    2.00
  -2   7  -4   89.19    2.00
  -2   7  -4   87.09    2.00
   2   7   4   88.69    2.00
   3  -7   4   22.50    1.00
   3   7   4   24.30    1.00
  -3   7  -4   24.30    1.10
  -3   7  -4   23.40    1.00
   4  -7   4   84.69    2.10
   4   7   4   81.89    2.10
  -4   7  -4   83.59    2.20
   5  -7   4   33.20    1.30
   5  -7   4   34.80    1.30
  -5   7  -4   32.40    1.50
   5   7   4   29.70    1.40
   5  -8  -4    2.40    0.60
  -5   8   4    1.00    0.70
   5   8  -4    2.00    0.60
   5   8  -4    2.60    0.60
   4  -8  -4    4.70    0.60
  -4   8   4    5.50    0.70
   4   8  -4    5.40    0.70
   4   8  -4    5.70    0.70
  -3  -8   4    0.10    0.50
   3  -8  -4    0.20    0.40
   3   8  -4   -0.20    0.40
  -3   8   4    0.40    0.50
   2  -8  -4   42.00    1.20
  -2  -8   4   43.60    1.40
   2   8  -4   41.60    1.40
  -2   8   4   43.30    1.50
   1  -8  -4    5.30    0.50
  -1  -8   4    5.30    0.60
  -1   8   4    5.30    0.50
  -1   8   4    5.00    0.60
   1   8  -4    4.40    0.60
   0  -8  -4   27.40    1.00
   0  -8   4   27.40    1.10
   0   8  -4   26.10    1.00
   0   8   4   27.30    1.00
   1  -8   4    9.50    0.80
  -1  -8  -4    9.50    0.70
  -1   8  -4   10.50    0.80
   1   8   4   11.30    0.70
  -1   8  -4   10.30    0.70
   2  -8   4   29.30    1.20
  -2   8  -4   31.10    1.20
   2   8   4   30.30    1.10
  -2   8  -4   30.00    1.20
   3  -8   4    3.10    0.60
  -3   8  -4    2.60    0.60
  -3   8  -4    2.70    0.60
   3   8   4    2.50    0.60
   4  -8   4   11.00    0.90
  -4   8  -4    9.30    0.90
   4   8   4    9.20    0.80
   4  -9  -4   46.80    1.50
  -4   9   4   44.00    1.70
   4   9  -4   42.90    1.50
   3  -9  -4   57.29    1.60
  -3   9   4   57.99    1.80
   3   9  -4   61.69    1.80
   2  -9  -4    0.80    0.40
  -2  -9   4    0.70    0.50
   2   9  -4    0.60    0.50
  -2   9   4    0.80    0.50
   1  -9  -4  110.19    2.30
  -1  -9   4  120.09    2.60
  -1   9   4  115.19    2.60
   1   9  -4  114.99    2.60
   0  -9  -4   73.79    1.90
   0  -9   4   77.39    2.00
   0   9   4   75.29    1.80
   0   9  -4   76.09    2.00
   1  -9   4   56.09    1.60
  -1   9  -4   53.79    1.60
   1   9   4   52.89    1.50
   2  -9   4   32.30    1.30
  -2   9  -4   29.50    1.20
  -2   9  -4   27.90    1.20
   2   9   4   32.60    1.20
   3  -9   4   34.40    1.30
  -3   9  -4   34.50    1.40
   3   9   4   34.60    1.30
  -3   9  -4   32.60    1.40
  -4 -10   4   71.49    2.10
   4 -10  -4   72.59    2.00
   4  10  -4   69.99    2.00
  -4  10   4   72.89    2.20
   3 -10  -4   14.00    1.00
  -3 -10   4   15.00    1.10
  -3  10   4   16.50    1.10
   3  10  -4   15.00    1.10
   2 -10  -4    4.90    0.60
  -2 -10   4    4.80    0.60
   2  10  -4    5.40    0.70
  -2  10   4    3.80    0.70
  -1 -10   4   58.59    1.80
   1 -10  -4   57.09    1.50
  -1  10   4   58.19    1.70
   1  10  -4   57.39    1.70
   0 -10   4  169.28    3.50
   0  10   4  169.48    3.30
   0  10  -4  168.68    3.50
   1 -10   4   47.10    1.60
   1  10   4   44.20    1.40
  -1  10  -4   45.80    1.60
   2 -10   4    7.50    0.80
  -2  10  -4    6.30    0.80
   2  10   4    6.40    0.70
   3 -10   4   75.39    2.10
  -3  10  -4   75.19    2.10
   3  10   4   75.39    2.10
  -3  10  -4   75.09    2.10
   2 -11  -4    0.50    0.50
  -2 -11   4    0.40    0.50
   2  11  -4    0.40    0.50
  -2  11   4    0.10    0.60
  -1 -11   4  120.39    2.90
   1  11  -4  120.99    2.80
   0 -11   4   58.79    1.80
   0  11  -4   58.39    1.80
   1 -11   4   67.29    2.00
  -1  11  -4   68.29    2.00
   1  11   4   70.99    1.90
   7   0  -5   13.10    1.10
   6   0  -5  169.28    3.40
   5   0  -5   18.90    1.00
  -5   0   5   18.80    0.80
  -4   0   5    2.10    0.40
   4   0  -5    2.00    0.40
  -3   0   5   94.59    1.90
   3   0  -5   96.19    2.00
  -2   0   5  398.06    6.10
   2   0  -5  404.36    6.50
   2   0  -5  395.06    6.40
   1   0  -5  542.15    8.60
  -1   0   5  552.14    8.40
   1   0  -5  539.15    8.50
   0   0   5  188.28    3.10
   0   0  -5  191.18    3.10
   0   0  -5  186.98    3.30
   1   0   5    6.30    0.40
  -1   0  -5    6.30    0.30
  -1   0  -5    6.20    0.50
  -2   0  -5  180.68    3.40
   2   0   5  186.88    3.20
   3   0   5  121.89    2.40
  -3   0  -5  119.39    2.50
   4   0   5    3.60    0.50
  -4   0  -5    1.70    0.50
  -5   0  -5    4.40    0.70
   5   0   5    4.50    0.60
   6   0   5   66.59    1.90
  -6   0  -5   68.59    2.00
   7  -1  -5    1.90    0.60
   7   1  -5    1.80    0.60
   6  -1  -5    0.70    0.50
  -6   1   5    0.80    0.50
   6   1  -5    0.80    0.50
   5  -1  -5  268.77    4.80
   5   1  -5  271.37    4.80
  -5   1   5  272.97    4.80
   4  -1  -5  111.29    2.30
  -4  -1   5  109.39    2.10
  -4   1   5  107.79    2.30
   4   1  -5  113.99    2.30
  -3  -1   5  385.66    6.10
   3  -1  -5  386.46    6.40
  -3   1   5  391.46    6.40
   3   1  -5  394.56    6.40
   3   1  -5  397.16    6.30
  -2  -1   5  206.88    3.40
   2  -1  -5  213.48    3.60
   2  -1  -5  215.58    3.70
  -2   1   5  212.28    3.30
   2   1  -5  203.68    3.60
   2   1  -5  212.58    3.60
   1  -1  -5  900.91   14.00
  -1  -1   5  900.71   13.80
   1  -1  -5  907.01   14.30
   1   1  -5  896.61   14.30
   1   1  -5  918.71   13.90
  -1   1   5  899.41   13.80
   0  -1  -5   35.90    0.80
   0  -1   5   35.80    0.90
   0   1   5   36.20    0.80
   0   1  -5   37.00    0.80
   0   1  -5   34.70    1.00
   1  -1   5   15.50    0.60
  -1  -1  -5   16.00    0.40
  -1   1  -5   16.70    0.80
   1   1   5   16.80    0.60
  -1   1  -5   16.00    0.50
  -2  -1  -5  387.86    6.50
   2  -1   5  390.56    6.30
  -2   1  -5  390.76    6.10
  -2   1  -5  380.96    6.40
   2   1   5  388.46    6.30
  -3  -1  -5  187.98    3.50
   3  -1   5  187.08    3.40
   3   1   5  184.98    3.40
  -3   1  -5  185.08    3.50
   4  -1   5  204.38    3.80
  -4  -1  -5  208.58    3.90
  -4   1  -5  209.58    4.00
   4   1   5  206.08    3.80
   5  -1   5    5.50    0.60
  -5  -1  -5    5.70    0.70
   5   1   5    5.90    0.60
  -5   1  -5    5.10    0.70
   6  -1   5  165.08    3.40
  -6  -1  -5  164.28    3.50
  -6   1  -5  161.98    3.60
   6   1   5  168.48    3.50
   7  -2  -5   45.40    1.60
  -7   2   5   45.20    1.60
   7   2  -5   45.90    1.60
   6  -2  -5   38.60    1.40
  -6   2   5   39.30    1.40
   6   2  -5   37.30    1.40
   5  -2  -5  105.19    2.30
   5   2  -5  104.29    2.30
  -5   2   5  103.59    2.30
   4  -2  -5   56.09    1.40
   4   2  -5   56.59    1.50
  -4   2   5   57.59    1.50
   3  -2  -5  121.99    2.40
  -3  -2   5  125.99    2.20
   3   2  -5  126.69    2.30
   3   2  -5  125.89    2.40
  -3   2   5  126.29    2.50
   2  -2  -5  145.09    2.60
  -2  -2   5  146.09    2.50
   2   2  -5  148.39    2.60
   2   2  -5  142.89    2.60
   1  -2  -5  657.33   10.00
   1  -2  -5  640.94   10.30
  -1  -2   5  652.13   10.00
  -1   2   5  653.73   10.10
   1   2  -5  648.84   10.10
   1   2  -5  644.34   10.10
   0  -2  -5  324.47    5.70
   0  -2  -5  347.87    5.30
   0  -2   5  343.57    5.50
   0   2  -5  346.77    5.60
   0   2   5  342.17    5.40
   0   2  -5  346.27    5.50
   1  -2   5   72.69    1.50
  -1  -2  -5   70.89    1.60
  -1   2  -5   71.99    1.60
   1   2   5   70.99    1.50
  -1   2  -5   69.69    1.40
  -2  -2  -5  139.79    2.70
   2  -2   5  141.49    2.60
  -2   2  -5  136.39    2.70
  -2   2  -5  138.69    2.40
   2   2   5  135.29    2.60
   3  -2   5  154.28    3.00
  -3  -2  -5  158.98    3.10
  -3   2  -5  161.78    3.20
   3   2   5  161.68    3.00
  -4  -2  -5    2.50    0.60
   4  -2   5    3.80    0.50
   4   2   5    2.90    0.50
  -4   2  -5    2.70    0.60
  -5  -2  -5   34.20    1.30
   5  -2   5   34.80    1.30
   5   2   5   34.20    1.30
  -5   2  -5   34.30    1.40
   6  -2   5  118.69    2.70
  -6  -2  -5  124.19    2.90
   6   2   5  119.19    2.80
  -6   2  -5  120.59    2.90
   7  -3  -5    8.70    0.90
   7   3  -5    7.00    0.80
  -7   3   5    9.00    0.90
   6  -3  -5   40.00    1.40
   6   3  -5   39.00    1.40
  -6   3   5   38.90    1.50
   5  -3  -5   60.19    1.70
   5   3  -5   61.49    1.70
  -5   3   5   59.09    1.70
   4  -3  -5  336.47    5.70
   4   3  -5  331.37    5.70
  -4   3   5  335.07    5.80
  -3  -3   5  193.88    3.30
   3  -3  -5  187.68    3.40
   3   3  -5  187.28    3.40
  -3   3   5  190.38    3.50
  -2  -3   5   15.80    0.60
   2  -3  -5   16.50    0.60
   2   3  -5   15.60    0.70
   2   3  -5   16.10    0.60
  -2   3   5   16.00    0.80
   1  -3  -5   44.70    1.00
   1  -3  -5   42.80    1.20
  -1  -3   5   44.30    1.10
   1   3  -5   45.20    1.10
  -1   3   5   45.10    0.90
   1   3  -5   44.70    1.10
   0  -3  -5   61.99    1.50
   0  -3   5   61.69    1.40
   0  -3  -5   60.89    1.10
   0   3   5   60.79    1.20
   0   3  -5   62.89    1.30
   0   3  -5   63.19    1.40
   1  -3   5    7.10    0.50
  -1  -3  -5    7.20    0.60
  -1   3  -5    7.20    0.50
   1   3   5    7.40    0.50
  -1   3  -5    7.00    0.60
   2  -3   5   28.00    0.90
  -2  -3  -5   29.10    1.00
   2   3   5   28.80    0.90
  -2   3  -5   27.90    0.80
  -2   3  -5   30.60    1.10
  -3  -3  -5  192.48    3.60
   3  -3   5  192.18    3.50
  -3   3  -5  191.58    3.40
  -3   3  -5  191.98    3.70
   3   3   5  193.58    3.50
   4  -3   5   35.40    1.20
  -4  -3  -5   35.70    1.30
  -4   3  -5   35.00    1.30
   4   3   5   35.70    1.20
   5  -3   5   63.39    1.80
  -5  -3  -5   65.59    1.90
  -5   3  -5   64.49    1.90
   5   3   5   65.89    1.80
   6  -4  -5   52.69    1.70
   6   4  -5   52.89    1.70
  -6   4   5   51.09    1.70
   5  -4  -5    4.70    0.60
  -5   4   5    5.60    0.70
   5   4  -5    4.10    0.60
   4  -4  -5  102.39    2.20
  -4   4   5  100.39    2.30
   4   4  -5   98.29    2.20
   3  -4  -5  427.06    7.00
  -3  -4   5  427.06    6.90
  -3   4   5  427.56    7.20
   3   4  -5  434.76    7.10
   2  -4  -5  337.47    5.50
  -2  -4   5  335.87    5.50
   2   4  -5  339.17    5.30
  -2   4   5  329.27    5.70
   2   4  -5  337.77    5.60
   1  -4  -5    4.20    0.40
  -1  -4   5    4.20    0.40
   1  -4  -5    3.70    0.50
   1   4  -5    4.00    0.40
   1   4  -5    3.20    0.40
  -1   4   5    3.60    0.30
   0  -4   5    0.60    0.30
   0  -4  -5    0.80    0.20
   0  -4  -5    0.90    0.40
   0   4  -5    0.60    0.30
   0   4  -5    0.80    0.30
   0   4   5    0.80    0.20
   1  -4   5  131.79    2.50
  -1  -4  -5  129.99    2.60
  -1   4  -5  135.69    2.50
  -1   4  -5  132.09    2.50
   1   4   5  132.89    2.40
   2  -4   5  435.66    7.20
  -2  -4  -5  445.56    7.30
  -2   4  -5  432.86    7.10
   2   4   5  444.86    7.20
  -2   4  -5  446.86    7.30
  -3  -4  -5  242.38    4.40
   3  -4   5  244.28    4.30
   3   4   5  235.58    4.30
  -3   4  -5  242.78    4.20
  -3   4  -5  234.88    4.40
   4  -4   5   26.50    1.10
  -4  -4  -5   26.00    1.10
   4   4   5   25.10    1.10
  -4   4  -5   25.20    1.20
  -5  -4  -5   67.79    1.90
   5  -4   5   69.19    1.90
   5   4   5   63.99    1.80
  -5   4  -5   68.69    2.00
   6  -5  -5   46.70    1.60
  -6   5   5   48.50    1.70
   6   5  -5   46.10    1.60
   5  -5  -5   10.20    0.90
  -5   5   5    9.10    0.80
   5   5  -5   10.50    0.90
  -4  -5   5  497.45    8.00
   4  -5  -5  486.65    8.10
   4   5  -5  492.25    8.10
  -4   5   5  486.45    8.20
   3  -5  -5   33.20    1.00
  -3  -5   5   30.90    1.00
  -3   5   5   27.10    1.10
   3   5  -5   31.70    1.10
  -2  -5   5   40.30    1.10
   2  -5  -5   40.00    1.00
  -2   5   5   43.20    1.30
   2   5  -5   39.80    1.20
   1  -5  -5  525.05    8.20
  -1  -5   5  531.55    8.40
   1  -5  -5  520.55    8.60
   1   5  -5  523.75    8.20
   1   5  -5  518.45    8.40
  -1   5   5  530.35    8.20
   0  -5  -5  582.84    9.40
   0  -5   5  586.04    9.20
   0   5  -5  577.64    9.10
   0   5   5  569.44    9.10
   0   5  -5  582.94    9.20
   1  -5   5  201.68    3.60
  -1  -5  -5  201.18    3.70
  -1   5  -5  199.18    3.60
  -1   5  -5  202.28    3.60
   1   5   5  197.18    3.50
   2  -5   5    5.80    0.50
  -2  -5  -5    6.70    0.60
  -2   5  -5    6.40    0.60
  -2   5  -5    7.10    0.60
   2   5   5    6.40    0.60
   3  -5   5   57.79    1.60
  -3  -5  -5   59.19    1.60
  -3   5  -5   61.29    1.70
  -3   5  -5   61.49    1.50
   3   5   5   58.19    1.50
   4  -5   5  102.09    2.30
  -4  -5  -5  105.59    2.40
  -4   5  -5   98.29    2.50
   4   5   5  100.49    2.30
   5  -5   5   29.60    1.30
   5   5   5   30.30    1.30
  -5   5  -5   28.50    1.40
   6  -6  -5   17.00    1.10
  -6   6   5   18.70    1.30
   6   6  -5   18.00    1.20
   5  -6  -5   17.20    1.10
   5   6  -5   18.20    0.90
   5   6  -5   17.60    1.10
  -5   6   5   17.30    1.10
  -4  -6   5   86.29    2.00
   4  -6  -5   86.69    2.00
   4   6  -5   90.19    2.10
  -4   6   5   85.49    2.20
  -3  -6   5  158.88    3.00
   3  -6  -5  154.18    2.90
   3   6  -5  150.88    3.10
  -3   6   5  156.08    3.20
  -2  -6   5  267.97    4.70
   2  -6  -5  272.17    4.60
  -2   6   5  269.67    4.80
   2   6  -5  270.37    4.80
   1  -6  -5   54.19    1.20
  -1  -6   5   53.69    1.40
   1  -6  -5   55.19    1.50
   1   6  -5   54.99    1.40
  -1   6   5   52.89    1.30
   0  -6  -5   33.30    1.10
   0  -6   5   32.30    1.10
   0   6  -5   31.50    1.00
   0   6   5   30.20    0.90
   0   6  -5   31.20    1.10
  -1  -6  -5  105.59    2.30
   1  -6   5  105.89    2.30
   1   6   5  103.29    2.10
  -1   6  -5  108.69    2.20
  -1   6  -5  108.59    2.20
  -2  -6  -5   58.49    1.60
   2  -6   5   60.69    1.60
  -2   6  -5   58.09    1.60
  -2   6  -5   59.59    1.50
   2   6   5   59.59    1.50
  -3  -6  -5   26.80    1.10
   3  -6   5   29.10    1.20
  -3   6  -5   28.10    1.10
  -3   6  -5   27.00    1.20
   3   6   5   26.10    1.10
   4  -6   5    8.80    0.80
   4   6   5    7.30    0.70
  -4   6  -5    8.10    0.90
   5  -6   5   12.60    1.00
   5   6   5   14.90    1.10
  -5   6  -5   13.30    1.10
   5  -7  -5    9.00    0.80
   5   7  -5   10.30    0.90
  -5   7   5    8.50    0.90
   4  -7  -5   50.19    1.50
  -4  -7   5   51.79    1.50
  -4   7   5   46.60    1.60
   4   7  -5   49.99    1.60
  -3  -7   5    9.30    0.80
   3  -7  -5   10.90    0.80
  -3   7   5    9.50    0.80
   3   7  -5    9.50    0.80
   2  -7  -5   18.00    0.80
  -2  -7   5   17.20    0.90
  -2   7   5   18.80    1.00
   2   7  -5   16.70    0.90
   1  -7  -5   21.70    0.80
   1  -7  -5   22.20    1.00
  -1  -7   5   23.10    1.00
   1   7  -5   23.20    1.00
   0  -7   5  183.68    3.40
   0  -7  -5  176.58    3.50
   0   7  -5  180.68    3.40
   0   7   5  178.08    3.20
  -1  -7  -5  117.49    2.50
   1  -7   5  107.89    2.40
  -1   7  -5  111.79    2.30
   1   7   5  112.19    2.30
  -1   7  -5  114.99    2.40
  -2  -7  -5   11.20    0.80
   2  -7   5   13.20    0.90
  -2   7  -5   11.30    0.80
  -2   7  -5   11.50    0.80
   2   7   5    9.80    0.80
   3  -7   5   50.59    1.50
   3   7   5   49.10    1.50
  -3   7  -5   52.69    1.60
  -3   7  -5   51.69    1.50
   4  -7   5   55.19    1.70
  -4   7  -5   50.89    1.60
  -4   7  -5   50.59    1.70
   4   7   5   53.59    1.70
   5  -8  -5   20.00    1.10
  -5   8   5   15.70    1.20
   5   8  -5   17.60    1.20
   4  -8  -5    3.70    0.60
  -4  -8   5    3.80    0.60
   4   8  -5    2.20    0.60
  -4   8   5    2.20    0.60
  -3  -8   5    8.30    0.70
   3  -8  -5    6.90    0.70
   3   8  -5   10.40    0.80
  -3   8   5    9.30    0.90
  -2  -8   5  166.68    3.30
   2  -8  -5  166.38    3.10
   2   8  -5  165.58    3.30
  -2   8   5  157.08    3.30
   1  -8  -5   19.20    1.00
  -1  -8   5   19.10    1.00
   1   8  -5   17.40    1.00
   0  -8  -5   18.70    1.00
   0  -8   5   19.70    1.00
   0   8   5   18.50    0.80
   0   8  -5   19.50    1.00
  -1  -8  -5  108.09    2.40
   1  -8   5  104.79    2.40
   1   8   5  104.99    2.30
  -1   8  -5  106.99    2.90
  -1   8  -5  110.09    2.40
   2  -8   5   55.49    1.60
  -2   8  -5   53.09    1.60
  -2   8  -5   55.19    1.60
   2   8   5   53.29    1.50
   3  -8   5  125.89    2.80
   3   8   5  124.39    2.70
  -3   8  -5  127.99    2.80
  -3   8  -5  122.39    2.80
   4  -8   5   45.20    1.60
   4   8   5   44.70    1.60
  -4   8  -5   45.20    1.70
  -4   8  -5   43.90    1.60
   4  -9  -5    4.00    0.70
  -4  -9   5    5.20    0.70
  -4   9   5    5.40    0.80
   4   9  -5    4.80    0.70
   3  -9  -5   17.10    0.90
  -3  -9   5   18.90    1.10
   3   9  -5   16.80    1.10
  -3   9   5   14.80    1.10
  -2  -9   5   24.60    1.20
   2  -9  -5   27.80    1.00
   2   9  -5   25.30    1.20
  -2   9   5   28.10    1.30
   1  -9  -5  267.17    4.90
  -1  -9   5  264.07    4.90
   1   9  -5  262.07    4.90
   0  -9  -5   44.10    1.50
   0  -9   5   44.40    1.50
   0   9   5   46.90    1.60
   0   9  -5   45.20    1.50
   1  -9   5  176.78    3.60
  -1  -9  -5  179.18    3.60
  -1   9  -5  179.48    3.60
   1   9   5  185.28    3.50
   2  -9   5   27.90    1.30
   2   9   5   27.50    1.20
  -2   9  -5   27.70    1.20
  -2   9  -5   27.50    1.20
   3  -9   5   24.20    1.20
  -3   9  -5   24.80    1.20
  -3   9  -5   24.20    1.20
   3   9   5   26.00    1.20
   3 -10  -5    1.20    0.50
  -3 -10   5    2.60    0.60
  -3  10   5    2.40    0.70
   3  10  -5    1.40    0.60
  -2 -10   5   57.59    1.80
   2 -10  -5   57.49    1.80
  -2  10   5   57.39    1.90
   2  10  -5   58.19    1.80
   1 -10  -5   42.20    1.60
  -1 -10   5   44.10    1.60
   1  10  -5   43.50    1.50
   0 -10  -5  122.69    2.80
   0 -10   5  123.39    2.90
   0  10  -5  128.29    2.90
   1 -10   5    6.70    0.80
  -1  10  -5    7.90    0.80
   1  10   5    8.30    0.70
   2 -10   5   57.69    1.80
  -2  10  -5   59.59    1.90
   2  10   5   55.79    1.70
   1 -11  -5   55.29    1.80
  -1 -11   5   54.99    1.80
   1  11  -5   51.39    1.80
   0 -11   5   49.90    1.70
   0  11  -5   50.69    1.70
   7   0  -6    1.30    0.60
   6   0  -6   90.99    2.30
  -5   0   6   39.80    1.20
  -4   0   6  601.24    9.70
   4   0  -6  609.64    9.80
   3   0  -6  377.86    6.30
   3   0  -6  393.86    6.40
  -2   0   6   13.60    0.40
   2   0  -6   13.00    0.60
   2   0  -6   14.20    0.70
  -1   0   6  269.17    4.30
   1   0  -6  267.37    4.40
   1   0  -6  271.37    4.60
   0   0  -6  328.37    5.40
   0   0  -6  322.57    5.10
   0   0   6  311.57    5.20
   1   0   6  670.43   10.50
  -1   0  -6  667.33   10.70
  -2   0  -6  168.18    3.20
   2   0   6  164.88    3.00
   3   0   6   60.89    1.60
  -3   0  -6   61.79    1.70
   4   0   6   23.30    1.00
  -4   0  -6   21.80    1.10
  -5   0  -6   91.29    2.40
   5   0   6   92.59    2.20
   7  -1  -6   12.90    1.10
   7   1  -6   13.10    1.10
   6  -1  -6   16.40    1.10
  -6   1   6   16.50    0.90
   6   1  -6   14.10    1.00
   5  -1  -6   31.90    1.20
   5   1  -6   34.70    1.30
  -5   1   6   32.40    1.20
   4  -1  -6   27.70    1.10
   4   1  -6   27.60    1.00
   4   1  -6   27.20    1.10
  -4   1   6   28.20    1.00
   3  -1  -6   41.80    1.20
   3  -1  -6   43.30    1.20
   3   1  -6   42.20    1.10
   3   1  -6   41.60    1.20
   2  -1  -6  679.33   10.70
  -2  -1   6  677.23   10.40
   2  -1  -6  670.23   10.50
   2   1  -6  677.83   10.60
   2   1  -6  672.13   10.60
  -1  -1   6  309.67    5.00
   1  -1  -6  310.97    5.20
   1  -1  -6  305.87    5.00
  -1   1   6  309.87    4.90
   1   1  -6  306.37    5.20
   1   1  -6  306.47    5.00
   0  -1  -6  535.35    8.20
   0  -1   6  526.45    8.30
   0  -1  -6  526.85    8.60
   0   1   6  533.45    8.30
   0   1  -6  533.55    8.50
   0   1  -6  529.75    8.30
  -1  -1  -6  173.58    3.30
   1  -1   6  172.88    3.10
  -1   1  -6  170.48    2.90
   1   1   6  178.58    3.10
  -2  -1  -6   20.90    1.00
   2  -1   6   21.90    0.80
  -2   1  -6   21.70    1.00
   2   1   6   22.50    0.80
  -3  -1  -6    1.80    0.60
   3  -1   6    1.70    0.50
   3   1   6    1.20    0.40
  -3   1  -6    1.70    0.50
  -4  -1  -6   12.20    1.00
   4  -1   6   11.30    0.80
  -4   1  -6    9.90    0.90
   4   1   6   10.80    0.80
   5  -1   6   58.09    1.70
  -5  -1  -6   58.29    1.80
   5   1   6   59.49    1.70
  -5   1  -6   57.19    1.90
   6  -2  -6   73.29    2.00
  -6   2   6   71.29    1.90
   6   2  -6   72.29    2.00
   5  -2  -6    2.00    0.50
  -5   2   6    1.00    0.50
   5   2  -6    1.90    0.50
   4  -2  -6  351.16    5.90
   4   2  -6  345.07    5.90
  -4   2   6  348.97    6.00
  -3  -2   6   93.69    1.80
   3  -2  -6   92.39    1.90
   3   2  -6   93.49    1.90
  -3   2   6   95.19    2.10
   3   2  -6   95.29    2.00
   2  -2  -6   67.29    1.40
  -2  -2   6   66.69    1.40
   2  -2  -6   68.09    1.60
   2   2  -6   66.19    1.50
   2   2  -6   67.09    1.50
   1  -2  -6   87.49    2.00
   1  -2  -6   91.19    1.70
  -1  -2   6   92.99    1.80
  -1   2   6   92.39    1.60
   1   2  -6   90.09    1.90
   1   2  -6   92.89    1.80
   0  -2  -6  100.49    1.70
   0  -2  -6   95.49    2.10
   0  -2   6   94.79    1.90
   0   2  -6   97.49    2.00
   0   2  -6  100.19    1.90
   0   2   6   96.59    1.80
   1  -2   6  308.27    5.20
  -1  -2  -6  309.37    5.40
   1   2   6  317.17    5.10
  -1   2  -6  316.97    5.30
  -1   2  -6  314.67    5.00
   2  -2   6   90.09    1.90
  -2  -2  -6   87.69    2.10
  -2   2  -6   89.29    2.10
   2   2   6   88.29    1.90
  -3  -2  -6   31.70    1.20
   3  -2   6   31.90    1.10
   3   2   6   30.10    1.10
  -3   2  -6   31.30    1.20
  -4  -2  -6   78.79    2.10
   4  -2   6   77.29    1.90
  -4   2  -6   76.79    2.10
   4   2   6   77.69    1.90
   5  -2   6   43.30    1.50
  -5  -2  -6   41.00    1.60
  -5   2  -6   44.40    1.60
   5   2   6   42.70    1.50
   6  -3  -6    1.80    0.60
  -6   3   6    2.20    0.60
   6   3  -6    3.10    0.60
   5  -3  -6    2.90    0.60
  -5   3   6    2.10    0.50
   5   3  -6    2.90    0.60
   4  -3  -6   37.10    1.20
   4   3  -6   38.00    1.30
  -4   3   6   37.40    1.30
  -3  -3   6  214.48    3.70
   3  -3  -6  216.28    3.80
  -3   3   6  215.28    4.00
   3   3  -6  221.78    3.90
   2  -3  -6  249.08    4.40
   2  -3  -6  249.48    4.20
  -2  -3   6  249.08    4.10
   2   3  -6  245.28    4.10
   2   3  -6  248.08    4.30
  -1  -3   6  267.77    4.50
   1  -3  -6  272.17    4.80
   1  -3  -6  271.57    4.40
   1   3  -6  271.97    4.60
   1   3  -6  273.97    4.60
  -1   3   6  271.47    4.30
   0  -3   6  505.65    8.10
   0  -3  -6  509.35    8.30
   0   3  -6  498.55    8.00
   0   3   6  505.15    7.90
   0   3  -6  506.35    8.10
  -1  -3  -6    4.10    0.60
   1  -3   6    3.80    0.50
  -1   3  -6    3.60    0.40
   1   3   6    3.60    0.40
  -1   3  -6    3.30    0.50
  -2  -3  -6   89.19    2.10
   2  -3   6   91.99    2.00
  -2   3  -6   91.79    2.10
  -2   3  -6   89.39    1.80
   2   3   6   90.99    1.90
   3  -3   6   96.39    2.20
  -3  -3  -6   97.89    2.30
  -3   3  -6   95.49    2.30
   3   3   6   91.59    2.10
  -4  -3  -6   15.50    1.00
   4  -3   6   15.80    1.00
  -4   3  -6   14.30    1.00
   4   3   6   16.40    0.90
   5  -3   6   43.90    1.50
  -5  -3  -6   46.80    1.60
  -5   3  -6   43.20    1.70
   5   3   6   43.50    1.50
   6  -4  -6   34.10    1.40
   6   4  -6   36.40    1.50
  -6   4   6   32.90    1.40
   5  -4  -6   93.59    2.20
  -5   4   6   95.19    2.30
   5   4  -6   92.49    2.30
   4  -4  -6   25.70    1.00
   4   4  -6   28.10    1.10
  -4   4   6   27.10    1.20
   3  -4  -6  102.49    2.10
  -3  -4   6  102.79    2.00
   3   4  -6  103.29    2.20
  -3   4   6   97.29    2.30
   2  -4  -6  102.79    2.00
   2  -4  -6   96.49    2.20
  -2  -4   6  102.69    2.00
   2   4  -6  103.59    2.20
   1  -4  -6   96.19    2.10
  -1  -4   6   91.29    1.90
   1  -4  -6   90.89    1.70
   1   4  -6   89.89    1.90
   1   4  -6   90.39    1.80
   0  -4  -6   43.00    1.30
   0  -4   6   43.30    1.20
   0   4  -6   40.50    1.10
   0   4  -6   40.00    1.20
   0   4   6   41.50    1.00
   1  -4   6   58.39    1.40
  -1  -4  -6   54.49    1.50
   1   4   6   54.79    1.30
  -1   4  -6   55.09    1.50
  -1   4  -6   56.39    1.30
   2  -4   6    7.50    0.70
  -2  -4  -6    4.80    0.60
  -2   4  -6    6.80    0.60
   2   4   6    5.50    0.50
  -2   4  -6    5.80    0.70
  -3  -4  -6   59.79    1.70
   3  -4   6   60.89    1.70
  -3   4  -6   61.99    1.80
   3   4   6   61.09    1.60
   4  -4   6    4.10    0.60
  -4  -4  -6    2.10    0.60
   4   4   6    3.50    0.60
  -4   4  -6    4.20    0.70
   5  -4   6   28.60    1.30
  -5  -4  -6   28.00    1.30
   5   4   6   28.80    1.20
  -5   4  -6   25.00    1.40
   6  -5  -6   13.10    1.00
  -6   5   6   14.00    1.10
   6   5  -6   13.00    1.10
   5  -5  -6    4.60    0.60
   5   5  -6    5.70    0.70
  -5   5   6    4.00    0.70
   4  -5  -6   97.09    2.20
  -4  -5   6   97.39    2.10
   4   5  -6   97.49    2.30
  -4   5   6   96.49    2.40
   3  -5  -6  254.57    4.40
  -3  -5   6  258.27    4.40
   3   5  -6  250.47    4.60
  -3   5   6  258.77    4.70
   2  -5  -6   90.69    1.90
  -2  -5   6   89.99    1.90
   2   5  -6   92.29    2.10
   1  -5  -6  116.89    2.20
  -1  -5   6  118.09    2.40
   1  -5  -6  117.69    2.50
   1   5  -6  123.69    2.40
   1   5  -6  117.79    2.20
   0  -5  -6   10.30    0.80
   0  -5   6   12.20    0.70
   0   5   6   11.80    0.60
   0   5  -6   11.50    0.70
   0   5  -6   10.90    0.70
  -1  -5  -6  138.39    2.90
   1  -5   6  141.59    2.80
   1   5   6  136.39    2.60
  -1   5  -6  134.59    2.70
  -1   5  -6  140.89    2.80
   2  -5   6   90.29    2.10
  -2  -5  -6   88.09    2.10
  -2   5  -6   91.29    2.00
   2   5   6   87.59    2.00
  -2   5  -6   87.99    2.10
  -3  -5  -6    6.80    0.70
   3  -5   6    8.70    0.80
  -3   5  -6    7.70    0.80
   3   5   6    8.70    0.70
  -3   5  -6    7.60    0.70
  -4  -5  -6   22.60    1.20
   4  -5   6   23.20    1.20
  -4   5  -6   22.90    1.20
   4   5   6   21.10    1.10
   5  -6  -6   21.80    1.10
   5   6  -6   18.60    1.10
  -5   6   6   23.10    1.30
  -4  -6   6    1.30    0.40
   4  -6  -6    2.10    0.50
  -4   6   6    2.00    0.60
   4   6  -6    1.10    0.50
   3  -6  -6  106.39    2.20
  -3  -6   6  104.09    2.30
  -3   6   6  105.49    2.50
   3   6  -6  106.69    2.40
   2  -6  -6   22.40    0.80
  -2  -6   6   24.30    1.00
   2   6  -6   22.80    1.00
  -1  -6   6  240.78    4.30
   1  -6  -6  242.38    4.50
   1   6  -6  239.08    4.30
   0  -6  -6  101.59    2.30
   0  -6   6  100.59    2.20
   0   6   6  100.49    2.00
   0   6  -6   97.49    2.20
   0   6  -6   99.59    2.10
   1  -6   6   17.50    0.90
  -1  -6  -6   17.50    1.00
  -1   6  -6   17.50    0.90
  -1   6  -6   15.70    0.90
   1   6   6   15.20    0.70
  -2  -6  -6   50.99    1.50
   2  -6   6   48.90    1.50
   2   6   6   50.79    1.40
  -2   6  -6   50.59    1.50
  -2   6  -6   50.49    1.40
  -3  -6  -6  132.29    2.90
   3  -6   6  127.59    2.80
   3   6   6  130.19    2.80
  -3   6  -6  127.29    2.70
  -3   6  -6  137.99    2.90
   4  -6   6   50.29    1.70
  -4   6  -6   51.49    1.80
   4   6   6   53.79    1.70
   5  -7  -6   51.29    1.70
   5   7  -6   50.29    1.70
  -5   7   6   49.40    1.80
  -4  -7   6  120.99    2.60
   4  -7  -6  120.29    2.60
   4   7  -6  123.59    2.80
  -4   7   6  120.99    2.90
  -3  -7   6   72.69    1.80
   3  -7  -6   71.19    1.70
  -3   7   6   71.39    2.00
   3   7  -6   67.59    1.90
   2  -7  -6    0.90    0.30
  -2  -7   6    0.70    0.40
   2   7  -6    0.30    0.50
  -1  -7   6   94.19    2.10
   1  -7  -6   86.79    2.20
   1   7  -6   88.19    2.10
   0  -7   6   66.89    1.70
   0  -7  -6   69.09    1.80
   0   7   6   63.89    1.60
   0   7  -6   67.89    1.80
   1  -7   6   93.49    2.20
  -1  -7  -6   94.79    2.20
  -1   7  -6   89.29    2.10
  -1   7  -6   90.09    2.10
   1   7   6   89.79    2.00
   2  -7   6  118.19    2.60
  -2  -7  -6  119.69    2.60
  -2   7  -6  118.59    2.60
  -2   7  -6  116.49    2.60
   2   7   6  120.69    2.50
   3  -7   6  257.37    4.90
   3   7   6  262.77    4.80
  -3   7  -6  265.37    5.00
  -3   7  -6  267.87    4.80
   4  -7   6  187.48    3.90
   4   7   6  196.18    3.90
  -4   7  -6  192.78    4.00
   4  -8  -6    5.70    0.70
  -4  -8   6    4.80    0.60
  -4   8   6    4.80    0.80
   4   8  -6    4.90    0.70
   3  -8  -6   31.30    1.20
  -3  -8   6   28.40    1.20
  -3   8   6   32.20    1.40
   3   8  -6   29.30    1.30
  -2  -8   6  107.79    2.50
   2   8  -6  105.29    2.50
   1  -8  -6   34.10    1.40
  -1  -8   6   33.30    1.30
   1   8  -6   35.50    1.30
   0  -8   6   54.69    1.60
   0  -8  -6   56.29    1.70
   0   8  -6   55.79    1.60
   1  -8   6    9.40    0.80
  -1  -8  -6   11.30    0.90
   1   8   6   10.70    0.80
  -1   8  -6    9.00    0.80
   2  -8   6  182.58    3.70
  -2  -8  -6  192.88    3.70
   2   8   6  186.88    3.60
  -2   8  -6  186.28    3.70
  -2   8  -6  191.18    3.70
   3  -8   6   19.50    1.20
  -3   8  -6   19.20    1.20
  -3   8  -6   18.80    1.10
   3   8   6   19.80    1.10
  -4  -9   6   47.60    1.60
   4  -9  -6   47.00    1.60
   4   9  -6   44.20    1.70
  -4   9   6   44.70    1.80
   3  -9  -6   14.00    0.90
  -3  -9   6   14.90    1.00
  -3   9   6   14.80    1.20
   3   9  -6   14.20    1.10
  -2  -9   6    8.90    0.80
   2   9  -6   10.70    0.90
  -1  -9   6   48.20    1.60
   1  -9  -6   48.30    1.70
   1   9  -6   50.79    1.60
   0  -9   6   54.19    1.70
   0  -9  -6   53.39    1.70
   0   9  -6   53.59    1.70
  -1  -9  -6    8.10    0.80
   1  -9   6    8.60    0.80
  -1   9  -6    9.70    0.80
   1   9   6    8.50    0.70
   2  -9   6   64.59    1.90
   2   9   6   67.19    1.80
  -2   9  -6   67.09    1.90
  -2 -10   6   95.29    2.40
   2 -10  -6   94.29    2.50
   2  10  -6   91.29    2.40
  -1 -10   6    6.50    0.80
   1 -10  -6    6.30    0.80
   1  10  -6    7.90    0.80
   0 -10  -6  140.39    3.10
   0 -10   6  136.99    3.10
   0  10  -6  143.19    3.10
   1 -10   6   36.20    1.40
  -1  10  -6   35.20    1.50
   6   0  -7   26.30    1.30
   5   0  -7   36.50    1.30
   4   0  -7    5.50    0.60
   4   0  -7    4.70    0.60
   3   0  -7   32.40    1.10
   3   0  -7   33.40    1.10
   2   0  -7   20.90    0.90
   2   0  -7   19.60    0.80
   1   0  -7  149.88    2.70
  -1   0   7  153.18    2.60
   1   0  -7  154.38    3.00
   0   0   7  114.09    2.20
   0   0  -7  125.09    2.50
  -1   0  -7  232.18    4.20
   1   0   7  230.38    4.00
   2   0   7    4.30    0.50
  -2   0  -7    2.90    0.50
   3   0   7   40.40    1.30
  -3   0  -7   41.30    1.50
  -4   0  -7    0.40    0.50
   4   0   7    0.00    0.40
   5   0   7   69.99    2.00
  -5   0  -7   71.99    2.20
   6  -1  -7    0.30    0.50
   6   1  -7   -0.80    0.50
   5  -1  -7   22.20    1.00
  -5   1   7   22.50    1.00
   5   1  -7   20.50    1.10
   4  -1  -7    8.70    0.70
   4  -1  -7    9.40    0.80
   4   1  -7    9.30    0.70
   4   1  -7    8.20    0.60
   3  -1  -7  188.68    3.60
   3  -1  -7  190.18    3.50
   3   1  -7  188.58    3.50
   3   1  -7  190.98    3.50
  -2  -1   7  186.58    3.30
   2  -1  -7  190.08    3.30
   2  -1  -7  189.08    3.50
   2   1  -7  189.48    3.40
   2   1  -7  191.18    3.50
   1  -1  -7  158.18    3.10
  -1  -1   7  157.98    2.80
   1  -1  -7  159.18    2.80
   1   1  -7  153.28    2.80
   1   1  -7  157.18    3.00
  -1   1   7  158.78    2.70
   0  -1  -7  309.07    5.40
   0  -1   7  308.07    5.10
   0   1  -7  307.07    5.00
   0   1  -7  315.17    5.40
   0   1   7  310.77    5.10
  -1  -1  -7    7.40    0.70
   1  -1   7    9.00    0.60
   1   1   7    8.30    0.60
  -1   1  -7    8.70    0.70
  -2  -1  -7   63.09    1.70
   2  -1   7   63.79    1.60
   2   1   7   65.89    1.60
  -2   1  -7   62.99    1.80
   3  -1   7  159.98    3.20
  -3  -1  -7  155.08    3.30
   3   1   7  158.78    3.10
  -3   1  -7  163.28    3.40
  -4  -1  -7  153.48    3.40
   4  -1   7  157.38    3.20
   4   1   7  159.58    3.20
  -4   1  -7  157.48    3.40
  -5  -1  -7   25.10    1.30
   5  -1   7   23.90    1.20
  -5   1  -7   24.00    1.40
   5   1   7   23.40    1.20
   6  -2  -7    8.50    0.80
   6   2  -7    7.70    0.80
  -6   2   7    8.70    0.80
   5  -2  -7    6.80    0.70
  -5   2   7    6.60    0.70
   5   2  -7    6.50    0.70
   4  -2  -7   52.69    1.50
   4   2  -7   50.69    1.50
   3  -2  -7   74.09    1.70
   3  -2  -7   72.39    1.90
   3   2  -7   72.49    1.80
   3   2  -7   76.39    1.70
  -2  -2   7  221.68    3.70
   2  -2  -7  217.88    3.70
   2  -2  -7  213.88    4.00
   2   2  -7  217.58    3.80
   2   2  -7  214.68    3.80
   1  -2  -7 1020.70   15.90
   1  -2  -7 1024.10   15.50
  -1  -2   7 1018.70   15.60
   1   2  -7  998.50   15.80
   1   2  -7 1005.70   15.70
   0  -2  -7  363.76    6.20
   0  -2   7  365.36    6.00
   0   2  -7  361.46    5.90
   0   2   7  361.46    5.90
   0   2  -7  366.26    6.10
   1  -2   7  421.46    6.80
  -1  -2  -7  415.96    7.00
  -1   2  -7  413.46    7.00
   1   2   7  410.96    6.70
  -2  -2  -7   41.70    1.40
   2  -2   7   41.60    1.30
   2   2   7   39.80    1.20
  -2   2  -7   39.30    1.40
   3  -2   7   59.79    1.60
  -3  -2  -7   63.09    1.80
   3   2   7   62.49    1.60
  -3   2  -7   62.19    1.80
  -4  -2  -7   57.19    1.80
   4  -2   7   60.69    1.70
   4   2   7   60.29    1.70
  -4   2  -7   58.79    1.90
   6  -3  -7    4.00    0.70
  -6   3   7    3.90    0.70
   6   3  -7    3.50    0.70
   5  -3  -7    4.30    0.60
  -5   3   7    3.60    0.60
   5   3  -7    2.10    0.60
   4  -3  -7   27.30    1.10
   4   3  -7   29.60    1.20
  -4   3   7   27.70    1.20
   3  -3  -7   82.49    1.80
   3  -3  -7   82.79    2.00
   3   3  -7   84.89    2.00
  -2  -3   7   15.60    0.70
   2  -3  -7   15.60    0.90
   2  -3  -7   15.10    0.70
   2   3  -7   15.70    0.80
   2   3  -7   15.20    0.80
   1  -3  -7   54.79    1.60
  -1  -3   7   52.39    1.30
   1   3  -7   51.49    1.30
   1   3  -7   54.49    1.40
   0  -3  -7   12.60    0.90
   0  -3   7   13.40    0.70
   0   3  -7   13.10    0.70
   0   3  -7   12.60    0.80
   0   3   7   12.00    0.60
  -1  -3  -7   41.10    1.40
   1  -3   7   42.10    1.20
  -1   3  -7   40.50    1.10
  -1   3  -7   42.30    1.30
   1   3   7   42.10    1.10
   2  -3   7   42.80    1.30
  -2  -3  -7   41.70    1.40
   2   3   7   39.70    1.20
  -2   3  -7   41.90    1.40
   3  -3   7   31.30    1.20
  -3  -3  -7   31.50    1.30
  -3   3  -7   31.80    1.30
   3   3   7   32.10    1.20
  -4  -3  -7    2.70    0.70
   4  -3   7    2.20    0.60
  -4   3  -7    1.30    0.60
   4   3   7    2.00    0.60
   6  -4  -7    1.80    0.60
   6   4  -7    1.70    0.60
  -6   4   7    2.60    0.70
   5  -4  -7   21.80    1.10
   5   4  -7   22.10    1.20
  -5   4   7   22.90    1.20
   4  -4  -7   98.39    2.20
   4   4  -7   96.09    2.30
  -4   4   7   97.39    2.40
   3  -4  -7   75.89    1.70
  -3  -4   7   75.19    1.70
   3  -4  -7   76.99    2.00
   3   4  -7   75.39    1.90
  -2  -4   7  233.98    4.00
   2  -4  -7  233.78    4.40
   2  -4  -7  233.98    4.00
   2   4  -7  227.88    4.20
   1  -4  -7  202.78    3.80
  -1  -4   7  196.38    3.60
   1   4  -7  200.08    3.60
   1   4  -7  196.28    3.50
   0  -4  -7   72.99    1.90
   0  -4   7   75.89    1.70
   0   4  -7   76.79    1.70
   0   4  -7   74.39    1.80
   0   4   7   74.49    1.60
  -1  -4  -7    1.00    0.50
   1  -4   7    1.20    0.40
  -1   4  -7    0.90    0.40
   1   4   7    0.80    0.40
  -1   4  -7    1.10    0.30
  -2  -4  -7  121.19    2.70
   2  -4   7  126.99    2.60
   2   4   7  121.49    2.50
  -2   4  -7  121.29    2.70
  -3  -4  -7   21.10    1.20
   3  -4   7   22.50    1.10
  -3   4  -7   21.30    1.20
   3   4   7   22.90    1.00
   4  -4   7    2.00    0.60
  -4  -4  -7    1.00    0.60
   4   4   7    1.60    0.50
  -4   4  -7    0.70    0.60
   5  -5  -7    3.90    0.60
   5   5  -7    3.20    0.60
  -5   5   7    4.60    0.80
   4  -5  -7   25.90    1.10
  -4   5   7   25.30    1.30
   4   5  -7   26.40    1.20
   3  -5  -7    6.50    0.60
  -3  -5   7    7.00    0.60
   3   5  -7    5.30    0.60
   2  -5  -7   48.30    1.60
  -2  -5   7   48.00    1.30
   2  -5  -7   45.10    1.20
   2   5  -7   47.20    1.40
  -1  -5   7    7.80    0.70
   1  -5  -7    7.20    0.80
   1   5  -7    9.00    0.70
   0  -5   7    1.30    0.50
   0  -5  -7    0.60    0.50
   0   5  -7    0.70    0.40
   0   5   7    0.50    0.40
   0   5  -7    1.20    0.40
   1  -5   7   48.10    1.40
  -1  -5  -7   47.90    1.50
  -1   5  -7   48.10    1.30
  -1   5  -7   49.99    1.40
   1   5   7   47.60    1.30
  -2  -5  -7   35.10    1.40
   2  -5   7   35.40    1.30
   2   5   7   34.50    1.20
  -2   5  -7   35.70    1.30
  -2   5  -7   33.40    1.20
   3  -5   7  108.19    2.50
  -3  -5  -7  110.49    2.60
  -3   5  -7  110.19    2.60
   3   5   7  109.49    2.50
  -4  -5  -7  133.29    3.00
   4  -5   7  130.79    3.00
   4   5   7  132.19    2.90
  -4   5  -7  130.89    3.10
   5  -6  -7  107.29    2.50
  -5   6   7  103.89    2.70
   5   6  -7  101.79    2.60
   4  -6  -7   88.09    2.10
   4   6  -7   86.29    2.20
  -4   6   7   85.89    2.30
  -3  -6   7   71.69    1.80
   3  -6  -7   76.39    1.80
   3   6  -7   70.79    1.90
   2  -6  -7  216.08    4.20
  -2  -6   7  218.38    4.00
   2   6  -7  216.08    4.10
  -1  -6   7    4.20    0.50
   1  -6  -7    4.60    0.70
   1   6  -7    5.50    0.60
   0  -6  -7   46.10    1.60
   0  -6   7   48.70    1.40
   0   6  -7   44.50    1.30
   0   6  -7   47.80    1.40
  -1  -6  -7   26.10    1.20
   1  -6   7   23.50    1.00
  -1   6  -7   24.70    1.00
  -1   6  -7   25.60    1.10
   1   6   7   23.20    0.90
  -2  -6  -7   99.29    2.40
   2  -6   7   99.69    2.30
  -2   6  -7   97.09    2.20
  -2   6  -7   95.39    2.30
   2   6   7   99.49    2.20
  -3  -6  -7   57.29    1.80
   3  -6   7   58.69    1.80
  -3   6  -7   53.49    1.80
   3   6   7   58.29    1.70
  -4  -7   7    2.80    0.60
   4  -7  -7    2.30    0.50
  -4   7   7    3.50    0.80
   4   7  -7    2.80    0.60
  -3  -7   7   22.90    1.10
   3  -7  -7   23.20    1.00
   3   7  -7   23.40    1.20
  -2  -7   7    0.40    0.40
   2  -7  -7    1.20    0.60
   2   7  -7    1.20    0.50
   1  -7  -7    2.30    0.60
  -1  -7   7    2.40    0.50
   1   7  -7    2.20    0.50
   0  -7  -7   78.89    2.10
   0  -7   7   78.79    2.00
   0   7  -7   76.29    1.90
   1  -7   7   96.69    2.30
  -1  -7  -7   98.19    2.40
  -1   7  -7   98.09    2.30
   1   7   7   97.79    2.10
  -1   7  -7   94.89    2.20
   2  -7   7   34.80    1.40
  -2  -7  -7   33.70    1.40
  -2   7  -7   32.70    1.30
  -2   7  -7   33.80    1.30
   2   7   7   34.10    1.20
  -3  -7  -7   16.70    1.20
   3  -7   7   19.00    1.20
  -3   7  -7   21.80    1.20
   3   7   7   19.90    1.10
  -4  -8   7  251.87    4.70
   4  -8  -7  248.48    4.60
   4   8  -7  250.67    4.90
  -4   8   7  242.58    5.00
  -3  -8   7  240.38    4.50
   3   8  -7  235.98    4.60
  -2  -8   7   30.50    1.20
   2  -8  -7   29.60    1.40
   2   8  -7   29.10    1.30
  -1  -8   7    2.70    0.60
   1  -8  -7    3.10    0.60
   1   8  -7    3.10    0.60
   0  -8  -7   27.50    1.30
   0  -8   7   28.40    1.20
   0   8  -7   29.70    1.20
   1  -8   7   82.89    2.20
  -1  -8  -7   82.19    2.20
  -1   8  -7   84.29    2.20
  -2  -8  -7  269.67    5.10
   2  -8   7  274.67    5.10
  -2   8  -7  264.07    5.00
  -2   8  -7  279.97    5.10
   2   8   7  270.77    4.90
  -3  -9   7   41.10    1.50
   3   9  -7   43.00    1.60
   2  -9  -7   23.00    1.30
  -2  -9   7   23.70    1.20
   2   9  -7   20.50    1.20
  -1  -9   7    2.70    0.60
   1  -9  -7    3.90    0.70
   1   9  -7    2.70    0.60
   0  -9   7  123.19    2.90
   0  -9  -7  132.49    3.00
   0   9  -7  126.39    2.90
   1  -9   7  105.49    2.60
  -1  -9  -7  111.19    2.70
  -1   9  -7  107.09    2.60
   6   0  -8   37.20    1.50
   5   0  -8  241.48    4.60
   4   0  -8   55.49    1.60
   4   0  -8   52.79    1.50
   3   0  -8    4.90    0.60
   3   0  -8    6.60    0.70
   2   0  -8    5.00    0.50
   2   0  -8    4.50    0.60
   1   0  -8   56.49    1.30
  -1   0   8   51.79    1.30
   1   0  -8   51.99    1.50
   0   0  -8  218.68    4.10
   0   0   8  221.28    3.80
   1   0   8   98.39    2.10
  -1   0  -8   98.99    2.30
   2   0   8  175.98    3.40
  -2   0  -8  181.78    3.60
   3   0   8  498.05    8.30
  -3   0  -8  504.45    8.60
   4   0   8  247.08    4.70
  -4   0  -8  253.37    4.90
   6  -1  -8   17.40    1.20
   6   1  -8   20.00    1.20
   5  -1  -8   11.10    0.90
   5  -1  -8   11.60    0.90
   5   1  -8   11.50    1.00
   4  -1  -8   42.00    1.40
   4  -1  -8   42.70    1.40
   4   1  -8   40.60    1.40
   3  -1  -8   20.80    0.90
   3  -1  -8   20.70    1.00
   3   1  -8   21.00    0.90
   3   1  -8   22.60    1.00
   2  -1  -8  325.47    5.40
   2  -1  -8  315.37    5.60
   2   1  -8  319.67    5.50
   2   1  -8  322.97    5.40
  -1  -1   8   92.79    1.90
   1  -1  -8   94.69    2.20
   1   1  -8   97.69    2.20
   1   1  -8   94.39    1.90
   0  -1   8  245.48    4.20
   0  -1  -8  239.58    4.50
   0   1   8  246.48    4.20
   0   1  -8  249.48    4.50
  -1  -1  -8   28.60    1.20
   1  -1   8   26.70    1.00
  -1   1  -8   28.80    1.20
   1   1   8   27.40    1.00
   2  -1   8  123.29    2.60
  -2  -1  -8  125.09    2.80
  -2   1  -8  126.19    2.80
   2   1   8  119.79    2.50
   3  -1   8  144.29    3.00
  -3  -1  -8  139.69    3.20
   3   1   8  142.69    2.90
  -3   1  -8  144.29    3.20
   4  -1   8   90.29    2.20
  -4  -1  -8   91.29    2.50
   4   1   8   92.39    2.30
  -4   1  -8   89.49    2.50
   6  -2  -8   11.30    0.90
   6   2  -8   14.00    1.10
  -6   2   8   13.10    1.00
   5  -2  -8   56.29    1.70
   5   2  -8   56.19    1.70
   4  -2  -8   10.90    0.90
   4  -2  -8   11.30    0.80
   4   2  -8   10.10    0.90
   3  -2  -8   12.20    0.80
   3  -2  -8   12.20    0.90
   3   2  -8   10.20    0.80
   3   2  -8   11.80    0.80
   2  -2  -8    5.00    0.60
   2  -2  -8    5.00    0.50
   2   2  -8    5.20    0.60
   2   2  -8    4.30    0.50
   1  -2  -8    4.00    0.60
  -1  -2   8    2.90    0.40
   1   2  -8    3.80    0.50
   1   2  -8    3.60    0.50
   0  -2  -8  226.18    4.30
   0  -2   8  227.78    4.00
   0   2  -8  225.68    4.20
   0   2   8  225.38    3.90
   1  -2   8   58.39    1.50
  -1  -2  -8   62.79    1.80
   1   2   8   58.19    1.40
  -1   2  -8   58.69    1.70
  -2  -2  -8   70.19    1.90
   2  -2   8   71.19    1.80
  -2   2  -8   67.99    1.90
   2   2   8   71.39    1.70
   3  -2   8  196.98    3.80
  -3  -2  -8  191.88    3.90
  -3   2  -8  188.88    3.90
   3   2   8  188.58    3.70
  -4  -2  -8  153.98    3.50
   4  -2   8  161.78    3.30
   4   2   8  159.28    3.30
  -4   2  -8  153.98    3.50
   6  -3  -8   24.70    1.30
   6   3  -8   22.00    1.30
  -6   3   8   23.20    1.30
   5  -3  -8   34.90    1.40
   5   3  -8   36.30    1.40
   4  -3  -8   15.60    1.00
   4  -3  -8   13.90    0.90
   4   3  -8   14.00    0.90
   3  -3  -8   77.89    2.10
   3  -3  -8   74.29    1.80
   3   3  -8   76.49    1.90
  -2  -3   8  174.88    3.20
   2  -3  -8  174.88    3.60
   2   3  -8  179.08    3.30
   2   3  -8  179.18    3.40
  -1  -3   8   87.99    1.90
   1  -3  -8   81.69    2.10
   1   3  -8   88.89    1.90
   1   3  -8   85.39    2.00
   0  -3   8  102.99    2.10
   0  -3  -8  100.09    2.40
   0   3  -8   98.09    2.00
   0   3   8   95.69    2.20
   0   3  -8   96.69    2.20
  -1  -3  -8   29.70    1.30
   1  -3   8   28.90    1.10
  -1   3  -8   30.30    1.20
   1   3   8   28.00    1.00
   2  -3   8   53.79    1.60
  -2  -3  -8   53.39    1.70
   2   3   8   54.09    1.50
  -2   3  -8   53.69    1.70
   3  -3   8   55.89    1.70
  -3  -3  -8   53.89    1.80
   3   3   8   55.49    1.60
  -3   3  -8   52.69    1.80
   4  -3   8   24.20    1.20
  -4  -3  -8   25.70    1.40
  -4   3  -8   28.40    1.40
   4   3   8   25.50    1.20
   5  -4  -8   11.60    0.90
   5   4  -8   11.80    1.00
  -5   4   8   10.90    1.00
   4  -4  -8    6.30    0.80
   4  -4  -8    6.70    0.70
   4   4  -8    5.70    0.70
   3  -4  -8   32.60    1.40
   3  -4  -8   30.10    1.10
   3   4  -8   29.90    1.20
  -2  -4   8   57.99    1.50
   2  -4  -8   59.59    1.80
   2   4  -8   58.89    1.60
  -1  -4   8   83.69    1.90
   1  -4  -8   85.19    2.20
   1   4  -8   81.99    1.90
   1   4  -8   80.99    1.90
   0  -4   8  267.17    4.60
   0  -4  -8  261.87    4.90
   0   4  -8  263.77    4.60
   0   4  -8  261.47    4.70
   1  -4   8    1.70    0.50
  -1  -4  -8    1.30    0.50
  -1   4  -8    1.70    0.50
   1   4   8    1.90    0.40
   2  -4   8    9.40    0.80
  -2  -4  -8   11.50    1.00
  -2   4  -8   10.80    0.90
   2   4   8   11.30    0.80
  -3  -4  -8   13.80    1.10
   3  -4   8   14.70    1.00
   3   4   8   17.10    1.00
  -3   4  -8   15.80    1.20
   5  -5  -8    5.20    0.70
   5   5  -8    4.50    0.70
  -5   5   8    5.00    0.80
   4  -5  -8   42.30    1.40
   4   5  -8   41.60    1.50
   3  -5  -8   94.59    2.10
   3  -5  -8   90.29    2.40
   3   5  -8   94.19    2.30
  -2  -5   8    7.80    0.70
   2  -5  -8    7.10    0.80
   2   5  -8    5.30    0.60
  -1  -5   8   54.59    1.50
   1  -5  -8   55.79    1.80
   1   5  -8   55.79    1.50
   0  -5  -8   43.20    1.60
   0  -5   8   47.60    1.40
   0   5  -8   45.60    1.30
   0   5  -8   45.00    1.40
  -1  -5  -8   44.00    1.60
   1  -5   8   41.80    1.40
   1   5   8   42.70    1.20
  -1   5  -8   43.70    1.40
  -1   5  -8   43.90    1.40
   2  -5   8   94.79    2.30
  -2  -5  -8   97.29    2.50
  -2   5  -8   97.59    2.40
   2   5   8   95.79    2.20
   3  -5   8   10.70    0.90
  -3  -5  -8   10.70    1.00
   3   5   8   11.20    0.90
  -3   5  -8   10.70    1.00
   4  -6  -8   16.00    1.00
   4   6  -8   17.20    1.10
  -3  -6   8    5.80    0.70
   3  -6  -8    5.80    0.80
   3   6  -8    6.20    0.70
  -2  -6   8   45.30    1.40
   2  -6  -8   43.00    1.60
   2   6  -8   46.60    1.50
  -1  -6   8    0.80    0.50
   1  -6  -8    1.20    0.60
   1   6  -8    0.10    0.40
   0  -6   8  111.49    2.50
   0  -6  -8  107.09    2.70
   0   6  -8  110.89    2.40
   1  -6   8   29.90    1.20
  -1  -6  -8   31.30    1.40
  -1   6  -8   32.40    1.20
  -1   6  -8   30.70    1.30
  -2  -6  -8    2.60    0.70
   2  -6   8    3.60    0.70
   2   6   8    3.40    0.60
  -2   6  -8    2.30    0.60
   4  -7  -8  273.67    5.00
   4   7  -8  275.57    5.20
  -3  -7   8   81.29    2.00
   3  -7  -8   78.69    2.30
   3   7  -8   81.29    2.20
  -2  -7   8   19.10    1.00
   2  -7  -8   20.90    1.20
   2   7  -8   22.10    1.20
  -1  -7   8   31.80    1.20
   1  -7  -8   34.10    1.50
   1   7  -8   32.50    1.30
   0  -7  -8   18.70    1.20
   0  -7   8   17.40    1.00
   0   7  -8   18.10    1.00
  -1  -7  -8  145.29    3.20
   1  -7   8  140.69    3.10
  -1   7  -8  145.49    3.00
   2  -7   8   75.19    2.10
  -2  -7  -8   76.49    2.20
   2   7   8   76.39    2.00
  -2   7  -8   80.29    2.20
  -3  -8   8   23.90    1.20
   3  -8  -8   26.10    1.40
   3   8  -8   26.70    1.30
   2  -8  -8   30.60    1.50
  -2  -8   8   29.00    1.30
   2   8  -8   27.80    1.30
   1  -8  -8  213.08    4.40
  -1  -8   8  222.78    4.30
   1   8  -8  219.78    4.30
   0  -8   8    1.50    0.60
   0  -8  -8    1.80    0.70
   0   8  -8    1.30    0.50
  -1  -8  -8   21.40    1.30
   1  -8   8   19.50    1.20
  -1   8  -8   21.00    1.20
   5   0  -9    3.40    0.60
   4   0  -9    7.00    0.70
   4   0  -9    7.90    0.80
   2   0  -9   38.50    1.20
   2   0  -9   37.70    1.40
   1   0  -9    3.80    0.60
   0   0   9    4.70    0.50
   0   0  -9    6.90    0.80
   1   0   9   54.09    1.50
  -1   0  -9   57.29    1.80
   2   0   9  207.28    3.90
  -2   0  -9  208.58    4.20
   3   0   9    6.50    0.70
   5  -1  -9  322.77    5.90
   5  -1  -9  330.47    5.90
   5   1  -9  318.77    5.90
   4  -1  -9  187.18    3.60
   4  -1  -9  183.98    3.70
   4   1  -9  183.58    3.70
   3  -1  -9   10.40    0.80
   3  -1  -9   11.80    1.00
   3   1  -9   11.40    0.90
   3   1  -9   10.50    0.80
   2  -1  -9    4.50    0.70
   2   1  -9    5.40    0.60
   2   1  -9    4.80    0.70
   1  -1  -9   75.79    2.00
   1   1  -9   76.79    2.00
   0  -1  -9   43.40    1.50
   0  -1   9   42.80    1.20
   0   1  -9   38.80    1.40
   0   1   9   40.10    1.60
   1  -1   9  119.39    2.50
  -1  -1  -9  123.69    2.80
   1   1   9  123.59    2.50
  -1   1  -9  121.79    2.80
   2  -1   9   34.30    1.20
  -2  -1  -9   34.10    1.50
   2   1   9   36.50    1.20
  -2   1  -9   32.80    1.40
   3  -1   9  107.19    2.50
  -3  -1  -9  108.19    2.70
  -3   1  -9  106.09    2.70
   3   1   9  111.69    2.50
   5  -2  -9   10.40    0.90
   5  -2  -9    9.50    0.90
   5   2  -9    7.50    0.80
   4  -2  -9   22.50    1.10
   4  -2  -9   23.40    1.20
   4   2  -9   23.20    1.20
   3  -2  -9   14.40    0.90
   3  -2  -9   13.40    1.00
   3   2  -9   14.30    0.90
   2  -2  -9    8.10    0.80
   2   2  -9    7.10    0.60
   2   2  -9    7.70    0.70
   1  -2  -9   21.10    1.10
  -1  -2   9   20.60    1.00
   1   2  -9   18.70    1.00
   0  -2  -9   10.90    0.90
   0  -2   9   11.00    0.70
   0   2  -9   12.30    0.90
  -1  -2  -9  102.19    2.60
   1  -2   9  108.29    2.30
  -1   2  -9  109.09    2.60
   1   2   9  107.69    2.30
   2  -2   9  185.48    3.60
  -2  -2  -9  181.28    3.90
  -2   2  -9  180.88    3.80
   2   2   9  185.78    3.50
   3  -2   9  194.48    3.90
  -3  -2  -9  197.58    4.10
  -3   2  -9  195.78    4.10
   3   2   9  198.38    3.90
   5  -3  -9   28.30    1.40
   5  -3  -9   28.10    1.30
   5   3  -9   27.00    1.30
   4  -3  -9   20.00    1.00
   4  -3  -9   18.90    1.20
   4   3  -9   17.60    1.10
   3  -3  -9   19.20    1.20
   3   3  -9   18.20    1.00
   2  -3  -9   23.30    1.20
   2   3  -9   23.90    1.00
   1  -3  -9  171.78    3.60
  -1  -3   9  166.08    3.20
   1   3  -9  169.98    3.40
   1   3  -9  167.78    3.20
   0  -3   9   11.40    0.80
   0  -3  -9   16.10    1.10
   0   3  -9   15.50    1.00
   1  -3   9   64.29    1.70
  -1  -3  -9   66.09    2.00
  -1   3  -9   67.19    1.90
   1   3   9   66.79    1.60
   2  -3   9   16.80    1.00
  -2  -3  -9   15.20    1.20
   2   3   9   15.60    0.90
  -2   3  -9   17.60    1.10
  -3  -3  -9    1.70    0.70
   3  -3   9    2.20    0.60
  -3   3  -9    1.10    0.70
   3   3   9    2.00    0.60
   5  -4  -9   56.49    1.80
   5  -4  -9   56.49    2.00
   5   4  -9   59.49    1.90
   4  -4  -9   46.80    1.70
   4  -4  -9   45.20    1.50
   4   4  -9   44.90    1.60
   3  -4  -9    8.80    0.90
   3   4  -9    7.40    0.70
   2  -4  -9   89.29    2.40
   2   4  -9   90.79    2.10
   1  -4  -9  164.98    3.60
  -1  -4   9  169.88    3.30
   1   4  -9  176.18    3.40
   1   4  -9  179.08    3.40
   0  -4  -9  154.08    3.30
   0  -4   9  149.88    3.00
   0   4  -9  148.99    3.10
  -1  -4  -9   68.39    2.00
   1  -4   9   67.69    1.80
  -1   4  -9   71.29    2.00
   2  -4   9   23.10    1.10
  -2  -4  -9   22.10    1.30
   2   4   9   19.90    1.00
  -2   4  -9   21.50    1.20
   4  -5  -9   60.09    2.10
   4  -5  -9   59.99    2.00
   4   5  -9   59.59    1.90
   3  -5  -9   31.90    1.50
   3   5  -9   30.70    1.30
   2  -5  -9   33.30    1.50
   2   5  -9   32.00    1.30
  -1  -5   9  217.78    4.00
   1  -5  -9  214.08    4.40
   1   5  -9  214.28    4.00
   0  -5   9   53.19    1.60
   0  -5  -9   56.79    1.90
   0   5  -9   53.99    1.70
   0   5  -9   54.69    1.60
  -1  -5  -9   64.19    2.00
   1  -5   9   67.39    1.80
  -1   5  -9   63.59    1.80
   2  -5   9   12.50    1.00
  -2  -5  -9    9.40    1.00
   2   5   9    9.40    0.80
  -2   5  -9   12.20    1.10
   3  -6  -9    7.70    1.00
   3   6  -9    7.50    0.80
   2  -6  -9   30.80    1.50
  -2  -6   9   33.20    1.20
   2   6  -9   32.30    1.40
   1  -6  -9   21.80    1.30
  -1  -6   9   22.30    1.10
   1   6  -9   21.80    1.10
   0  -6   9    0.60    0.50
   0  -6  -9    0.50    0.60
   0   6  -9    0.20    0.40
   1  -6   9   74.89    2.00
  -1  -6  -9   73.59    2.20
  -1   6  -9   73.99    2.00
  -2  -7   9   26.30    1.20
   2  -7  -9   27.70    1.50
   2   7  -9   28.00    1.30
   1  -7  -9    6.20    0.90
  -1  -7   9    6.00    0.70
   1   7  -9    5.20    0.70
   0  -7  -9   25.20    1.40
   0  -7   9   24.90    1.20
   0   7  -9   29.20    1.20
   4   0 -10  141.79    3.10
   3   0 -10    9.10    0.80
   3   0 -10    7.90    0.80
   2   0 -10    4.70    0.70
   1   0 -10    5.70    0.80
   0   0 -10   26.70    1.30
   1   0  10   42.10    1.30
  -1   0 -10   43.10    1.60
  -2   0 -10    0.30    0.60
   2   0  10    0.10    0.50
   4  -1 -10   19.30    1.20
   4  -1 -10   22.50    1.10
   4   1 -10   19.40    1.10
   3  -1 -10    7.60    0.80
   3   1 -10    7.90    0.80
   3   1 -10    8.70    0.70
   2  -1 -10    1.70    0.60
   2   1 -10    2.80    0.60
   1  -1 -10   21.80    1.20
   1   1 -10   22.50    1.20
   0  -1 -10    6.30    0.80
   0   1 -10    6.60    0.80
  -1  -1 -10   82.39    2.30
   1  -1  10   85.99    2.00
  -1   1 -10   83.29    2.30
   1   1  10   84.09    2.00
   2  -1  10  121.29    2.70
  -2  -1 -10  119.69    3.00
  -2   1 -10  122.79    3.00
   2   1  10  124.39    2.70
   4  -2 -10   26.90    1.20
   4  -2 -10   26.90    1.30
   4   2 -10   28.60    1.30
   3  -2 -10   29.40    1.40
   3   2 -10   29.40    1.20
   2  -2 -10   12.80    1.10
   2   2 -10   15.70    1.00
   1  -2 -10   12.80    1.10
   1   2 -10   13.10    1.00
   0  -2 -10   18.40    1.10
   0  -2  10   19.90    0.90
   0   2 -10   19.20    1.10
   1  -2  10   71.39    1.90
  -1  -2 -10   73.69    2.20
  -1   2 -10   71.79    2.10
   2  -2  10   35.10    1.40
  -2  -2 -10   34.40    1.60
   2   2  10   36.10    1.30
  -2   2 -10   36.00    1.60
   4  -3 -10    9.90    1.00
   4   3 -10    7.70    0.80
   3  -3 -10    1.10    0.60
   3   3 -10    1.40    0.50
   2  -3 -10   99.49    2.60
   2   3 -10   93.59    2.20
   1  -3 -10  270.57    5.30
   1   3 -10  281.27    5.10
   0  -3 -10  159.28    3.50
   0  -3  10  163.58    3.20
   0   3 -10  156.28    3.40
  -1  -3 -10    2.30    0.70
   1  -3  10    4.50    0.70
  -1   3 -10    3.50    0.70
   3  -4 -10   31.20    1.50
   3   4 -10   30.20    1.30
   2  -4 -10   25.90    1.40
   2   4 -10   26.10    1.20
   1  -4 -10    1.60    0.60
   0  -4 -10   44.50    1.70
   0  -4  10   49.30    1.50
   0   4 -10   47.40    1.60
  -1  -4 -10   37.70    1.60
   1  -4  10   39.30    1.40
  -1   4 -10   41.40    1.60
   3  -5 -10   15.20    1.30
   3   5 -10   14.90    1.00
   2  -5 -10   69.99    2.20
   2   5 -10   74.79    2.00
   1  -5 -10  164.88    3.70
  -1  -5  10  166.78    3.30
   0  -5 -10  185.38    4.10
   0  -5  10  191.08    3.70
   3   0 -11   48.50    1.70
   2   0 -11    1.50    0.60
   1   0 -11    4.20    0.80
   0   0 -11   21.60    1.30
   3  -1 -11    5.80    0.80
   2  -1 -11    4.40    0.80
   2   1 -11    5.30    0.80
   1  -1 -11   11.70    1.00
   1   1 -11   11.80    1.00
   0  -1 -11   28.80    1.50
   0   1 -11   29.30    1.40
   2  -2 -11   18.00    1.30
   2   2 -11   19.60    1.70
   1  -2 -11  138.69    3.30
   1   2 -11  142.99    3.20
   0  -2 -11   15.40    1.20
   0   2 -11   16.10    1.20
   2  -3 -11   91.49    2.60
   1  -3 -11   40.20    1.70
   1   3 -11   39.40    1.50

_computing_structure_solution     'SHELXT 2014/4 (Sheldrick, 2014)'
;
_shelx_hkl_checksum              23438
loop_
_space_group_symop_operation_xyz
'x, y, z'
'-x, y+1/2, -z'
loop_
_atom_site_label
_atom_site_type_symbol
_atom_site_fract_x
_atom_site_fract_y
_atom_site_fract_z
_atom_site_U_iso_or_equiv
_atom_site_adp_type
_atom_site_occupancy
_atom_site_site_symmetry_order
_atom_site_calc_flag
_atom_site_refinement_flags_posn
_atom_site_refinement_flags_adp
B1 B 0.4927(4) 0.66201(19) 0.2793(2) 0.0284(5) Uani 1 1 d . .
B2 B 0.3378(3) 0.58811(18) 0.1282(2) 0.0266(4) Uani 1 1 d . .
B3 B 0.4891(3) 0.4604(2) 0.0742(2) 0.0282(5) Uani 1 1 d . .
B4 B 0.2791(3) 0.55679(18) 0.2958(2) 0.0216(4) Uani 1 1 d . .
B5 B 0.2764(3) 0.42960(19) 0.16645(19) 0.0196(4) Uani 1 1 d . .
B6 B 0.5134(3) 0.54273(17) 0.42605(18) 0.0174(4) Uani 1 1 d . .
B7 B 0.3925(3) 0.40375(18) 0.34734(18) 0.0179(4) Uani 1 1 d . .
B8 B 0.5095(3) 0.3359(2) 0.2147(2) 0.0236(4) Uani 1 1 d . .
B9 B 0.6664(3) 0.39406(19) 0.38950(19) 0.0223(4) Uani 1 1 d . .
C1 C 0.5981(3) 0.6064(2) 0.13722(19) 0.0361(5) Uani 1 1 d . .
C2 C 1.0360(3) 0.6152(2) 0.6627(2) 0.0373(5) Uani 1 1 d . .
H2A H 0.9288 0.6833 0.6533 0.056 Uiso 1 1 calc R U
H2B H 1.0956 0.6104 0.5756 0.056 Uiso 1 1 calc R U
H2C H 1.1491 0.6346 0.7429 0.056 Uiso 1 1 calc R U
C3 C 1.0926(3) 0.3842(2) 0.6948(3) 0.0423(6) Uani 1 1 d . .
H3A H 1.2067 0.3976 0.7762 0.063 Uiso 1 1 calc R U
H3B H 1.1522 0.3823 0.6076 0.063 Uiso 1 1 calc R U
H3C H 1.0219 0.3022 0.7058 0.063 Uiso 1 1 calc R U
C4 C 0.8372(3) 0.4953(3) 0.8142(2) 0.0486(6) Uani 1 1 d . .
H4A H 0.9452 0.5137 0.8977 0.073 Uiso 1 1 calc R U
H4B H 0.7705 0.4123 0.8265 0.073 Uiso 1 1 calc R U
H4C H 0.7295 0.5632 0.8027 0.073 Uiso 1 1 calc R U
N1 N 0.9373(2) 0.49047(14) 0.68716(14) 0.0180(3) Uani 1 1 d . .
H2 H 0.725(4) 0.572(2) 0.190(3) 0.040(6) Uiso 1 1 d . .
H5 H 0.473(4) 0.442(3) -0.035(3) 0.040(6) Uiso 1 1 d . .
H3 H 0.483(4) 0.767(3) 0.293(3) 0.042(7) Uiso 1 1 d . .
H1 H 0.620(5) 0.664(3) 0.066(4) 0.068(9) Uiso 1 1 d . .
H4 H 0.247(4) 0.651(2) 0.050(3) 0.037(6) Uiso 1 1 d . .
H6 H 0.632(4) 0.615(3) 0.381(3) 0.038(6) Uiso 1 1 d . .
H7 H 0.621(4) 0.388(3) 0.146(3) 0.044(7) Uiso 1 1 d . .
H8 H 0.131(4) 0.591(2) 0.320(2) 0.035(6) Uiso 1 1 d . .
H9 H 0.132(3) 0.386(2) 0.118(2) 0.032(5) Uiso 1 1 d . .
H10 H 0.501(3) 0.575(2) 0.535(2) 0.024(5) Uiso 1 1 d . .
H11 H 0.317(3) 0.343(2) 0.411(2) 0.026(5) Uiso 1 1 d . .
H12 H 0.495(4) 0.240(2) 0.185(2) 0.032(6) Uiso 1 1 d . .
H14 H 0.718(3) 0.320(2) 0.480(2) 0.032(6) Uiso 1 1 d . .
H13 H 0.801(4) 0.437(3) 0.353(3) 0.042(6) Uiso 1 1 d . .
H15 H 0.841(3) 0.478(2) 0.616(2) 0.020(5) Uiso 1 1 d . .
loop_
_atom_site_aniso_label
_atom_site_aniso_U_11
_atom_site_aniso_U_22
_atom_site_aniso_U_33
_atom_site_aniso_U_23
_atom_site_aniso_U_13
_atom_site_aniso_U_12
B1 0.0381(11) 0.0201(9) 0.0213(10) 0.0049(7) -0.0100(8) -0.0100(8)
B2 0.0313(10) 0.0235(10) 0.0204(9) 0.0060(8) -0.0078(7) -0.0089(8)
B3 0.0268(9) 0.0443(13) 0.0132(9) -0.0008(8) 0.0025(7) -0.0109(9)
B4 0.0197(9) 0.0213(8) 0.0219(9) -0.0010(7) -0.0011(7) 0.0007(7)
B5 0.0193(8) 0.0220(9) 0.0159(8) 0.0001(7) -0.0009(6) -0.0063(7)
B6 0.0195(8) 0.0182(8) 0.0137(8) 0.0005(7) 0.0006(7) -0.0011(6)
B7 0.0204(8) 0.0178(8) 0.0150(8) 0.0007(7) 0.0018(6) -0.0035(7)
B8 0.0256(9) 0.0251(10) 0.0189(9) -0.0061(7) 0.0004(7) 0.0006(8)
B9 0.0242(9) 0.0242(9) 0.0168(8) -0.0044(7) -0.0008(7) 0.0031(8)
C1 0.0400(11) 0.0492(12) 0.0165(8) 0.0105(8) -0.0023(8) -0.0269(10)
C2 0.0381(10) 0.0273(9) 0.0440(11) 0.0077(9) 0.0001(9) -0.0063(8)
C3 0.0380(11) 0.0261(10) 0.0543(13) -0.0107(9) -0.0148(10) 0.0113(9)
C4 0.0264(9) 0.0982(18) 0.0218(9) 0.0039(11) 0.0057(7) -0.0060(12)
N1 0.0147(6) 0.0220(7) 0.0154(7) -0.0005(5) -0.0019(5) -0.0002(5)
loop_
_atom_type_symbol
_atom_type_description
_atom_type_scat_dispersion_real
_atom_type_scat_dispersion_imag
_atom_type_scat_source
C C 0.0033 0.0016 'International Tables Vol C Tables 4.2.6.8 and 6.1.1.4'
H H 0.0000 0.0000 'International Tables Vol C Tables 4.2.6.8 and 6.1.1.4'
B B 0.0013 0.0007 'International Tables Vol C Tables 4.2.6.8 and 6.1.1.4'
N N 0.0061 0.0033 'International Tables Vol C Tables 4.2.6.8 and 6.1.1.4'
loop_
_geom_angle_atom_site_label_1
_geom_angle_atom_site_label_2
_geom_angle_atom_site_label_3
_geom_angle
C1 B1 B2 56.80(12)
C1 B1 B4 106.31(14)
B2 B1 B4 58.73(11)
C1 B1 B6 112.91(15)
B2 B1 B6 106.43(13)
B4 B1 B6 58.45(10)
C1 B1 H3 117.8(13)
B2 B1 H3 119.4(13)
B4 B1 H3 122.3(13)
B6 B1 H3 124.3(13)
C1 B1 H6 98.9(11)
B2 B1 H6 131.3(12)
B4 B1 H6 97.9(11)
B6 B1 H6 39.8(11)
H3 B1 H6 109.3(18)
C1 B2 B4 110.60(14)
C1 B2 B5 110.97(15)
B4 B2 B5 62.44(10)
C1 B2 B3 60.39(13)
B4 B2 B3 110.37(13)
B5 B2 B3 60.79(11)
C1 B2 B1 59.98(12)
B4 B2 B1 60.72(11)
B5 B2 B1 110.47(13)
B3 B2 B1 107.77(15)
C1 B2 H4 112.1(12)
B4 B2 H4 125.0(12)
B5 B2 H4 126.9(12)
B3 B2 H4 120.1(13)
B1 B2 H4 117.3(13)
C1 B3 B2 56.73(12)
C1 B3 B5 106.31(14)
B2 B3 B5 58.84(11)
C1 B3 B8 112.68(13)
B2 B3 B8 106.33(13)
B5 B3 B8 58.39(10)
C1 B3 H5 118.0(14)
B2 B3 H5 117.8(13)
B5 B3 H5 120.9(13)
B8 B3 H5 125.2(14)
C1 B3 H7 98.2(13)
B2 B3 H7 130.2(12)
B5 B3 H7 97.2(11)
B8 B3 H7 39.2(11)
H5 B3 H7 112.0(18)
B2 B4 B6 111.57(13)
B2 B4 B7 106.09(13)
B6 B4 B7 58.69(10)
B2 B4 B1 60.55(11)
B6 B4 B1 63.03(10)
B7 B4 B1 106.84(13)
B2 B4 B5 58.81(10)
B6 B4 B5 108.94(13)
B7 B4 B5 59.48(10)
B1 B4 B5 107.47(14)
B2 B4 H8 118.5(12)
B6 B4 H8 123.0(12)
B7 B4 H8 124.7(12)
B1 B4 H8 122.5(12)
B5 B4 H8 119.1(12)
B2 B5 B8 111.15(13)
B2 B5 B3 60.38(12)
B8 B5 B3 62.86(11)
B2 B5 B7 106.01(12)
B8 B5 B7 58.49(10)
B3 B5 B7 106.63(12)
B2 B5 B4 58.75(11)
B8 B5 B4 108.50(12)
B3 B5 B4 107.14(13)
B7 B5 B4 59.44(10)
B2 B5 H9 121.5(13)
B8 B5 H9 120.6(13)
B3 B5 H9 123.1(12)
B7 B5 H9 122.8(12)
B4 B5 H9 120.8(12)
B7 B6 B4 60.68(10)
B7 B6 B1 104.91(12)
B4 B6 B1 58.52(10)
B7 B6 B9 56.68(10)
B4 B6 B9 109.70(12)
B1 B6 B9 111.83(13)
B7 B6 H6 128.4(12)
B4 B6 H6 101.8(11)
B1 B6 H6 43.7(11)
B9 B6 H6 93.5(13)
B7 B6 H10 123.8(11)
B4 B6 H10 116.1(11)
B1 B6 H10 119.9(11)
B9 B6 H10 123.1(11)
H6 B6 H10 107.6(16)
B9 B7 B8 66.14(11)
B9 B7 B6 66.04(10)
B8 B7 B6 115.85(13)
B9 B7 B4 117.60(13)
B8 B7 B4 111.56(13)
B6 B7 B4 60.63(10)
B9 B7 B5 117.77(13)
B8 B7 B5 60.55(10)
B6 B7 B5 111.88(13)
B4 B7 B5 61.08(10)
B9 B7 H11 112.2(11)
B8 B7 H11 118.7(12)
B6 B7 H11 117.4(12)
B4 B7 H11 119.5(11)
B5 B7 H11 120.0(11)
B7 B8 B5 60.95(10)
B7 B8 B3 105.36(14)
B5 B8 B3 58.75(11)
B7 B8 B9 56.82(10)
B5 B8 B9 110.19(13)
B3 B8 B9 112.19(13)
B7 B8 H7 127.0(14)
B5 B8 H7 99.5(12)
B3 B8 H7 41.2(12)
B9 B8 H7 94.0(12)
B7 B8 H12 123.9(12)
B5 B8 H12 115.1(13)
B3 B8 H12 118.9(12)
B9 B8 H12 123.8(13)
H7 B8 H12 109.0(18)
B7 B9 B8 57.05(10)
B7 B9 B6 57.28(10)
B8 B9 B6 102.31(12)
B7 B9 H14 110.7(11)
B8 B9 H14 119.1(11)
B6 B9 H14 119.2(11)
B7 B9 H13 137.0(13)
B8 B9 H13 99.8(13)
B6 B9 H13 101.0(14)
H14 B9 H13 112.3(17)
B2 C1 B1 63.22(12)
B2 C1 B3 62.88(12)
B1 C1 B3 112.19(13)
B2 C1 H2 137.8(15)
B1 C1 H2 97.1(15)
B3 C1 H2 96.4(15)
B2 C1 H1 108.4(19)
B1 C1 H1 119(2)
B3 C1 H1 114(2)
H2 C1 H1 114(2)
N1 C2 H2A 109.5
N1 C2 H2B 109.5
H2A C2 H2B 109.5
N1 C2 H2C 109.5
H2A C2 H2C 109.5
H2B C2 H2C 109.5
N1 C3 H3A 109.5
N1 C3 H3B 109.5
H3A C3 H3B 109.5
N1 C3 H3C 109.5
H3A C3 H3C 109.5
H3B C3 H3C 109.5
N1 C4 H4A 109.5
N1 C4 H4B 109.5
H4A C4 H4B 109.5
N1 C4 H4C 109.5
H4A C4 H4C 109.5
H4B C4 H4C 109.5
C4 N1 C2 111.26(18)
C4 N1 C3 111.87(18)
C2 N1 C3 110.98(15)
C4 N1 H15 107.7(13)
C2 N1 H15 106.1(14)
C3 N1 H15 108.7(14)
loop_
_geom_bond_atom_site_label_1
_geom_bond_atom_site_label_2
_geom_bond_distance
B1 C1 1.726(3)
B1 B2 1.779(3)
B1 B4 1.782(3)
B1 B6 1.863(3)
B1 H3 1.10(3)
B1 H6 1.29(2)
B2 C1 1.668(3)
B2 B4 1.747(3)
B2 B5 1.748(3)
B2 B3 1.776(3)
B2 H4 1.09(2)
B3 C1 1.734(3)
B3 B5 1.783(3)
B3 B8 1.856(3)
B3 H5 1.05(2)
B3 H7 1.24(3)
B4 B6 1.781(2)
B4 B7 1.782(3)
B4 B5 1.811(3)
B4 H8 1.08(2)
B5 B8 1.776(3)
B5 B7 1.783(2)
B5 H9 1.06(2)
B6 B7 1.746(2)
B6 B9 1.897(3)
B6 H6 1.20(3)
B6 H10 1.12(2)
B7 B9 1.734(2)
B7 B8 1.739(2)
B7 H11 1.06(2)
B8 B9 1.895(3)
B8 H7 1.19(3)
B8 H12 1.03(2)
B9 H14 1.16(2)
B9 H13 1.09(2)
C1 H2 0.95(3)
C1 H1 0.94(3)
C2 N1 1.480(2)
C2 H2A 0.9800
C2 H2B 0.9800
C2 H2C 0.9800
C3 N1 1.481(2)
C3 H3A 0.9800
C3 H3B 0.9800
C3 H3C 0.9800
C4 N1 1.477(2)
C4 H4A 0.9800
C4 H4B 0.9800
C4 H4C 0.9800
N1 H15 0.84(2)
