#------------------------------------------------------------------------------
#$Date: 2019-11-24 08:24:33 +0200 (Sun, 24 Nov 2019) $
#$Revision: 237292 $
#$URL: file:///home/coder/svn-repositories/cod/cif/4/08/81/4088117.cif $
#------------------------------------------------------------------------------
#
# This file is available in the Crystallography Open Database (COD),
# http://www.crystallography.net/
#
# All data on this site have been placed in the public domain by the
# contributors.
#
data_4088117
loop_
_publ_author_name
'Nyamato, George S.'
'Ojwach, Stephen O.'
'Akerman, Matthew P.'
_publ_section_title
;
 Potential Hemilabile (Imino)pyridine Palladium(II) Complexes as Selective
 Ethylene Dimerization Catalysts: An Experimental and Theoretical Approach
;
_journal_issue                   23
_journal_name_full               Organometallics
_journal_page_first              5647
_journal_paper_doi               10.1021/acs.organomet.5b00860
_journal_volume                  34
_journal_year                    2015
_chemical_formula_moiety         'C10 H15 Cl N2 O Pd'
_chemical_formula_sum            'C10 H15 Cl N2 O Pd'
_chemical_formula_weight         321.09
_space_group_crystal_system      triclinic
_space_group_IT_number           2
_space_group_name_Hall           '-P 1'
_space_group_name_H-M_alt        'P -1'
_atom_sites_solution_hydrogens   geom
_audit_creation_method           SHELXL-2014/7
_cell_angle_alpha                65.93(1)
_cell_angle_beta                 66.01(2)
_cell_angle_gamma                73.24(2)
_cell_formula_units_Z            2
_cell_length_a                   8.535(2)
_cell_length_b                   9.051(3)
_cell_length_c                   9.068(2)
_cell_measurement_reflns_used    2259
_cell_measurement_temperature    100(2)
_cell_measurement_theta_max      26.1
_cell_measurement_theta_min      2.5
_cell_volume                     578.0(3)
_computing_cell_refinement       'SAINT-Plus (Bruker, 2012)'
_computing_data_collection       'APEX2 (Bruker, 2012)'
_computing_data_reduction        'SAINT-Plus (Bruker, 2012)'
_computing_molecular_graphics    'WinGX (Farrugia, 2012)'
_computing_structure_refinement  'SHELXL-2014/7 (Sheldrick, 2014)'
_computing_structure_solution    'SHELXL-2014/7 (Sheldrick, 2014)'
_diffrn_ambient_temperature      100(2)
_diffrn_measured_fraction_theta_full 0.983
_diffrn_measured_fraction_theta_max 0.983
_diffrn_measurement_device_type  'Bruker APEXII CCD'
_diffrn_measurement_method       '\w and \f-scans'
_diffrn_radiation_type           MoK\a
_diffrn_radiation_wavelength     0.71073
_diffrn_reflns_av_R_equivalents  0.0247
_diffrn_reflns_av_unetI/netI     0.0225
_diffrn_reflns_Laue_measured_fraction_full 0.983
_diffrn_reflns_Laue_measured_fraction_max 0.983
_diffrn_reflns_limit_h_max       10
_diffrn_reflns_limit_h_min       -10
_diffrn_reflns_limit_k_max       11
_diffrn_reflns_limit_k_min       -10
_diffrn_reflns_limit_l_max       11
_diffrn_reflns_limit_l_min       -9
_diffrn_reflns_number            9372
_diffrn_reflns_point_group_measured_fraction_full 0.983
_diffrn_reflns_point_group_measured_fraction_max 0.983
_diffrn_reflns_theta_full        25.000
_diffrn_reflns_theta_max         26.114
_diffrn_reflns_theta_min         2.492
_diffrn_source                   'Incoatec microsource'
_exptl_absorpt_coefficient_mu    1.811
_exptl_absorpt_correction_T_max  0.9311
_exptl_absorpt_correction_T_min  0.7247
_exptl_absorpt_correction_type   multi-scan
_exptl_absorpt_process_details   'SADABS, Bruker 2012'
_exptl_crystal_colour            'pale yellow'
_exptl_crystal_density_diffrn    1.845
_exptl_crystal_description       planar
_exptl_crystal_F_000             320
_exptl_crystal_size_max          0.190
_exptl_crystal_size_mid          0.100
_exptl_crystal_size_min          0.040
_refine_diff_density_max         0.616
_refine_diff_density_min         -0.489
_refine_diff_density_rms         0.091
_refine_ls_extinction_method     none
_refine_ls_goodness_of_fit_ref   1.099
_refine_ls_hydrogen_treatment    constr
_refine_ls_matrix_type           full
_refine_ls_number_parameters     138
_refine_ls_number_reflns         2259
_refine_ls_number_restraints     0
_refine_ls_restrained_S_all      1.099
_refine_ls_R_factor_all          0.0219
_refine_ls_R_factor_gt           0.0207
_refine_ls_shift/su_max          0.001
_refine_ls_shift/su_mean         0.000
_refine_ls_structure_factor_coef Fsqd
_refine_ls_weighting_details
'w=1/[\s^2^(Fo^2^)+(0.0234P)^2^+0.9185P] where P=(Fo^2^+2Fc^2^)/3'
_refine_ls_weighting_scheme      calc
_refine_ls_wR_factor_gt          0.0544
_refine_ls_wR_factor_ref         0.0551
_reflns_Friedel_coverage         0.000
_reflns_number_gt                2156
_reflns_number_total             2259
_reflns_threshold_expression     'I > 2\s(I)'
_cod_data_source_file            om5b00860_si_003.cif
_cod_data_source_block           shelx
_cod_database_code               4088117
_shelx_shelxl_version_number     2014/7
_shelx_space_group_comment
;
The symmetry employed for this shelxl refinement is uniquely defined
by the following loop, which should always be used as a source of
symmetry information in preference to the above space-group names.
They are only intended as comments.
;
_shelx_estimated_absorpt_t_min   0.725
_shelx_estimated_absorpt_t_max   0.931
_shelx_res_file
;

    shelx.res created by SHELXL-2014/7

TITL mo_SO_GN_L10Pd_0m in P1
CELL  0.71073   8.5348   9.0510   9.0679   65.926   66.010   73.237
ZERR     1.00   0.0000   0.0000   0.0000    0.000    0.000    0.000
LATT   1
SFAC  C    N    O    CL   PD   H
UNIT  20 4 2 2 2 30
MERG   2
OMIT     1  -4   1
FMAP   2
PLAN    5
SIZE     0.040   0.100   0.190
ACTA    50.00
BOND   $H
CONF
L.S.   4
TEMP  -173.00
WGHT    0.023400    0.918500
FVAR       0.18652
PD1   5    0.475646    0.818449    0.462275    11.00000    0.00971    0.01144 =
         0.01013   -0.00247   -0.00195   -0.00217
CL1   4    0.206273    0.736133    0.606597    11.00000    0.01679    0.02742 =
         0.02365   -0.00513   -0.00127   -0.00868
N3    2    0.403291    1.015855    0.260750    11.00000    0.01160    0.01393 =
         0.01322   -0.00586   -0.00333   -0.00212
O2    3    1.032373    0.725044    0.138226    11.00000    0.01467    0.01222 =
         0.01212   -0.00234   -0.00344   -0.00004
N2    2    0.706607    0.907378    0.313519    11.00000    0.00798    0.01374 =
         0.01482   -0.00819   -0.00174   -0.00173
C1    1    0.563182    0.629026    0.648489    11.00000    0.01070    0.00545 =
         0.01734   -0.00117   -0.00881    0.00191
AFIX 137
H1A   6    0.599938    0.529008    0.618406    11.00000   -1.50000
H1B   6    0.469527    0.611261    0.759007    11.00000   -1.50000
H1C   6    0.661577    0.657015    0.656328    11.00000   -1.50000
AFIX   0
C2    1    0.249623    1.067587    0.237200    11.00000    0.01065    0.01635 =
         0.01876   -0.00888   -0.00539    0.00082
AFIX  43
H2    6    0.152000    1.019650    0.324778    11.00000   -1.20000
AFIX   0
C3    1    0.962266    0.692633    0.318634    11.00000    0.01290    0.01554 =
         0.01186   -0.00170   -0.00552    0.00028
AFIX  23
H3A   6    1.056357    0.645518    0.369268    11.00000   -1.20000
H3B   6    0.879651    0.613136    0.372052    11.00000   -1.20000
AFIX   0
C12   1    1.112255    0.577513    0.099194    11.00000    0.01720    0.01568 =
         0.01824   -0.00553   -0.00695    0.00021
AFIX 137
H12A  6    1.207843    0.525565    0.145619    11.00000   -1.50000
H12B  6    1.157268    0.602787   -0.025220    11.00000   -1.50000
H12C  6    1.026498    0.502895    0.150383    11.00000   -1.50000
AFIX   0
C5    1    0.870362    0.852136    0.350589    11.00000    0.01427    0.01640 =
         0.01796   -0.00679   -0.00630   -0.00207
AFIX  23
H5A   6    0.846378    0.837867    0.471625    11.00000   -1.20000
H5B   6    0.947099    0.937039    0.277801    11.00000   -1.20000
AFIX   0
C6    1    0.540668    1.087661    0.136998    11.00000    0.01317    0.01135 =
         0.01429   -0.00636   -0.00312   -0.00156
C7    1    0.702944    1.025783    0.176304    11.00000    0.01037    0.01313 =
         0.01588   -0.00567   -0.00139   -0.00326
AFIX  43
H7    6    0.804546    1.073636    0.100022    11.00000   -1.20000
AFIX   0
C8    1    0.528142    1.209471   -0.013420    11.00000    0.01797    0.01409 =
         0.01570   -0.00496   -0.00326   -0.00370
AFIX  43
H8    6    0.626851    1.257703   -0.098084    11.00000   -1.20000
AFIX   0
C9    1    0.366996    1.260173   -0.038267    11.00000    0.02490    0.01227 =
         0.01815   -0.00570   -0.01093    0.00203
AFIX  43
H9    6    0.354297    1.342075   -0.141085    11.00000   -1.20000
AFIX   0
C10   1    0.227076    1.188612    0.089796    11.00000    0.01549    0.01827 =
         0.02344   -0.01286   -0.01050    0.00366
AFIX  43
H10   6    0.115777    1.222138    0.077002    11.00000   -1.20000
AFIX   0
HKLF    4

REM  mo_SO_GN_L10Pd_0m in P1
REM R1 =  0.0207 for    2156 Fo > 4sig(Fo)  and  0.0219 for all    2259 data
REM    138 parameters refined using      0 restraints

END

WGHT      0.0234      0.9157

REM Highest difference peak  0.616,  deepest hole -0.489,  1-sigma level  0.091
Q1    1   0.5417  0.6010  0.7083  11.00000  0.05    0.62
Q2    1   0.5516  0.6052  0.6268  11.00000  0.05    0.52
Q3    1   0.6172  0.6088  0.6199  11.00000  0.05    0.52
Q4    1   0.5493  0.6910  0.6166  11.00000  0.05    0.50
Q5    1   0.6618  0.8281  0.3679  11.00000  0.05    0.45
;
_shelx_res_checksum              12051
_shelx_hkl_file
;
  -1   0   0  264.59    6.39
  -1   0   0  254.03    7.42
  -1   0   0  256.20    7.36
  -1   0   0  265.70    6.68
  -1   0   0  272.63    6.77
  -1   0   0  258.07    7.12
  -1   0   0  260.03    6.91
   1   0   0  269.51    7.53
   1   0   0  270.12    6.65
   1   0   0  276.24    6.71
   1   0   0  279.99    7.00
  -2   0   0  155.81    4.53
  -2   0   0  162.10    4.05
  -2   0   0  154.46    3.82
  -2   0   0  153.73    4.56
  -2   0   0  159.02    3.97
   2   0   0  154.05    4.43
   2   0   0  152.85    4.57
   2   0   0  157.13    3.83
   2   0   0  159.37    4.07
   2   0   0  152.44    4.51
   2   0   0  155.90    4.03
   2   0   0  152.93    4.24
  -3   0   0  196.23    5.65
  -3   0   0  183.60    5.65
  -3   0   0  189.76    4.99
  -3   0   0  189.14    4.91
   3   0   0  191.09    5.00
   3   0   0  194.33    5.53
   3   0   0  190.89    5.02
   3   0   0  192.37    5.27
   3   0   0  187.71    4.73
   3   0   0  191.08    5.71
   3   0   0  195.15    5.62
  -4   0   0  150.22    4.78
  -4   0   0  151.08    4.10
  -4   0   0  151.29    4.07
   4   0   0  152.82    4.70
   4   0   0  153.03    4.85
   4   0   0  152.79    4.14
   4   0   0  154.57    4.71
   4   0   0  154.55    4.20
   4   0   0  147.11    3.91
   4   0   0  154.41    4.41
  -5   0   0   24.00    0.93
  -5   0   0   25.50    1.31
  -5   0   0   23.05    0.97
  -5   0   0   23.74    1.27
   5   0   0   23.73    1.07
   5   0   0   22.15    1.10
   5   0   0   23.00    1.32
   5   0   0   24.25    0.96
   5   0   0   23.62    1.31
   5   0   0   23.94    0.94
   5   0   0   21.90    1.19
  -6   0   0   18.19    1.21
  -6   0   0   20.16    0.88
  -6   0   0   20.27    0.95
   6   0   0   19.53    0.90
   6   0   0   18.51    0.89
   6   0   0   18.01    1.14
   6   0   0   21.07    1.06
   6   0   0   19.75    1.09
  -7   0   0   16.92    0.85
  -7   0   0   19.13    0.98
   7   0   0   16.67    1.10
   7   0   0   16.53    0.89
   7   0   0   18.32    1.22
   7   0   0   17.86    0.88
  -8   0   0    2.93    0.49
  -8   0   0    3.71    0.47
   8   0   0    2.44    0.42
   8   0   0    2.67    0.62
   8   0   0    1.58    0.42
  -9   0   0    0.28    0.18
   9   0   0    0.21    0.22
   9  -1   0   28.72    1.38
  -9   1   0   27.15    1.28
   8  -1   0   76.89    3.14
   8  -1   0   70.93    2.44
  -8   1   0   72.17    2.42
  -8   1   0   69.23    2.70
   7  -1   0   71.13    2.28
   7  -1   0   72.70    2.94
   7  -1   0   70.64    2.33
   7  -1   0   70.23    2.73
  -7   1   0   69.63    2.32
  -7   1   0   71.91    2.42
   6  -1   0   34.35    1.58
   6  -1   0   37.46    1.75
   6  -1   0   34.14    1.29
   6  -1   0   33.11    1.30
  -6   1   0   33.34    1.30
  -6   1   0   37.20    1.86
  -6   1   0   32.11    1.35
   5  -1   0  133.81    4.20
   5  -1   0  134.42    3.69
   5  -1   0  135.15    4.47
   5  -1   0  140.51    4.69
   5  -1   0  135.79    3.83
   5  -1   0  138.78    4.58
   5  -1   0  139.50    3.99
  -5   1   0  140.43    4.58
  -5   1   0  138.75    4.65
  -5   1   0  135.05    3.83
  -5   1   0  134.39    3.84
   4  -1   0  198.36    6.08
   4  -1   0  201.29    5.93
   4  -1   0  194.85    5.57
   4  -1   0  194.92    5.21
   4  -1   0  191.24    5.90
   4  -1   0  196.62    5.27
   4  -1   0  193.31    4.96
   4  -1   0  189.48    5.90
  -4   1   0  197.94    5.98
  -4   1   0  195.39    5.14
  -4   1   0  193.13    5.21
  -4   1   0  190.03    6.03
   3  -1   0   62.63    2.23
   3  -1   0   59.82    1.73
   3  -1   0   59.55    2.00
   3  -1   0   60.60    2.13
   3  -1   0   59.18    2.16
   3  -1   0   61.71    1.81
  -3   1   0   58.72    2.20
  -3   1   0   67.85    2.20
  -3   1   0   62.11    1.81
  -3   1   0   60.49    1.80
   2  -1   0    2.51    0.34
   2  -1   0    2.37    0.23
   2  -1   0    1.58    0.23
   2  -1   0    2.13    0.25
   2  -1   0    1.95    0.20
   2  -1   0    1.28    0.21
   2  -1   0    1.61    0.28
  -2   1   0    2.09    0.22
  -2   1   0    2.25    0.22
  -2   1   0    1.81    0.28
  -2   1   0    2.17    0.21
  -2   1   0    1.82    0.27
   1  -1   0  173.55    4.32
   1  -1   0  162.68    4.12
   1  -1   0  168.68    4.87
   1  -1   0  170.57    4.73
   1  -1   0  169.21    4.36
   1  -1   0  171.68    4.83
  -1   1   0  164.65    4.87
  -1   1   0  166.29    4.13
  -1   1   0  173.10    4.38
  -1   1   0  186.88    4.84
  -1   1   0  165.95    4.27
   0  -1   0  189.47    4.59
   0  -1   0  180.74    4.89
   0  -1   0  176.80    4.50
   0  -1   0  181.41    5.05
   0  -1   0  178.05    5.02
   0   1   0  180.86    5.02
   0   1   0  184.13    5.06
   0   1   0  172.66    4.90
   0   1   0  186.84    4.50
  -1  -1   0   93.67    2.41
  -1  -1   0   93.84    2.42
  -1  -1   0  101.46    2.64
  -1  -1   0   91.02    2.70
  -1  -1   0   95.69    2.40
  -1  -1   0   92.12    2.73
  -1  -1   0   95.07    2.32
   1   1   0   93.85    2.48
   1   1   0   90.73    2.43
   1   1   0   94.06    2.32
   1   1   0   91.96    2.73
   1   1   0   90.28    2.71
  -2  -1   0    1.47    0.24
  -2  -1   0    1.48    0.26
  -2  -1   0    1.15    0.13
  -2  -1   0    1.07    0.15
  -2  -1   0    1.98    0.28
  -2  -1   0    1.08    0.16
   2   1   0    1.83    0.23
   2   1   0    1.44    0.19
   2   1   0    1.57    0.27
   2   1   0    1.47    0.25
   2   1   0    1.69    0.19
   2   1   0    1.12    0.22
  -3  -1   0   -0.08    0.09
  -3  -1   0    0.05    0.12
  -3  -1   0    0.08    0.08
  -3  -1   0    0.02    0.11
  -3  -1   0    0.07    0.08
   3   1   0    0.01    0.10
   3   1   0   -0.02    0.10
   3   1   0   -0.15    0.10
   3   1   0    0.16    0.15
   3   1   0    0.15    0.12
   3   1   0    0.00    0.08
   3   1   0   -0.05    0.11
  -4  -1   0   13.51    0.80
  -4  -1   0   13.17    0.62
  -4  -1   0   12.85    0.57
   4   1   0   13.01    0.77
   4   1   0   14.00    0.65
   4   1   0   13.10    0.85
   4   1   0   13.97    0.71
   4   1   0   13.42    0.69
   4   1   0   14.35    0.61
   4   1   0   14.54    0.87
  -5  -1   0   13.44    0.69
  -5  -1   0   14.45    0.65
  -5  -1   0   16.15    0.97
  -5  -1   0   15.83    0.98
   5   1   0   14.40    0.68
   5   1   0   13.11    0.94
   5   1   0   14.93    1.01
   5   1   0   14.19    0.81
   5   1   0   14.20    0.89
   5   1   0   16.65    0.83
   5   1   0   14.26    0.72
  -6  -1   0    6.71    0.51
  -6  -1   0    5.99    0.74
  -6  -1   0    7.05    0.47
   6   1   0    7.27    0.93
   6   1   0    7.10    0.50
   6   1   0    6.54    0.77
   6   1   0    6.88    0.51
   6   1   0    7.27    0.75
   6   1   0    7.06    0.68
  -7  -1   0   65.46    2.81
  -7  -1   0   66.55    2.18
  -7  -1   0   69.55    2.31
   7   1   0   69.40    2.24
   7   1   0   66.70    2.19
   7   1   0   70.46    2.58
   7   1   0   67.09    2.78
  -8  -1   0   47.20    1.81
  -8  -1   0   41.14    1.64
   8   1   0   48.18    1.76
   8   1   0   40.57    2.14
   8   1   0   44.76    2.03
  -9  -1   0    7.14    0.69
   9   1   0    7.31    0.77
  -9   2   0   24.05    1.20
   8  -2   0   13.90    0.90
  -8   2   0   15.12    0.88
   7  -2   0    0.92    0.38
   7  -2   0    1.39    0.28
   7  -2   0    1.55    0.36
   7  -2   0    1.28    0.45
  -7   2   0    1.16    0.27
   6  -2   0   -0.01    0.21
   6  -2   0    0.09    0.18
   6  -2   0    0.29    0.15
   6  -2   0    0.17    0.15
   6  -2   0    0.18    0.22
  -6   2   0    0.17    0.26
  -6   2   0    0.16    0.14
  -6   2   0    0.31    0.15
   5  -2   0   26.83    1.43
   5  -2   0   27.89    1.26
   5  -2   0   30.56    1.62
   5  -2   0   28.19    1.38
   5  -2   0   28.21    1.13
   5  -2   0   29.34    1.10
   5  -2   0   27.43    1.53
  -5   2   0   31.00    1.63
  -5   2   0   27.59    1.17
  -5   2   0   28.32    1.13
   4  -2   0    2.97    0.52
   4  -2   0    3.02    0.49
   4  -2   0    2.91    0.40
   4  -2   0    3.46    0.41
   4  -2   0    3.74    0.60
   4  -2   0    4.26    0.57
   4  -2   0    4.52    0.42
  -4   2   0    3.83    0.39
  -4   2   0    3.60    0.39
  -4   2   0    3.83    0.63
  -4   2   0    4.17    0.58
   3  -2   0    2.21    0.35
   3  -2   0    2.49    0.44
   3  -2   0    2.55    0.35
   3  -2   0    2.47    0.42
   3  -2   0    2.22    0.28
   3  -2   0    2.64    0.29
  -3   2   0    2.80    0.32
  -3   2   0    2.90    0.47
  -3   2   0    2.22    0.28
   2  -2   0    1.26    0.29
   2  -2   0    0.55    0.17
   2  -2   0    0.91    0.15
   2  -2   0    1.08    0.26
   2  -2   0    0.98    0.18
   2  -2   0    0.86    0.18
  -2   2   0    0.48    0.20
  -2   2   0    0.70    0.14
  -2   2   0    0.86    0.16
  -2   2   0    0.69    0.19
   1  -2   0   71.33    1.97
   1  -2   0   72.88    2.02
   1  -2   0   68.04    2.23
   1  -2   0   69.48    2.29
  -1   2   0   65.38    2.29
  -1   2   0   76.87    2.26
  -1   2   0   68.78    1.95
  -1   2   0   70.12    1.88
  -1   2   0   71.57    2.00
   0  -2   0  266.21    6.56
   0  -2   0  250.22    7.19
   0  -2   0  252.84    6.45
   0  -2   0  254.09    7.03
   0  -2   0  272.62    7.27
   0   2   0  253.48    7.19
   0   2   0  255.42    7.28
   0   2   0  255.46    6.43
  -1  -2   0    1.62    0.20
  -1  -2   0    1.36    0.19
  -1  -2   0    1.85    0.19
  -1  -2   0    1.71    0.13
  -1  -2   0    1.41    0.19
   1   2   0    1.83    0.20
   1   2   0    1.52    0.18
   1   2   0    1.44    0.18
   1   2   0    1.42    0.22
  -2  -2   0  309.24    7.89
  -2  -2   0  314.66    8.01
  -2  -2   0  316.59    8.59
  -2  -2   0  321.31    8.90
  -2  -2   0  319.56    7.63
  -2  -2   0  320.02    8.84
   2   2   0  311.24    8.87
   2   2   0  321.22    8.12
   2   2   0  310.46    8.60
   2   2   0  319.70    7.95
   2   2   0  309.01    7.60
   2   2   0  313.09    8.89
  -3  -2   0  299.40    7.54
  -3  -2   0  299.96    8.17
  -3  -2   0  291.69    7.43
  -3  -2   0  291.63    8.39
  -3  -2   0  297.63    8.45
   3   2   0  286.05    7.15
   3   2   0  291.36    8.42
   3   2   0  300.97    7.54
   3   2   0  287.93    8.44
   3   2   0  296.46    7.66
   3   2   0  288.80    8.19
  -4  -2   0  240.51    7.08
  -4  -2   0  239.27    6.21
  -4  -2   0  238.47    6.26
   4   2   0  249.69    6.36
   4   2   0  237.31    6.96
   4   2   0  234.91    5.97
   4   2   0  238.47    7.17
   4   2   0  246.68    6.40
   4   2   0  232.30    7.06
  -5  -2   0   49.75    1.63
  -5  -2   0   50.95    2.06
  -5  -2   0   48.15    1.97
  -5  -2   0   47.36    1.55
  -5  -2   0   48.57    1.95
   5   2   0   47.98    1.55
   5   2   0   50.34    1.76
   5   2   0   46.61    1.94
   5   2   0   46.56    2.06
   5   2   0   48.76    2.04
   5   2   0   47.25    1.65
  -6  -2   0  124.60    4.16
  -6  -2   0  120.99    3.50
  -6  -2   0  116.10    3.42
   6   2   0  120.45    3.35
   6   2   0  115.10    4.06
   6   2   0  117.10    3.63
   6   2   0  123.88    3.54
  -7  -2   0  171.46    5.08
  -7  -2   0  178.74    5.04
  -7  -2   0  179.53    5.99
   7   2   0  189.13    4.93
   7   2   0  182.24    5.96
   7   2   0  186.76    5.12
  -8  -2   0   37.95    1.62
  -8  -2   0   34.03    1.42
   8   2   0   33.00    1.89
   8   2   0   36.88    1.49
   8   2   0   38.19    1.46
  -9  -2   0   16.80    0.93
   9   2   0   16.30    0.99
   8  -3   0   21.83    1.17
  -8   3   0   21.51    1.11
   7  -3   0   35.16    1.95
   7  -3   0   35.34    1.95
   7  -3   0   35.11    1.49
   7  -3   0   36.34    1.87
  -7   3   0   35.08    1.56
  -7   3   0   34.52    1.45
   6  -3   0   24.60    1.43
   6  -3   0   27.14    1.18
   6  -3   0   25.31    1.51
   6  -3   0   25.34    1.51
   6  -3   0   26.03    1.05
  -6   3   0   24.46    1.19
  -6   3   0   24.05    1.13
   5  -3   0  136.54    3.84
   5  -3   0  132.14    4.34
   5  -3   0  133.34    4.59
   5  -3   0  136.05    3.78
  -5   3   0  134.31    3.93
  -5   3   0  135.39    3.93
  -5   3   0  137.88    4.84
   4  -3   0  115.86    3.24
   4  -3   0  107.97    3.83
   4  -3   0  116.76    3.44
   4  -3   0  114.26    4.01
   4  -3   0  114.34    3.93
   4  -3   0  108.92    3.64
   4  -3   0  114.53    3.17
  -4   3   0  107.84    3.29
  -4   3   0  116.28    4.06
  -4   3   0  113.25    3.31
  -4   3   0  115.29    3.89
   3  -3   0  119.78    3.39
   3  -3   0  123.74    3.54
   3  -3   0  121.73    3.29
   3  -3   0  121.98    4.06
   3  -3   0  118.09    3.95
   3  -3   0  125.05    4.01
  -3   3   0  117.75    3.40
  -3   3   0  119.05    4.09
  -3   3   0  123.14    3.47
  -3   3   0  121.02    3.95
   2  -3   0  100.78    3.19
   2  -3   0   93.32    3.15
   2  -3   0   99.62    2.84
   2  -3   0   96.42    2.71
   2  -3   0   93.62    3.23
  -2   3   0  100.76    3.16
  -2   3   0   95.14    2.73
  -2   3   0   91.31    3.25
  -2   3   0   94.33    2.77
   1  -3   0  275.48    7.15
   1  -3   0  273.48    7.98
   1  -3   0  270.50    7.81
   1  -3   0  280.24    8.06
   1  -3   0  283.24    7.21
  -1   3   0  275.10    8.10
  -1   3   0  278.19    7.26
  -1   3   0  295.85    7.99
  -1   3   0  271.79    7.08
   0  -3   0   79.90    2.23
   0  -3   0   75.28    2.50
   0  -3   0   77.82    2.27
   0  -3   0   83.78    2.24
   0  -3   0   78.27    2.57
   0  -3   0   76.73    2.50
   0   3   0   79.06    2.49
   0   3   0   90.76    2.33
   0   3   0   76.09    2.22
   0   3   0   76.56    2.60
  -1  -3   0   42.78    1.46
  -1  -3   0   41.22    1.26
  -1  -3   0   41.08    1.31
  -1  -3   0   42.86    1.46
   1   3   0   39.86    1.34
   1   3   0   38.96    1.30
   1   3   0   44.81    1.46
   1   3   0   42.12    1.55
  -2  -3   0  102.09    3.19
  -2  -3   0  103.56    3.15
  -2  -3   0  111.54    3.31
  -2  -3   0  104.08    2.83
  -2  -3   0  104.38    2.86
   2   3   0  105.24    2.74
   2   3   0  106.45    3.22
   2   3   0  100.87    2.89
   2   3   0   98.69    3.26
   2   3   0  103.66    2.94
  -3  -3   0  241.30    6.32
  -3  -3   0  247.84    6.91
  -3  -3   0  242.63    7.15
  -3  -3   0  246.96    6.31
  -3  -3   0  241.54    7.05
   3   3   0  247.71    6.04
   3   3   0  246.44    6.37
   3   3   0  240.72    7.14
   3   3   0  235.24    6.90
   3   3   0  243.21    6.46
  -4  -3   0   22.31    0.89
  -4  -3   0   21.15    0.81
  -4  -3   0   18.56    1.06
  -4  -3   0   22.77    0.93
  -4  -3   0   21.03    1.05
   4   3   0   21.01    0.96
   4   3   0   21.67    0.92
   4   3   0   21.09    0.83
   4   3   0   20.54    1.09
   4   3   0   22.29    1.12
  -5  -3   0   20.03    0.93
  -5  -3   0   21.19    0.92
  -5  -3   0   20.14    1.10
  -5  -3   0   18.69    1.09
  -5  -3   0   21.43    1.20
  -5  -3   0   18.83    0.80
   5   3   0   20.23    1.19
   5   3   0   20.45    0.93
   5   3   0   20.28    1.00
   5   3   0   19.63    1.13
   5   3   0   20.08    0.86
  -6  -3   0   33.87    1.66
  -6  -3   0   34.81    1.28
  -6  -3   0   37.44    1.42
  -6  -3   0   37.92    1.75
   6   3   0   37.25    1.63
   6   3   0   32.06    1.67
   6   3   0   34.48    1.37
   6   3   0   33.57    1.29
  -7  -3   0    1.11    0.28
  -7  -3   0    0.69    0.20
  -7  -3   0    1.01    0.37
   7   3   0    0.79    0.37
   7   3   0    0.48    0.21
   7   3   0    0.46    0.22
  -8  -3   0    3.21    0.41
   8   3   0    2.99    0.46
   8   3   0    2.35    0.63
  -9  -3   0    0.06    0.15
   9   3   0   -0.04    0.19
  -8   4   0   23.93    1.22
  -7   4   0    7.02    0.70
   6  -4   0   42.56    1.48
   6  -4   0   40.84    2.12
   6  -4   0   44.15    2.08
  -6   4   0   42.37    1.73
  -6   4   0   37.55    1.59
   5  -4   0   97.25    3.47
   5  -4   0   95.91    3.64
   5  -4   0   97.37    2.89
  -5   4   0   91.18    3.00
  -5   4   0  101.32    3.09
  -5   4   0   97.76    3.87
   4  -4   0   12.06    0.81
   4  -4   0   11.77    0.93
   4  -4   0   11.76    0.63
   4  -4   0   12.82    1.01
  -4   4   0   12.16    0.71
  -4   4   0   12.55    1.06
  -4   4   0   12.17    0.75
   3  -4   0   64.57    2.17
   3  -4   0   60.10    2.41
   3  -4   0   62.38    2.47
   3  -4   0   59.63    1.93
   3  -4   0   66.16    2.55
  -3   4   0   58.00    2.01
  -3   4   0   62.55    2.39
  -3   4   0   61.40    2.57
  -3   4   0   58.70    2.02
   2  -4   0   52.35    1.71
   2  -4   0   52.76    2.08
   2  -4   0   54.73    2.13
   2  -4   0   58.63    2.23
  -2   4   0   54.87    2.25
  -2   4   0   53.23    1.80
  -2   4   0   53.76    1.79
  -2   4   0   55.08    2.07
   1  -4   0   17.10    0.98
   1  -4   0   18.84    0.87
   1  -4   0   17.87    0.99
   1  -4   0   20.47    1.00
   1  -4   0   19.69    0.78
  -1   4   0   17.36    0.81
  -1   4   0   19.88    1.09
  -1   4   0   17.37    0.80
   0  -4   0    7.12    0.41
   0  -4   0    6.29    0.52
   0  -4   0    7.84    0.58
   0  -4   0    6.48    0.51
   0  -4   0    6.71    0.46
   0  -4   0    6.56    0.40
   0   4   0    7.03    0.45
   0   4   0    5.88    0.46
   0   4   0    7.99    0.48
   0   4   0    5.10    0.58
  -1  -4   0    1.18    0.26
  -1  -4   0    1.41    0.21
  -1  -4   0    0.85    0.23
  -1  -4   0    1.33    0.25
  -1  -4   0    1.29    0.27
   1   4   0    1.53    0.26
   1   4   0    1.13    0.23
   1   4   0    1.19    0.23
   1   4   0    1.18    0.30
  -2  -4   0    2.95    0.41
  -2  -4   0    3.53    0.47
  -2  -4   0    2.61    0.36
  -2  -4   0    2.66    0.32
  -2  -4   0    2.53    0.28
   2   4   0    2.38    0.41
   2   4   0    2.22    0.30
   2   4   0    2.11    0.31
   2   4   0    2.63    0.30
   2   4   0    3.24    0.41
  -3  -4   0   12.99    0.67
  -3  -4   0   11.82    0.72
  -3  -4   0   12.17    0.57
   3   4   0   12.73    0.68
   3   4   0   12.36    0.76
   3   4   0   13.76    0.63
   3   4   0   12.07    0.80
   3   4   0   13.35    0.70
  -4  -4   0   17.26    1.02
  -4  -4   0   16.18    0.92
  -4  -4   0   16.19    0.72
  -4  -4   0   16.32    0.97
  -4  -4   0   16.29    0.82
   4   4   0   17.69    0.88
   4   4   0   17.28    1.02
   4   4   0   17.70    0.84
   4   4   0   16.24    1.00
   4   4   0   16.37    0.98
   4   4   0   17.42    0.76
  -5  -4   0    1.82    0.41
  -5  -4   0    1.08    0.29
  -5  -4   0    1.26    0.28
  -5  -4   0    1.43    0.38
  -5  -4   0    1.49    0.25
   5   4   0    1.09    0.26
   5   4   0    2.01    0.44
   5   4   0    1.02    0.22
   5   4   0    1.18    0.28
  -6  -4   0   52.85    1.82
  -6  -4   0   54.76    1.99
  -6  -4   0   54.75    2.28
  -6  -4   0   55.91    2.34
   6   4   0   57.76    2.40
   6   4   0   55.38    1.84
   6   4   0   54.83    1.94
  -7  -4   0   65.30    2.72
  -7  -4   0   59.19    2.18
  -7  -4   0   61.14    2.25
  -7  -4   0   60.35    2.06
   7   4   0   62.22    2.15
   7   4   0   61.17    2.08
   7   4   0   64.54    2.73
  -8  -4   0   17.15    0.90
   8   4   0   13.52    1.46
   8   4   0   16.24    0.93
  -9  -4   0   41.13    1.63
   9   4   0   37.52    1.63
  -7   5   0    0.54    0.25
   6  -5   0    0.46    0.36
   6  -5   0    0.65    0.44
  -6   5   0    0.29    0.19
   5  -5   0   11.02    1.17
   5  -5   0   10.66    0.62
  -5   5   0   10.07    0.71
  -5   5   0   12.34    0.83
   4  -5   0    7.51    0.93
   4  -5   0    6.81    0.49
  -4   5   0    7.23    0.57
  -4   5   0    8.35    1.12
  -4   5   0    8.62    0.65
   3  -5   0   38.77    1.61
   3  -5   0   38.94    1.94
   3  -5   0   34.57    1.76
   3  -5   0   35.68    1.34
  -3   5   0   36.90    1.95
  -3   5   0   36.73    1.47
  -3   5   0   36.98    1.47
   2  -5   0   13.59    0.95
   2  -5   0   12.75    0.78
   2  -5   0   11.83    0.89
   2  -5   0   11.81    0.63
   2  -5   0   12.38    0.89
  -2   5   0   10.97    0.96
  -2   5   0   10.59    0.68
  -2   5   0   11.60    0.81
  -2   5   0   11.18    0.69
   1  -5   0  158.56    4.73
   1  -5   0  172.46    5.43
   1  -5   0  169.98    5.34
   1  -5   0  175.15    4.88
   1  -5   0  178.26    5.52
  -1   5   0  170.31    4.77
  -1   5   0  193.33    5.41
  -1   5   0  172.79    4.87
  -1   5   0  171.36    5.62
   0  -5   0   58.24    1.99
   0  -5   0   56.07    2.18
   0  -5   0   54.51    2.18
   0  -5   0   59.47    1.88
   0  -5   0   63.13    2.31
   0   5   0   62.21    1.99
   0   5   0   58.52    1.95
   0   5   0   60.14    2.38
   0   5   0   60.42    2.16
  -1  -5   0   75.51    2.26
  -1  -5   0   77.61    2.67
  -1  -5   0   73.35    2.56
  -1  -5   0   71.99    2.59
  -1  -5   0   74.14    2.36
   1   5   0   73.43    2.78
   1   5   0   74.34    2.34
   1   5   0   76.18    2.38
  -2  -5   0  181.89    4.98
  -2  -5   0  177.62    5.53
  -2  -5   0  188.36    4.95
   2   5   0  183.62    4.98
   2   5   0  184.65    4.73
   2   5   0  176.53    5.05
   2   5   0  177.78    5.71
  -3  -5   0  136.17    3.92
  -3  -5   0  140.49    4.49
  -3  -5   0  137.05    4.35
  -3  -5   0  138.73    3.83
   3   5   0  137.59    3.93
   3   5   0  134.52    3.98
   3   5   0  136.64    4.52
   3   5   0  134.53    3.68
  -4  -5   0   22.49    1.24
  -4  -5   0   21.53    1.03
  -4  -5   0   20.88    1.15
  -4  -5   0   22.76    0.92
  -4  -5   0   21.49    1.14
   4   5   0   23.50    1.09
   4   5   0   20.59    1.02
   4   5   0   22.17    0.93
   4   5   0   21.94    1.27
  -5  -5   0   67.86    2.58
  -5  -5   0   66.87    2.95
  -5  -5   0   66.62    2.15
  -5  -5   0   70.57    2.64
  -5  -5   0   65.79    2.31
   5   5   0   68.84    2.74
   5   5   0   68.31    2.67
   5   5   0   68.80    2.38
   5   5   0   68.71    2.14
   5   5   0   67.62    2.31
  -6  -5   0   44.55    2.03
  -6  -5   0   47.05    2.12
  -6  -5   0   47.21    1.84
  -6  -5   0   46.59    1.65
   6   5   0   45.90    1.65
   6   5   0   47.09    2.20
   6   5   0   47.22    1.79
  -7  -5   0   11.49    0.70
   7   5   0   10.76    0.75
   7   5   0   12.49    1.12
   7   5   0   12.39    0.76
  -8  -5   0   19.57    1.00
   8   5   0   18.45    1.02
  -9  -5   0   22.29    1.14
  -6   6   0   44.98    1.86
   5  -6   0   29.47    1.79
  -5   6   0   25.28    1.27
   4  -6   0   14.87    1.20
   4  -6   0   14.13    0.74
  -4   6   0   14.73    0.88
  -4   6   0   13.57    0.90
   3  -6   0   50.60    1.74
   3  -6   0   50.46    2.33
  -3   6   0   49.15    1.89
  -3   6   0   51.44    1.93
  -3   6   0   49.09    2.49
   2  -6   0   93.00    3.35
   2  -6   0   93.30    3.51
   2  -6   0   94.17    2.87
  -2   6   0   97.73    3.77
  -2   6   0   98.41    3.04
  -2   6   0   94.10    3.03
   1  -6   0   48.65    1.68
   1  -6   0   46.73    2.07
   1  -6   0   50.72    1.90
  -1   6   0   48.56    2.29
  -1   6   0   49.80    2.03
  -1   6   0   47.30    1.80
  -1   6   0   48.55    1.82
   0  -6   0   17.05    1.07
   0  -6   0   18.61    0.99
   0   6   0   18.86    0.94
   0   6   0   16.76    1.20
   0   6   0   18.35    1.03
   0   6   0   16.84    0.91
  -1  -6   0   77.42    2.37
  -1  -6   0   75.54    2.37
  -1  -6   0   74.63    2.76
  -1  -6   0   72.32    2.47
   1   6   0   76.50    2.68
   1   6   0   76.95    2.46
   1   6   0   74.95    2.48
   1   6   0   71.59    2.94
  -2  -6   0   48.61    1.65
  -2  -6   0   48.96    1.80
  -2  -6   0   48.93    2.03
  -2  -6   0   45.85    1.96
   2   6   0   49.01    1.93
   2   6   0   45.90    1.60
   2   6   0   46.32    1.76
   2   6   0   48.86    2.18
   2   6   0   44.56    1.73
  -3  -6   0    8.80    0.73
  -3  -6   0    9.32    0.58
  -3  -6   0    8.70    0.77
  -3  -6   0   10.41    0.78
  -3  -6   0    9.80    0.68
   3   6   0    6.94    0.84
   3   6   0    9.56    0.60
   3   6   0    9.16    0.73
   3   6   0    9.14    0.66
   3   6   0   10.43    0.68
  -4  -6   0   14.67    0.87
  -4  -6   0   13.33    0.94
  -4  -6   0   12.78    0.92
  -4  -6   0   14.40    0.75
   4   6   0   12.96    0.73
   4   6   0   13.42    1.05
   4   6   0   15.02    0.88
   4   6   0   15.01    0.86
  -5  -6   0   16.39    1.07
  -5  -6   0   16.41    0.83
  -5  -6   0   16.89    0.97
  -5  -6   0   16.05    1.10
   5   6   0   16.03    0.84
   5   6   0   16.72    0.94
   5   6   0   15.68    1.19
  -6  -6   0    3.58    0.44
   6   6   0    3.00    0.48
   6   6   0    3.91    0.49
   6   6   0    4.36    0.74
  -7  -6   0    6.34    0.61
   7   6   0    6.05    0.65
   7   6   0    5.09    0.84
   7   6   0    6.30    0.66
  -8  -6   0    0.03    0.14
   8   6   0    0.03    0.21
  -5   7   0    1.93    0.41
   4  -7   0    0.34    0.37
  -4   7   0    0.35    0.22
   3  -7   0    2.84    0.64
   3  -7   0    2.63    0.37
  -3   7   0    3.37    0.53
  -3   7   0    3.63    0.53
   2  -7   0   11.30    0.67
   2  -7   0   12.51    1.28
  -2   7   0   12.01    0.81
  -2   7   0    9.75    0.76
  -2   7   0   10.06    1.26
   1  -7   0   15.05    0.80
   1  -7   0   14.54    1.11
  -1   7   0   15.87    0.95
  -1   7   0   15.77    0.93
  -1   7   0   15.22    1.30
   0  -7   0    0.32    0.29
   0  -7   0    0.29    0.15
   0   7   0    0.45    0.35
   0   7   0    0.34    0.19
   0   7   0    0.26    0.20
  -1  -7   0   16.39    0.97
  -1  -7   0   14.08    0.78
  -1  -7   0   14.99    1.01
  -1  -7   0   13.83    1.03
   1   7   0   14.38    0.89
   1   7   0   14.59    0.88
   1   7   0   14.77    1.22
  -2  -7   0   40.90    1.76
  -2  -7   0   38.16    1.79
  -2  -7   0   35.08    1.58
  -2  -7   0   35.45    1.42
   2   7   0   35.71    1.56
   2   7   0   35.00    1.52
   2   7   0   34.84    1.96
  -3  -7   0   23.87    1.09
  -3  -7   0   25.50    1.28
  -3  -7   0   23.01    1.37
  -3  -7   0   28.79    1.47
   3   7   0   25.25    1.22
   3   7   0   25.14    1.26
   3   7   0   25.90    1.63
   3   7   0   25.61    1.13
  -4  -7   0   19.10    1.22
  -4  -7   0   19.14    0.97
   4   7   0   20.48    1.09
   4   7   0   18.43    0.95
   4   7   0   19.99    1.42
  -5  -7   0   36.14    1.44
  -5  -7   0   34.66    1.79
   5   7   0   35.53    2.01
   5   7   0   33.45    1.39
   5   7   0   34.23    1.52
  -6  -7   0   67.83    2.30
   6   7   0   67.00    2.40
   6   7   0   64.14    2.99
   6   7   0   64.18    2.24
  -7  -7   0   21.50    1.10
   7   7   0   23.18    1.15
   7   7   0   20.86    1.14
  -4   8   0   31.92    1.54
  -3   8   0   34.72    1.62
   2  -8   0   42.37    1.59
   2  -8   0   40.79    2.21
  -2   8   0   43.09    1.82
   1  -8   0   14.10    1.43
   1  -8   0   11.75    0.73
  -1   8   0   12.42    0.88
   0  -8   0   29.42    1.29
   0  -8   0   31.18    1.77
   0   8   0   30.13    1.45
  -1  -8   0   59.52    2.11
  -1  -8   0   61.22    2.66
   1   8   0   58.83    2.25
   1   8   0   59.06    2.90
  -2  -8   0   42.81    1.66
  -2  -8   0   43.97    1.68
  -2  -8   0   41.65    2.08
   2   8   0   44.46    1.69
   2   8   0   42.45    1.79
   2   8   0   42.77    2.36
  -3  -8   0   16.74    0.93
  -3  -8   0   17.06    1.22
   3   8   0   16.83    1.45
   3   8   0   17.41    0.96
   3   8   0   17.49    1.04
  -4  -8   0   35.09    1.90
  -4  -8   0   38.32    1.54
   4   8   0   38.72    2.23
   4   8   0   40.24    1.58
   4   8   0   35.59    1.63
  -5  -8   0   64.02    2.28
   5   8   0   67.07    3.16
   5   8   0   62.82    2.37
   5   8   0   63.85    2.23
  -6  -8   0   13.05    0.86
   6   8   0   13.17    0.90
   6   8   0   13.03    0.86
  -7  -8   0   16.47    0.98
   7   8   0   15.44    0.97
  -3   9   0   62.56    2.46
  -2   9   0   21.96    1.28
  -1   9   0    3.55    0.59
   0  -9   0   29.63    1.31
   0  -9   0   31.17    2.01
   0   9   0   30.18    1.51
  -1  -9   0   12.58    1.39
  -1  -9   0   11.29    0.76
   1   9   0   11.06    0.88
  -2  -9   0    0.31    0.36
  -2  -9   0    0.70    0.24
   2   9   0    0.60    0.27
   2   9   0    0.48    0.28
  -3  -9   0    1.66    0.34
  -3  -9   0    1.74    0.37
   3   9   0    1.33    0.37
   3   9   0    1.49    0.38
  -4  -9   0    0.06    0.19
   4   9   0    0.68    0.31
   4   9   0    0.27    0.24
  -5  -9   0    0.89    0.29
   5   9   0    1.58    0.39
   5   9   0    1.58    0.39
   0  10   0    4.69    0.70
   1  10   0    9.75    0.98
   2  10   0   14.98    1.03
   2  10   0   16.98    1.11
  -3 -10   0   13.15    0.91
   3  10   0   14.58    0.99
   3  10   0   13.21    0.99
   4   9  -1    4.37    0.59
  -4  -9   1    3.43    0.55
   3   9  -1   15.30    0.96
  -3  -9   1   14.70    0.97
   2   9  -1    8.55    0.70
   2   9  -1    8.94    0.87
  -2  -9   1    8.05    0.82
  -2  -9   1    7.94    0.81
   1   9  -1   28.78    1.37
   1   9  -1   25.67    1.30
  -1  -9   1   27.36    1.36
   0   9  -1   48.72    1.98
   0  -9   1   52.05    2.03
  -1   9  -1   23.59    1.25
   1  -9   1   24.26    1.24
  -2   9  -1   16.67    1.03
   2  -9   1   20.00    1.09
   6   8  -1   19.13    1.13
  -6  -8   1   21.72    1.17
   5   8  -1   42.20    1.68
  -5  -8   1   42.84    1.79
   4   8  -1   63.46    2.15
   4   8  -1   57.61    2.16
  -4  -8   1   61.46    2.26
   3   8  -1    2.51    0.78
   3   8  -1    2.03    0.38
   3   8  -1    2.16    0.41
  -3  -8   1    2.66    0.44
   2   8  -1   26.03    1.22
   2   8  -1   26.49    1.25
   2   8  -1   26.84    1.88
  -2  -8   1   25.52    1.26
   1   8  -1   82.35    2.74
   1   8  -1   83.05    2.65
   1   8  -1   77.73    3.57
  -1  -8   1   82.59    2.76
  -1  -8   1   76.27    2.72
   0   8  -1   23.56    1.17
   0   8  -1   21.53    1.71
   0  -8   1   21.93    1.16
  -1   8  -1   20.37    1.07
  -1   8  -1   18.37    1.62
   1  -8   1   14.01    1.30
   1  -8   1   17.64    1.01
  -2   8  -1   12.04    0.82
   2  -8   1   12.08    0.82
  -3   8  -1   10.29    0.76
   3  -8   1    9.76    0.73
  -4   8  -1    0.03    0.16
   4  -8   1    0.34    0.21
   7   7  -1    4.17    0.62
  -7  -7   1    4.34    0.57
   6   7  -1   23.15    1.12
  -6  -7   1   22.37    1.14
   5   7  -1   46.15    2.44
   5   7  -1   44.80    1.69
  -5  -7   1   46.33    1.78
   4   7  -1    3.77    0.48
   4   7  -1    4.24    0.49
   4   7  -1    5.53    0.94
  -4  -7   1    3.79    0.69
  -4  -7   1    3.72    0.49
  -4  -7   1    5.54    0.68
   3   7  -1    3.69    0.79
   3   7  -1    3.10    0.45
   3   7  -1    2.64    0.42
  -3  -7   1    3.20    0.51
  -3  -7   1    3.26    0.45
  -3  -7   1    3.02    0.58
   2   7  -1    0.12    0.35
   2   7  -1    0.46    0.21
   2   7  -1    1.31    0.31
  -2  -7   1    1.10    0.26
  -2  -7   1    1.40    0.40
  -2  -7   1    1.31    0.43
  -2  -7   1    0.60    0.27
   1   7  -1    0.23    0.35
   1   7  -1    0.29    0.18
  -1  -7   1    0.12    0.21
  -1  -7   1    0.16    0.19
  -1  -7   1    0.22    0.17
  -1  -7   1    0.17    0.23
   0   7  -1    2.88    0.44
   0   7  -1    2.98    0.73
   0  -7   1    2.79    0.53
   0  -7   1    2.10    0.36
   0  -7   1    2.50    0.57
   0  -7   1    2.31    0.48
  -1   7  -1    3.60    0.47
  -1   7  -1    3.67    0.75
   1  -7   1    4.96    0.83
   1  -7   1    3.32    0.45
  -2   7  -1    6.68    0.68
  -2   7  -1    6.42    1.05
   2  -7   1    6.36    0.65
   2  -7   1    6.39    0.91
  -3   7  -1   34.67    1.48
  -3   7  -1   34.81    2.17
   3  -7   1   34.52    1.47
   3  -7   1   33.60    1.96
  -4   7  -1   30.10    1.37
   4  -7   1   30.44    1.36
   4  -7   1   27.17    1.85
  -5   7  -1   14.23    0.91
   5  -7   1   14.21    0.86
   7   6  -1    5.30    0.60
  -7  -6   1    5.81    0.63
   6   6  -1    4.71    0.94
   6   6  -1    3.44    0.46
  -6  -6   1    2.72    0.63
  -6  -6   1    3.54    0.47
   5   6  -1   21.52    1.48
   5   6  -1   21.72    1.00
   5   6  -1   23.81    1.04
  -5  -6   1   21.98    1.37
  -5  -6   1   21.55    1.18
  -5  -6   1   20.95    1.02
   4   6  -1   38.72    2.01
   4   6  -1   39.93    1.51
   4   6  -1   41.01    1.47
  -4  -6   1   38.37    1.83
  -4  -6   1   37.78    1.48
  -4  -6   1   41.28    1.69
  -4  -6   1   40.40    1.86
   3   6  -1   30.09    1.24
   3   6  -1   28.30    1.16
   3   6  -1   27.77    1.64
  -3  -6   1   30.68    1.52
  -3  -6   1   30.56    1.37
  -3  -6   1   30.10    1.50
  -3  -6   1   29.53    1.22
   2   6  -1  123.53    3.41
   2   6  -1  118.66    3.58
   2   6  -1  121.22    4.35
   2   6  -1  123.34    3.66
  -2  -6   1  119.68    3.58
  -2  -6   1  122.40    3.69
  -2  -6   1  122.20    3.98
  -2  -6   1  113.98    4.05
   1   6  -1  101.99    3.20
   1   6  -1  103.53    3.88
   1   6  -1  100.46    3.16
  -1  -6   1  100.82    3.28
  -1  -6   1   97.07    3.11
  -1  -6   1  109.38    3.59
  -1  -6   1  118.63    3.81
  -1  -6   1  103.86    3.66
   0   6  -1   33.66    1.56
   0   6  -1   32.97    1.43
   0   6  -1   36.93    1.91
   0   6  -1   39.06    1.44
   0  -6   1   35.25    1.52
   0  -6   1   40.32    1.81
   0  -6   1   33.19    1.66
   0  -6   1   34.15    1.38
   0  -6   1   35.50    1.68
   0  -6   1   33.68    1.38
  -1   6  -1   57.78    1.98
  -1   6  -1   56.45    2.55
   1  -6   1   53.88    2.34
   1  -6   1   62.95    2.51
   1  -6   1   52.46    1.94
   1  -6   1   52.84    2.09
   1  -6   1   56.78    2.38
  -2   6  -1   56.36    2.67
  -2   6  -1   57.26    2.09
  -2   6  -1   58.18    2.05
   2  -6   1   58.03    2.23
   2  -6   1   60.69    2.53
   2  -6   1   55.37    2.47
   2  -6   1   59.29    2.06
  -3   6  -1   68.94    3.14
  -3   6  -1   73.79    2.53
  -3   6  -1   70.24    2.38
   3  -6   1   72.14    2.41
   3  -6   1   67.91    2.93
  -4   6  -1    3.51    0.47
  -4   6  -1    2.49    0.73
   4  -6   1    2.63    0.41
   4  -6   1    2.81    0.67
  -5   6  -1   39.22    1.62
   5  -6   1   36.27    2.15
   5  -6   1   42.13    1.63
  -6   6  -1   31.61    1.42
   6  -6   1   30.69    1.36
   8   5  -1   23.71    1.15
  -8  -5   1   23.51    1.17
   7   5  -1   24.54    1.14
  -7  -5   1   22.52    1.11
  -7  -5   1   27.89    1.78
   6   5  -1   73.22    3.06
   6   5  -1   75.69    2.38
  -6  -5   1   79.08    3.06
  -6  -5   1   75.01    2.65
  -6  -5   1   74.75    2.45
   5   5  -1   92.01    2.76
   5   5  -1   92.49    2.70
   5   5  -1   87.92    3.44
  -5  -5   1   91.87    3.33
  -5  -5   1   91.41    2.80
  -5  -5   1   89.60    2.96
   4   5  -1   43.05    2.00
   4   5  -1   43.28    1.54
   4   5  -1   43.34    1.49
  -4  -5   1   43.06    1.66
  -4  -5   1   42.77    1.87
  -4  -5   1   42.26    1.52
  -4  -5   1   43.88    1.87
   3   5  -1   64.24    2.39
   3   5  -1   58.69    2.00
   3   5  -1   60.86    2.50
   3   5  -1   64.01    2.11
   3   5  -1   61.70    1.91
  -3  -5   1   60.29    1.97
  -3  -5   1   61.31    2.33
  -3  -5   1   60.76    2.33
  -3  -5   1   61.68    2.11
   2   5  -1  192.45    5.82
   2   5  -1  183.28    5.23
   2   5  -1  191.63    4.95
   2   5  -1  186.59    6.06
   2   5  -1  197.05    5.26
  -2  -5   1  188.69    5.26
  -2  -5   1  199.19    5.99
  -2  -5   1  199.00    5.73
  -2  -5   1  186.97    5.20
  -2  -5   1  183.66    5.83
   1   5  -1   71.83    2.31
   1   5  -1   75.59    2.58
   1   5  -1   77.88    2.89
   1   5  -1   72.46    2.34
  -1  -5   1   72.90    2.39
  -1  -5   1   71.79    2.29
  -1  -5   1   76.61    2.63
  -1  -5   1   70.31    2.63
  -1  -5   1   78.14    2.75
   0   5  -1   10.86    0.62
   0   5  -1   10.35    0.63
   0   5  -1    9.69    0.67
   0   5  -1    9.86    0.85
   0  -5   1    8.89    0.56
   0  -5   1   11.44    0.79
   0  -5   1   11.30    0.83
   0  -5   1    9.64    0.66
   0  -5   1   10.94    0.77
  -1   5  -1   41.53    1.44
  -1   5  -1   39.05    1.86
  -1   5  -1   40.78    1.47
   1  -5   1   34.54    1.49
   1  -5   1   35.96    1.68
   1  -5   1   34.44    1.68
   1  -5   1   42.64    1.83
   1  -5   1   35.24    1.38
  -2   5  -1   50.58    1.79
  -2   5  -1   54.74    2.39
  -2   5  -1   50.82    2.06
  -2   5  -1   51.50    1.83
   2  -5   1   52.99    2.28
   2  -5   1   50.00    2.16
   2  -5   1   49.14    1.78
   2  -5   1   56.21    2.27
   2  -5   1   50.84    1.94
  -3   5  -1    3.08    0.41
  -3   5  -1    2.31    0.60
  -3   5  -1    2.62    0.41
  -3   5  -1    2.13    0.43
   3  -5   1    2.25    0.53
   3  -5   1    3.15    0.63
   3  -5   1    3.31    0.54
   3  -5   1    2.37    0.50
   3  -5   1    2.22    0.35
  -4   5  -1    0.06    0.12
  -4   5  -1    0.02    0.27
  -4   5  -1    0.06    0.12
   4  -5   1    0.08    0.19
   4  -5   1    0.15    0.21
   4  -5   1    0.05    0.22
   4  -5   1    0.11    0.13
  -5   5  -1    2.60    0.41
  -5   5  -1    1.44    0.59
   5  -5   1    3.38    0.69
   5  -5   1    2.04    0.36
  -6   5  -1    3.86    0.50
   6  -5   1    4.29    0.53
   6  -5   1    4.68    0.89
  -7   5  -1    7.88    0.63
   8   4  -1    0.43    0.22
  -8  -4   1    0.45    0.20
   7   4  -1   35.43    1.41
   7   4  -1   34.83    1.93
  -7  -4   1   37.64    1.98
  -7  -4   1   35.71    1.61
  -7  -4   1   36.54    1.46
  -7  -4   1   36.63    1.58
   6   4  -1   25.04    1.48
   6   4  -1   24.28    1.00
   6   4  -1   28.09    1.11
  -6  -4   1   25.75    1.24
  -6  -4   1   24.46    1.45
  -6  -4   1   24.80    1.09
   5   4  -1    3.89    0.43
   5   4  -1    3.41    0.60
   5   4  -1    3.31    0.37
  -5  -4   1    4.50    0.65
  -5  -4   1    3.98    0.42
  -5  -4   1    4.22    0.52
  -5  -4   1    3.22    0.55
   4   4  -1    1.72    0.26
   4   4  -1    1.66    0.32
   4   4  -1    2.01    0.42
   4   4  -1    1.80    0.38
   4   4  -1    1.41    0.26
   4   4  -1    1.79    0.42
  -4  -4   1    1.40    0.28
  -4  -4   1    1.79    0.40
  -4  -4   1    1.63    0.37
  -4  -4   1    1.70    0.26
   3   4  -1    7.08    0.51
   3   4  -1    7.67    0.45
   3   4  -1    7.75    0.80
   3   4  -1    6.83    0.46
   3   4  -1    6.85    0.58
  -3  -4   1    7.12    0.57
  -3  -4   1    7.39    0.44
  -3  -4   1    7.70    0.52
  -3  -4   1    7.33    0.64
  -3  -4   1    7.15    0.58
   2   4  -1    0.07    0.13
   2   4  -1    0.16    0.19
   2   4  -1    0.02    0.10
   2   4  -1    0.05    0.10
   2   4  -1    0.05    0.11
  -2  -4   1    0.12    0.16
  -2  -4   1    0.24    0.14
  -2  -4   1    0.14    0.15
  -2  -4   1    0.16    0.10
  -2  -4   1    0.36    0.18
   1   4  -1   38.46    1.27
   1   4  -1   37.21    1.33
   1   4  -1   37.72    1.37
   1   4  -1   40.34    1.51
   1   4  -1   44.64    1.75
  -1  -4   1   39.95    1.40
  -1  -4   1   39.01    1.31
  -1  -4   1   40.07    1.62
  -1  -4   1   38.85    1.54
  -1  -4   1   38.78    1.54
   0   4  -1   57.51    2.03
   0   4  -1   59.77    2.25
   0  -4   1   55.54    1.79
   0  -4   1   59.68    2.10
   0  -4   1   55.71    1.87
  -1   4  -1   78.74    2.81
  -1   4  -1   78.07    2.30
  -1   4  -1   79.64    2.59
  -1   4  -1   77.16    2.29
   1  -4   1   67.93    2.26
   1  -4   1   77.07    2.66
   1  -4   1   72.07    2.27
   1  -4   1   72.34    2.37
  -2   4  -1   77.02    2.40
  -2   4  -1   81.42    2.74
  -2   4  -1   71.77    2.36
  -2   4  -1   75.42    2.93
   2  -4   1   79.23    2.52
   2  -4   1   82.41    2.84
   2  -4   1   78.78    2.41
  -3   4  -1   69.45    2.20
  -3   4  -1   72.46    2.27
  -3   4  -1   68.68    2.82
   3  -4   1   70.29    2.24
   3  -4   1   67.16    2.67
   3  -4   1   68.48    2.38
   3  -4   1   71.95    2.81
  -4   4  -1   12.16    0.69
  -4   4  -1   12.39    1.06
  -4   4  -1   13.12    0.78
  -4   4  -1   13.16    0.96
   4  -4   1   14.36    1.04
   4  -4   1   15.16    0.93
   4  -4   1   12.52    0.72
   4  -4   1   10.97    0.96
   4  -4   1   13.71    1.07
  -5   4  -1   96.68    2.97
  -5   4  -1   95.94    3.84
  -5   4  -1   97.24    3.05
   5  -4   1   90.76    2.98
   5  -4   1   97.53    2.98
   5  -4   1   98.56    3.70
   5  -4   1   98.54    3.89
  -6   4  -1   41.22    1.60
  -6   4  -1   42.90    2.36
   6  -4   1   39.64    1.60
   6  -4   1   43.42    1.70
   6  -4   1   43.02    2.21
  -7   4  -1   24.19    1.14
   7  -4   1   23.37    1.15
   7  -4   1   25.00    1.26
   7  -4   1   23.81    1.68
  -8   4  -1   20.82    1.06
   8  -4   1   19.49    1.18
  -9  -3   1   10.37    0.74
   8   3  -1    4.40    0.54
  -8  -3   1    3.89    0.56
  -8  -3   1    3.48    0.46
   7   3  -1    5.65    0.79
   7   3  -1    6.18    0.61
  -7  -3   1    5.08    0.64
  -7  -3   1    5.69    0.58
   6   3  -1   20.81    0.92
   6   3  -1   20.66    1.26
   6   3  -1   19.60    0.82
  -6  -3   1   19.28    0.91
  -6  -3   1   22.04    1.04
  -6  -3   1   18.95    1.23
   5   3  -1   61.96    2.41
   5   3  -1   58.10    1.89
   5   3  -1   62.03    1.89
  -5  -3   1   60.87    2.03
  -5  -3   1   59.17    1.93
  -5  -3   1   63.11    2.39
  -5  -3   1   60.34    2.05
  -5  -3   1   63.42    2.40
   4   3  -1   12.20    0.83
   4   3  -1   11.61    0.67
   4   3  -1   12.28    0.58
   4   3  -1   11.64    0.80
   4   3  -1   11.21    0.58
   4   3  -1   11.27    0.81
  -4  -3   1   11.08    0.76
  -4  -3   1   11.87    0.66
  -4  -3   1   12.52    0.79
  -4  -3   1   11.51    0.57
  -4  -3   1   11.10    0.81
  -4  -3   1   11.20    0.63
   3   3  -1   19.99    0.76
   3   3  -1   20.81    0.89
   3   3  -1   19.77    1.00
   3   3  -1   19.30    1.02
   3   3  -1   20.04    1.03
   3   3  -1   18.97    0.78
  -3  -3   1   21.61    1.06
  -3  -3   1   20.53    0.99
  -3  -3   1   19.10    0.84
  -3  -3   1   19.77    0.76
  -3  -3   1   19.00    0.96
   2   3  -1  214.35    5.69
   2   3  -1  216.05    6.40
   2   3  -1  217.02    5.37
   2   3  -1  218.95    5.64
   2   3  -1  209.36    6.31
  -2  -3   1  218.14    5.65
  -2  -3   1  219.11    6.30
  -2  -3   1  216.16    5.65
   1   3  -1   52.98    1.59
   1   3  -1   53.05    1.50
   1   3  -1   50.10    1.89
   1   3  -1   53.16    1.61
   1   3  -1   52.98    1.77
  -1  -3   1   51.23    1.78
  -1  -3   1   49.75    1.84
  -1  -3   1   52.51    1.54
  -1  -3   1   52.96    1.80
  -1  -3   1   48.99    1.60
   0   3  -1  153.64    4.55
   0   3  -1  171.83    5.21
   0  -3   1  181.56    5.08
   0  -3   1  183.07    5.03
   0  -3   1  170.13    4.55
   0  -3   1  171.72    4.55
  -1   3  -1  404.00   11.30
  -1   3  -1  453.82   11.10
  -1   3  -1  448.74   12.41
  -1   3  -1  453.40   10.71
  -1   3  -1  489.93   12.66
   1  -3   1  456.95   12.20
   1  -3   1  422.81   11.15
   1  -3   1  437.17   12.47
   1  -3   1  389.44   11.29
   1  -3   1  478.36   12.62
  -2   3  -1  249.16    6.55
  -2   3  -1  262.46    7.41
  -2   3  -1  247.08    7.57
  -2   3  -1  254.40    6.67
   2  -3   1  246.11    7.45
   2  -3   1  259.96    7.37
   2  -3   1  252.33    6.67
   2  -3   1  248.34    6.68
   2  -3   1  258.46    7.59
  -3   3  -1   65.56    1.97
  -3   3  -1   63.02    2.33
  -3   3  -1   62.79    2.49
   3  -3   1   63.97    1.94
   3  -3   1   59.88    2.10
   3  -3   1   63.19    2.00
   3  -3   1   62.14    2.38
  -4   3  -1  124.27    4.18
  -4   3  -1  124.88    4.39
  -4   3  -1  122.17    3.59
  -4   3  -1  125.19    3.58
   4  -3   1  123.42    3.49
   4  -3   1  126.06    4.25
   4  -3   1  124.66    3.63
   4  -3   1  131.90    3.81
  -5   3  -1   41.07    2.06
  -5   3  -1   41.66    1.92
  -5   3  -1   37.39    1.43
  -5   3  -1   41.90    1.56
   5  -3   1   40.03    1.81
   5  -3   1   37.30    1.48
   5  -3   1   41.11    2.03
   5  -3   1   41.59    2.07
   5  -3   1   41.58    1.52
   5  -3   1   37.11    1.87
   5  -3   1   38.33    1.67
  -6   3  -1   31.77    1.34
  -6   3  -1   28.37    1.18
  -6   3  -1   27.56    1.74
   6  -3   1   28.34    1.23
   6  -3   1   26.99    1.24
   6  -3   1   27.12    1.52
   6  -3   1   28.02    1.65
  -7   3  -1    0.16    0.15
   7  -3   1    0.05    0.28
   7  -3   1    0.15    0.19
   7  -3   1   -0.01    0.15
  -8   3  -1   14.56    0.86
   8  -3   1   16.36    1.02
   8  -3   1   17.84    0.95
   9   2  -1   26.23    1.26
  -9  -2   1   26.06    1.26
   8   2  -1   22.71    1.08
  -8  -2   1   21.03    1.07
  -8  -2   1   22.31    1.20
   7   2  -1   83.06    2.57
   7   2  -1   83.09    3.28
  -7  -2   1   85.45    2.68
  -7  -2   1   85.77    2.78
   6   2  -1   83.63    2.46
   6   2  -1   81.42    2.39
   6   2  -1   84.20    3.12
  -6  -2   1   83.86    2.56
  -6  -2   1   83.19    2.62
  -6  -2   1   78.67    3.14
   5   2  -1   64.28    2.56
   5   2  -1   62.82    2.39
   5   2  -1   61.20    1.88
   5   2  -1   63.66    2.11
   5   2  -1   60.68    1.87
  -5  -2   1   61.89    2.00
  -5  -2   1   60.74    2.40
  -5  -2   1   61.02    1.93
  -5  -2   1   61.28    2.37
   4   2  -1   52.58    1.64
   4   2  -1   49.85    2.00
   4   2  -1   53.03    2.06
   4   2  -1   53.04    1.78
   4   2  -1   52.99    1.60
   4   2  -1   55.22    2.13
  -4  -2   1   56.25    2.11
  -4  -2   1   53.18    1.71
  -4  -2   1   52.27    1.64
  -4  -2   1   57.48    2.07
  -4  -2   1   52.05    1.98
   3   2  -1  142.77    4.43
   3   2  -1  149.41    4.53
   3   2  -1  150.31    4.02
   3   2  -1  142.56    3.76
   3   2  -1  146.90    3.96
   3   2  -1  149.10    4.58
  -3  -2   1  150.44    3.96
  -3  -2   1  147.20    4.57
  -3  -2   1  146.79    3.95
  -3  -2   1  155.97    4.54
   2   2  -1   41.30    1.19
   2   2  -1   40.17    1.30
   2   2  -1   43.52    1.52
   2   2  -1   42.89    1.48
   2   2  -1   41.48    1.51
   2   2  -1   40.34    1.24
  -2  -2   1   42.28    1.48
  -2  -2   1   40.22    1.51
  -2  -2   1   38.90    1.27
  -2  -2   1   41.14    1.45
  -2  -2   1   38.74    1.21
  -2  -2   1   41.11    1.27
   1   2  -1    0.18    0.08
   1   2  -1    0.22    0.09
   1   2  -1    0.18    0.07
   1   2  -1    0.12    0.11
   1   2  -1    0.23    0.09
  -1  -2   1    0.13    0.09
  -1  -2   1    0.18    0.11
  -1  -2   1    0.24    0.06
  -1  -2   1    0.16    0.08
  -1  -2   1    0.41    0.12
   0   2  -1   68.92    1.88
   0   2  -1   65.07    2.27
   0   2  -1   67.48    1.95
   0   2  -1   76.05    2.19
   0   2  -1   68.35    1.96
   0  -2   1   77.20    2.22
   0  -2   1   75.63    1.99
   0  -2   1   77.12    1.95
   0  -2   1   65.85    2.26
   0  -2   1   67.31    2.20
  -1   2  -1   11.42    0.64
  -1   2  -1    9.90    0.44
  -1   2  -1   10.71    0.45
  -1   2  -1   10.16    0.47
  -1   2  -1    9.65    0.53
   1  -2   1   10.95    0.61
   1  -2   1    9.36    0.54
   1  -2   1   11.54    0.48
   1  -2   1   11.32    0.63
   1  -2   1    9.59    0.49
   1  -2   1    9.78    0.44
  -2   2  -1    0.87    0.17
  -2   2  -1    0.80    0.22
  -2   2  -1    1.00    0.16
  -2   2  -1    0.51    0.21
  -2   2  -1    0.72    0.15
   2  -2   1    0.72    0.18
   2  -2   1    0.87    0.22
   2  -2   1    1.13    0.20
   2  -2   1    0.80    0.22
   2  -2   1    0.77    0.16
   2  -2   1    0.87    0.26
  -3   2  -1    4.97    0.37
  -3   2  -1    5.59    0.35
  -3   2  -1    5.14    0.63
  -3   2  -1    4.94    0.46
   3  -2   1    4.32    0.35
   3  -2   1    5.46    0.63
   3  -2   1    4.99    0.61
   3  -2   1    5.95    0.65
   3  -2   1    4.49    0.36
   3  -2   1    4.63    0.47
  -4   2  -1   15.57    0.74
  -4   2  -1   13.77    0.98
  -4   2  -1   15.32    0.69
  -4   2  -1   15.92    0.95
   4  -2   1   14.40    0.73
   4  -2   1   14.94    0.72
   4  -2   1   16.52    0.91
   4  -2   1   15.41    0.95
   4  -2   1   15.32    0.83
  -5   2  -1   26.51    1.50
  -5   2  -1   28.86    1.44
  -5   2  -1   26.28    1.04
   5  -2   1   27.45    1.26
   5  -2   1   26.92    1.10
   5  -2   1   25.30    1.39
   5  -2   1   22.63    1.42
   5  -2   1   25.14    1.07
   5  -2   1   25.60    1.30
  -6   2  -1   32.28    1.25
  -6   2  -1   34.11    1.37
  -6   2  -1   32.22    1.82
   6  -2   1   31.34    1.31
   6  -2   1   32.88    1.51
   6  -2   1   31.01    1.79
   6  -2   1   32.79    1.33
   6  -2   1   30.95    1.68
  -7   2  -1   10.04    0.80
  -7   2  -1   11.91    0.68
  -7   2  -1   10.31    1.20
   7  -2   1    9.71    0.71
   7  -2   1    8.76    1.06
   7  -2   1   11.80    1.25
   7  -2   1   10.85    0.71
   7  -2   1   10.07    1.20
  -8   2  -1   15.71    0.85
   8  -2   1   15.38    0.89
   8  -2   1   15.69    0.97
   8  -2   1   13.64    1.25
  -9   2  -1   30.45    1.33
   9  -2   1   29.99    1.49
   9   1  -1    0.04    0.18
  -9  -1   1   -0.11    0.13
   8   1  -1   11.02    0.73
  -8  -1   1   11.40    0.74
  -8  -1   1   11.65    0.83
   7   1  -1   26.16    1.53
   7   1  -1   29.10    1.19
  -7  -1   1   26.13    1.15
  -7  -1   1   28.17    1.27
   6   1  -1    0.00    0.09
   6   1  -1    0.05    0.17
   6   1  -1    0.07    0.20
   6   1  -1   -0.03    0.10
  -6  -1   1    0.16    0.13
  -6  -1   1    0.08    0.11
  -6  -1   1   -0.04    0.18
   5   1  -1    9.76    0.82
   5   1  -1   10.27    0.75
   5   1  -1    9.83    0.47
   5   1  -1    8.98    0.62
   5   1  -1    9.00    0.64
   5   1  -1    9.30    0.52
  -5  -1   1   10.42    0.59
  -5  -1   1    9.12    0.52
  -5  -1   1    8.40    0.73
   4   1  -1    9.26    0.66
   4   1  -1   11.45    0.63
   4   1  -1   10.63    0.77
   4   1  -1   10.15    0.75
   4   1  -1    9.99    0.49
   4   1  -1   10.94    0.48
  -4  -1   1   10.86    0.74
  -4  -1   1    9.64    0.49
  -4  -1   1    9.84    0.53
  -4  -1   1    9.68    0.67
  -4  -1   1   10.90    0.73
   3   1  -1    4.95    0.56
   3   1  -1    4.09    0.46
   3   1  -1    5.31    0.56
   3   1  -1    4.46    0.29
   3   1  -1    4.37    0.34
  -3  -1   1    3.08    0.40
  -3  -1   1    4.94    0.42
  -3  -1   1    3.85    0.29
  -3  -1   1    4.45    0.40
   2   1  -1   90.44    2.70
   2   1  -1   89.34    2.78
   2   1  -1   85.31    2.34
   2   1  -1   92.19    2.76
   2   1  -1   91.64    2.44
  -2  -1   1   86.84    2.75
  -2  -1   1   90.67    2.76
  -2  -1   1   87.65    2.37
  -2  -1   1   86.83    2.66
   1   1  -1   36.62    1.05
   1   1  -1   35.85    0.95
   1   1  -1   33.66    1.19
   1   1  -1   33.94    1.19
   1   1  -1   35.85    1.17
   1   1  -1   35.65    0.94
  -1  -1   1   37.47    1.03
  -1  -1   1   35.68    1.03
  -1  -1   1   35.62    1.16
  -1  -1   1   36.58    1.21
  -1  -1   1   38.11    1.20
   0   1  -1   65.61    1.72
   0   1  -1   65.95    1.71
   0   1  -1   66.31    2.06
   0   1  -1   66.83    1.99
   0   1  -1   67.07    1.73
   0   1  -1   67.05    1.78
   0  -1   1   70.51    2.01
   0  -1   1   75.90    1.77
   0  -1   1   68.42    2.06
   0  -1   1   67.70    2.00
   0  -1   1   67.98    1.79
   0  -1   1   68.63    1.80
  -1   1  -1   50.86    1.70
  -1   1  -1   54.38    1.49
  -1   1  -1   57.73    1.46
  -1   1  -1   63.42    1.83
   1  -1   1   56.03    1.80
   1  -1   1   56.15    1.56
   1  -1   1   52.91    1.74
   1  -1   1   55.40    1.51
   1  -1   1   52.32    1.73
   1  -1   1   56.64    1.47
  -2   1  -1  244.98    6.22
  -2   1  -1  231.96    7.01
  -2   1  -1  241.62    5.90
  -2   1  -1  246.02    6.94
  -2   1  -1  254.27    6.14
   2  -1   1  237.32    5.93
   2  -1   1  245.00    6.82
   2  -1   1  241.59    6.96
   2  -1   1  248.46    6.29
   2  -1   1  244.82    6.22
   2  -1   1  240.93    7.03
  -3   1  -1    2.17    0.24
  -3   1  -1    1.63    0.20
  -3   1  -1    1.92    0.35
  -3   1  -1    1.78    0.32
  -3   1  -1    1.77    0.23
   3  -1   1    2.23    0.38
   3  -1   1    2.17    0.36
   3  -1   1    1.60    0.28
   3  -1   1    2.33    0.37
   3  -1   1    1.89    0.25
   3  -1   1    2.50    0.28
   3  -1   1    2.14    0.29
  -4   1  -1   62.21    2.26
  -4   1  -1   59.21    1.84
  -4   1  -1   60.03    1.80
  -4   1  -1   58.07    2.29
   4  -1   1   58.11    2.22
   4  -1   1   60.43    1.99
   4  -1   1   59.38    2.29
   4  -1   1   60.03    1.89
   4  -1   1   59.39    2.09
   4  -1   1   58.31    1.80
   4  -1   1   63.48    2.37
  -5   1  -1  132.36    4.45
  -5   1  -1  125.80    3.65
  -5   1  -1  131.53    3.64
   5  -1   1  132.09    3.86
   5  -1   1  129.03    4.05
   5  -1   1  128.59    4.32
   5  -1   1  131.16    3.74
   5  -1   1  133.29    3.59
  -6   1  -1   90.83    3.39
  -6   1  -1   85.84    2.65
  -6   1  -1   90.26    2.75
  -6   1  -1   89.92    3.42
   6  -1   1   91.93    3.49
   6  -1   1   90.45    2.94
   6  -1   1   91.43    3.53
   6  -1   1   89.00    2.69
   6  -1   1   86.93    3.30
   6  -1   1   86.00    2.76
   6  -1   1   88.01    3.30
   6  -1   1   85.46    3.06
  -7   1  -1   37.21    1.41
  -7   1  -1   35.99    1.99
  -7   1  -1   37.79    1.52
   7  -1   1   40.48    1.54
   7  -1   1   39.43    1.81
   7  -1   1   37.47    1.50
   7  -1   1   37.41    1.93
  -8   1  -1   97.81    3.07
   8  -1   1  103.86    3.19
   8  -1   1   99.69    3.93
   8  -1   1  100.68    3.19
  -9   1  -1   22.11    1.07
   9  -1   1   24.50    1.28
   9   0  -1    9.50    0.87
  -9   0   1    9.34    0.71
   8   0  -1    2.19    0.39
   8   0  -1    1.50    0.48
  -8   0   1    1.64    0.34
  -8   0   1    1.36    0.34
   7   0  -1    8.82    0.95
   7   0  -1    8.41    0.88
   7   0  -1    9.51    0.63
  -7   0   1    8.86    0.62
  -7   0   1    9.91    0.70
   6   0  -1   29.43    1.19
   6   0  -1   32.51    1.60
   6   0  -1   35.85    1.53
  -6   0   1   31.61    1.30
  -6   0   1   30.53    1.22
  -6   0   1   31.30    1.71
   5   0  -1   53.89    1.57
   5   0  -1   56.62    2.31
   5   0  -1   54.27    1.85
   5   0  -1   52.36    2.08
   5   0  -1   45.05    1.61
   5   0  -1   54.72    1.98
  -5   0   1   54.02    1.73
  -5   0   1   53.21    1.78
  -5   0   1   54.56    2.22
   4   0  -1  116.09    3.58
   4   0  -1  120.93    3.82
   4   0  -1  120.39    3.40
   4   0  -1  118.00    3.97
   4   0  -1  120.26    3.87
   4   0  -1  119.47    3.17
   4   0  -1  120.76    3.21
  -4   0   1  119.92    3.93
  -4   0   1  119.58    3.34
  -4   0   1  122.68    3.93
  -4   0   1  121.91    3.32
   3   0  -1  289.95    8.68
   3   0  -1  304.28    7.75
   3   0  -1  306.30    8.57
   3   0  -1  311.38    7.78
   3   0  -1  305.89    7.42
   3   0  -1  314.09    8.86
   3   0  -1  314.51    8.22
  -3   0   1  307.27    7.87
  -3   0   1  304.52    8.77
  -3   0   1  307.79    8.82
  -3   0   1  301.36    7.71
  -3   0   1  303.91    8.77
   2   0  -1  142.65    4.13
   2   0  -1  146.56    4.22
   2   0  -1  142.39    3.89
   2   0  -1  141.94    4.09
   2   0  -1  145.56    3.69
  -2   0   1  141.69    3.69
  -2   0   1  139.63    4.16
  -2   0   1  136.54    3.63
  -2   0   1  143.46    4.20
  -2   0   1  136.15    4.01
  -2   0   1  139.57    4.06
   1   0  -1  101.18    2.65
   1   0  -1   99.38    2.93
   1   0  -1  102.78    2.52
   1   0  -1  104.35    3.03
   1   0  -1  102.79    2.99
   1   0  -1  119.13    2.83
  -1   0   1  101.60    2.54
  -1   0   1  105.91    2.68
  -1   0   1  100.86    2.90
  -1   0   1  101.62    2.64
  -1   0   1  104.01    3.03
  -1   0   1  102.86    2.93
   0   0  -1  169.54    4.52
   0   0  -1  158.35    4.41
   0   0   1  149.06    4.40
   0   0   1  185.68    4.57
   0   0   1  167.73    4.56
  -1   0  -1  226.10    5.42
  -1   0  -1  231.60    6.27
  -1   0  -1  226.78    5.56
  -1   0  -1  225.42    6.29
   1   0   1  222.57    5.44
   1   0   1  224.34    5.60
   1   0   1  223.94    6.27
   1   0   1  228.96    5.62
   1   0   1  237.53    6.12
  -2   0  -1   41.51    1.29
  -2   0  -1   40.97    1.39
  -2   0  -1   40.16    1.09
  -2   0  -1   39.73    1.36
  -2   0  -1   39.55    1.10
   2   0   1   37.62    1.35
   2   0   1   38.76    1.10
   2   0   1   40.69    1.37
   2   0   1   40.76    1.17
   2   0   1   40.97    1.41
   2   0   1   39.68    1.21
  -3   0  -1   74.21    2.55
  -3   0  -1   77.99    2.13
  -3   0  -1   81.66    2.56
  -3   0  -1   78.52    2.07
  -3   0  -1   78.93    2.15
   3   0   1   78.20    2.08
   3   0   1   79.18    2.62
   3   0   1   77.05    2.53
   3   0   1   77.67    2.22
   3   0   1   76.34    2.36
   3   0   1   76.01    2.53
  -4   0  -1   40.14    1.24
  -4   0  -1   39.59    1.29
  -4   0  -1   39.21    1.63
  -4   0  -1   40.72    1.62
   4   0   1   39.13    1.33
   4   0   1   38.64    1.25
   4   0   1   38.84    1.47
   4   0   1   41.45    1.71
   4   0   1   38.63    1.63
   4   0   1   38.65    1.58
   4   0   1   39.17    1.60
   4   0   1   39.66    1.41
  -5   0  -1    3.29    0.51
  -5   0  -1    4.65    0.37
  -5   0  -1    3.92    0.30
   5   0   1    3.72    0.48
   5   0   1    4.44    0.53
   5   0   1    2.85    0.48
   5   0   1    4.11    0.43
   5   0   1    3.60    0.55
   5   0   1    3.94    0.43
  -6   0  -1   19.08    0.80
  -6   0  -1   17.66    1.15
  -6   0  -1   17.59    1.16
  -6   0  -1   18.55    0.88
   6   0   1   18.48    0.86
   6   0   1   17.54    1.23
   6   0   1   17.86    1.03
   6   0   1   18.76    1.01
   6   0   1   16.61    1.10
   6   0   1   19.16    0.90
  -7   0  -1   21.98    1.41
  -7   0  -1   21.14    1.03
  -7   0  -1   21.84    0.94
   7   0   1   23.28    1.06
   7   0   1   20.52    1.01
   7   0   1   19.52    1.18
   7   0   1   19.76    1.31
  -8   0  -1    0.08    0.14
   8   0   1    0.02    0.28
   8   0   1    0.03    0.19
   8   0   1    0.17    0.19
  -9   0  -1    2.64    0.41
   9   0   1    3.16    0.53
   9   0   1    2.24    0.41
  -9   1   1   11.13    0.79
   8  -1  -1   53.91    2.44
   8  -1  -1   57.07    2.01
  -8   1   1   59.71    2.22
  -8   1   1   56.31    2.07
   7  -1  -1   31.36    1.62
   7  -1  -1   32.08    1.30
   7  -1  -1   31.07    1.69
  -7   1   1   33.42    1.43
  -7   1   1   30.68    1.32
   6  -1  -1    0.30    0.17
   6  -1  -1    0.72    0.32
   6  -1  -1    0.59    0.29
  -6   1   1    0.41    0.17
  -6   1   1    0.13    0.14
   5  -1  -1   25.67    1.34
   5  -1  -1   26.39    1.28
   5  -1  -1   29.51    0.93
   5  -1  -1   31.26    1.57
  -5   1   1   28.67    1.52
  -5   1   1   28.27    1.12
  -5   1   1   27.33    1.13
   4  -1  -1  132.08    3.61
   4  -1  -1  123.55    3.37
   4  -1  -1  123.02    4.10
   4  -1  -1  128.94    3.84
   4  -1  -1  123.65    4.03
   4  -1  -1  127.56    4.21
   4  -1  -1  129.21    3.37
  -4   1   1  124.79    3.51
  -4   1   1  131.88    4.26
  -4   1   1  124.32    3.55
  -4   1   1  129.32    4.16
   3  -1  -1   38.43    1.54
   3  -1  -1   37.98    1.55
   3  -1  -1   36.97    1.09
   3  -1  -1   35.76    1.43
   3  -1  -1   38.45    1.28
   3  -1  -1   38.12    1.39
   3  -1  -1   37.60    1.16
  -3   1   1   37.87    1.56
  -3   1   1   38.50    1.23
  -3   1   1   39.09    1.52
  -3   1   1   37.27    1.23
   2  -1  -1    1.96    0.26
   2  -1  -1    2.01    0.30
   2  -1  -1    2.44    0.34
   2  -1  -1    2.44    0.24
   2  -1  -1    1.50    0.24
  -2   1   1    2.00    0.20
  -2   1   1    2.48    0.31
  -2   1   1    2.27    0.18
  -2   1   1    1.54    0.27
  -2   1   1    2.04    0.31
   1  -1  -1   65.40    2.02
   1  -1  -1   67.64    2.03
   1  -1  -1   63.80    2.06
   1  -1  -1   67.63    2.03
   1  -1  -1   69.14    1.79
   1  -1  -1   66.11    1.93
  -1   1   1   66.43    1.71
  -1   1   1   73.32    1.74
  -1   1   1   67.61    1.82
  -1   1   1   67.65    2.12
  -1   1   1   67.33    2.04
  -1   1   1   71.29    1.74
  -1   1   1   68.63    2.10
  -1   1   1   65.87    1.78
   0  -1  -1    3.32    0.18
   0  -1  -1    3.18    0.18
   0  -1  -1    3.16    0.20
   0   1   1    2.94    0.19
   0   1   1    3.24    0.15
   0   1   1    3.30    0.16
   0   1   1    3.21    0.21
  -1  -1  -1    0.78    0.10
  -1  -1  -1    0.43    0.09
  -1  -1  -1    0.56    0.07
  -1  -1  -1    0.84    0.08
   1   1   1    0.80    0.08
   1   1   1    0.63    0.10
   1   1   1    0.54    0.09
   1   1   1    0.56    0.08
  -2  -1  -1   62.88    1.86
  -2  -1  -1   60.74    1.99
  -2  -1  -1   64.40    1.70
  -2  -1  -1   65.95    1.72
  -2  -1  -1   64.61    1.66
  -2  -1  -1   62.10    1.98
  -2  -1  -1   62.38    1.99
   2   1   1   66.59    1.86
   2   1   1   67.06    1.80
   2   1   1   63.77    2.00
   2   1   1   64.57    2.01
   2   1   1   67.11    1.78
   2   1   1   62.99    1.66
   2   1   1   64.52    1.96
  -3  -1  -1   66.36    1.80
  -3  -1  -1   66.38    1.76
  -3  -1  -1   65.79    1.82
  -3  -1  -1   65.08    2.17
  -3  -1  -1   66.42    2.16
   3   1   1   64.87    2.15
   3   1   1   65.39    2.16
   3   1   1   64.08    1.92
   3   1   1   65.40    1.77
   3   1   1   64.53    1.89
   3   1   1   65.02    1.99
  -4  -1  -1  103.27    2.77
  -4  -1  -1  101.98    3.30
  -4  -1  -1  100.88    2.78
  -4  -1  -1  102.78    3.29
   4   1   1  100.67    2.92
   4   1   1  101.91    3.30
   4   1   1  101.19    3.28
   4   1   1   99.80    3.02
   4   1   1  102.00    3.39
   4   1   1   98.03    2.88
   4   1   1   97.73    2.69
  -5  -1  -1   40.30    1.29
  -5  -1  -1   40.58    1.37
  -5  -1  -1   37.56    1.67
  -5  -1  -1   39.28    1.71
   5   1   1   39.22    1.52
   5   1   1   39.52    1.68
   5   1   1   37.65    1.30
   5   1   1   37.40    1.39
   5   1   1   43.06    1.53
  -6  -1  -1    0.09    0.09
  -6  -1  -1   -0.10    0.15
  -6  -1  -1    0.01    0.07
  -6  -1  -1    0.05    0.14
   6   1   1   -0.12    0.14
   6   1   1    0.21    0.13
   6   1   1    0.48    0.19
   6   1   1   -0.01    0.18
   6   1   1   -0.05    0.10
   6   1   1    0.12    0.13
  -7  -1  -1    5.20    0.41
  -7  -1  -1    5.55    0.59
  -7  -1  -1    3.75    0.63
   7   1   1    4.60    0.80
   7   1   1    4.29    0.58
   7   1   1    6.00    0.60
   7   1   1    5.77    0.59
   7   1   1    5.46    0.68
   7   1   1    4.39    0.69
  -8  -1  -1   61.18    2.80
  -8  -1  -1   66.18    2.15
   8   1   1   65.59    2.83
   8   1   1   68.17    2.34
   8   1   1   62.02    2.20
  -9  -1  -1   34.86    1.41
   9   1   1   35.40    1.53
   9   1   1   33.98    1.55
   8  -2  -1   16.04    0.92
   8  -2  -1   15.72    1.25
  -8   2   1   14.74    0.98
  -8   2   1   14.34    0.91
   7  -2  -1    0.62    0.37
   7  -2  -1    0.32    0.20
   7  -2  -1    0.21    0.30
  -7   2   1    0.61    0.24
  -7   2   1    0.28    0.19
   6  -2  -1   12.42    0.70
   6  -2  -1   11.30    0.89
   6  -2  -1   10.67    0.90
  -6   2   1   11.24    0.71
  -6   2   1   10.98    0.72
   5  -2  -1    2.04    0.21
   5  -2  -1    2.90    0.50
  -5   2   1    1.00    0.23
  -5   2   1    1.49    0.45
  -5   2   1    1.55    0.29
   4  -2  -1    0.00    0.15
   4  -2  -1    0.12    0.16
   4  -2  -1    0.06    0.12
   4  -2  -1    0.17    0.11
   4  -2  -1    0.28    0.12
   4  -2  -1    0.08    0.15
   4  -2  -1    0.11    0.19
   4  -2  -1    0.30    0.09
  -4   2   1    0.13    0.10
  -4   2   1    0.11    0.19
  -4   2   1    0.26    0.11
   3  -2  -1   62.94    1.79
   3  -2  -1   62.79    1.72
   3  -2  -1   67.81    2.33
   3  -2  -1   62.89    2.12
   3  -2  -1   59.90    2.19
   3  -2  -1   64.27    1.95
   3  -2  -1   61.36    2.30
  -3   2   1   60.09    2.32
  -3   2   1   63.73    1.92
  -3   2   1   58.18    1.88
  -3   2   1   63.84    2.27
   2  -2  -1   28.44    0.99
   2  -2  -1   26.51    1.11
   2  -2  -1   26.27    1.16
   2  -2  -1   28.49    0.80
   2  -2  -1   28.22    1.18
   2  -2  -1   28.51    0.79
  -2   2   1   26.75    0.95
  -2   2   1   28.16    1.22
  -2   2   1   28.53    0.96
   1  -2  -1   44.71    1.50
   1  -2  -1   43.39    1.51
   1  -2  -1   43.12    1.30
   1  -2  -1   41.04    1.47
  -1   2   1   46.26    1.54
  -1   2   1   43.23    1.28
  -1   2   1   44.40    1.55
  -1   2   1   45.46    1.50
  -1   2   1   45.75    1.28
   0  -2  -1  131.90    3.38
   0  -2  -1  131.95    3.69
   0  -2  -1  129.26    3.78
   0  -2  -1  129.39    3.78
   0   2   1  137.32    3.40
   0   2   1  129.82    3.39
   0   2   1  131.65    3.82
   0   2   1  130.30    3.71
   0   2   1  138.93    3.80
   0   2   1  132.15    3.36
  -1  -2  -1  241.60    6.01
  -1  -2  -1  237.59    6.52
  -1  -2  -1  240.65    6.71
  -1  -2  -1  244.55    6.76
  -1  -2  -1  248.35    6.06
  -1  -2  -1  248.95    6.06
   1   2   1  244.79    6.14
   1   2   1  237.71    6.76
   1   2   1  235.28    6.54
   1   2   1  249.62    6.04
   1   2   1  236.64    6.04
   1   2   1  239.03    6.71
  -2  -2  -1   32.94    1.17
  -2  -2  -1   31.65    1.12
  -2  -2  -1   34.22    1.01
  -2  -2  -1   32.90    1.13
  -2  -2  -1   33.11    0.95
   2   2   1   31.86    1.05
   2   2   1   32.55    1.17
   2   2   1   32.81    0.96
   2   2   1   31.90    1.15
   2   2   1   32.14    1.02
  -3  -2  -1  356.67    9.49
  -3  -2  -1  344.58    9.76
  -3  -2  -1  342.38    8.80
  -3  -2  -1  351.88    9.82
  -3  -2  -1  351.82    8.69
  -3  -2  -1  336.83    8.37
  -3  -2  -1  345.29    8.66
   3   2   1  346.55    9.82
   3   2   1  347.12    8.77
   3   2   1  344.05    9.80
   3   2   1  344.52    8.38
   3   2   1  346.10    8.92
   3   2   1  353.48    9.53
  -4  -2  -1  221.77    6.38
  -4  -2  -1  211.86    6.30
  -4  -2  -1  209.35    5.54
  -4  -2  -1  216.37    5.52
  -4  -2  -1  209.12    6.13
   4   2   1  207.54    5.69
   4   2   1  216.80    5.34
   4   2   1  209.74    6.39
   4   2   1  222.18    6.24
   4   2   1  211.88    5.66
   4   2   1  207.50    6.32
  -5  -2  -1  110.93    3.60
  -5  -2  -1   93.47    2.89
  -5  -2  -1  111.08    3.60
  -5  -2  -1  104.33    2.97
   5   2   1  104.41    2.88
   5   2   1  105.82    3.52
   5   2   1  103.14    3.13
   5   2   1  106.20    3.10
  -6  -2  -1   33.12    1.59
  -6  -2  -1   31.48    1.15
  -6  -2  -1   34.30    1.65
  -6  -2  -1   31.98    1.25
   6   2   1   32.53    1.31
   6   2   1   34.64    1.76
   6   2   1   31.00    1.56
   6   2   1   30.99    1.20
   6   2   1   31.17    1.38
  -7  -2  -1   22.00    1.05
  -7  -2  -1   22.74    1.38
  -7  -2  -1   22.73    0.96
   7   2   1   21.65    1.02
   7   2   1   23.99    1.52
   7   2   1   22.99    1.39
   7   2   1   22.39    1.11
   7   2   1   24.20    1.23
  -8  -2  -1   17.71    0.87
  -8  -2  -1   16.88    1.27
   8   2   1   16.51    0.94
   8   2   1   18.71    1.33
   8   2   1   18.06    1.02
  -9  -2  -1    7.38    0.56
   9   2   1    9.01    0.71
   9   2   1    8.12    1.14
   9   2   1    8.27    0.82
 -10  -2  -1   17.20    0.95
  10   2   1   16.97    1.15
   8  -3  -1   41.13    2.14
  -8   3   1   37.89    1.66
   7  -3  -1   37.03    1.91
   7  -3  -1   39.71    1.53
  -7   3   1   38.19    1.64
  -7   3   1   34.79    1.55
   6  -3  -1   44.37    2.06
   6  -3  -1   41.95    1.95
   6  -3  -1   42.24    1.55
  -6   3   1   41.08    1.63
  -6   3   1   41.58    1.68
   5  -3  -1   81.42    3.02
   5  -3  -1   78.51    2.88
   5  -3  -1   81.62    2.41
   5  -3  -1   77.62    2.99
  -5   3   1   77.26    2.54
  -5   3   1   78.53    2.54
  -5   3   1   79.64    3.25
   4  -3  -1   66.76    1.86
   4  -3  -1   65.42    2.62
   4  -3  -1   68.59    2.53
   4  -3  -1   64.23    2.39
   4  -3  -1   68.36    2.21
  -4   3   1   65.20    2.14
  -4   3   1   62.20    2.65
  -4   3   1   66.17    2.14
   3  -3  -1   55.22    1.81
   3  -3  -1   51.11    2.11
   3  -3  -1   53.34    2.05
   3  -3  -1   52.75    1.53
   3  -3  -1   54.95    2.13
  -3   3   1   54.32    2.10
  -3   3   1   55.02    2.22
  -3   3   1   53.82    1.76
  -3   3   1   54.24    1.75
   2  -3  -1   24.75    0.97
   2  -3  -1   24.84    1.15
   2  -3  -1   25.03    0.77
   2  -3  -1   22.99    1.09
   2  -3  -1   23.26    1.13
  -2   3   1   24.05    0.93
  -2   3   1   23.01    1.17
  -2   3   1   25.64    1.14
  -2   3   1   24.64    0.93
   1  -3  -1  231.46    5.84
   1  -3  -1  224.64    6.63
   1  -3  -1  239.27    5.94
   1  -3  -1  230.52    6.50
   1  -3  -1  232.31    6.68
  -1   3   1  226.95    6.74
  -1   3   1  219.78    5.87
  -1   3   1  232.67    6.01
   0  -3  -1   67.43    2.12
   0  -3  -1   66.25    1.91
   0  -3  -1   66.95    2.15
   0  -3  -1   68.19    1.79
   0  -3  -1   66.93    2.14
   0   3   1   65.95    1.88
   0   3   1   65.05    2.12
   0   3   1   66.08    2.21
   0   3   1   67.99    1.92
  -1  -3  -1    0.19    0.11
  -1  -3  -1    0.32    0.12
  -1  -3  -1    0.14    0.06
  -1  -3  -1    0.39    0.13
  -1  -3  -1    0.11    0.07
   1   3   1    0.26    0.09
   1   3   1    0.29    0.10
   1   3   1    0.14    0.11
   1   3   1    0.30    0.11
  -2  -3  -1   29.35    1.11
  -2  -3  -1   31.21    0.94
  -2  -3  -1   31.25    1.18
  -2  -3  -1   28.88    1.10
  -2  -3  -1   32.47    1.02
   2   3   1   30.05    1.04
   2   3   1   30.02    1.18
   2   3   1   29.48    1.04
   2   3   1   29.41    1.11
  -3  -3  -1  139.87    3.76
  -3  -3  -1  142.64    4.19
  -3  -3  -1  142.73    3.80
  -3  -3  -1  142.38    4.25
  -3  -3  -1  146.24    4.36
   3   3   1  140.92    3.65
   3   3   1  144.17    4.21
   3   3   1  144.89    4.33
   3   3   1  141.15    4.35
   3   3   1  143.84    3.89
   3   3   1  137.57    3.92
  -4  -3  -1    0.15    0.15
  -4  -3  -1    0.02    0.11
  -4  -3  -1    0.13    0.10
  -4  -3  -1    0.12    0.13
  -4  -3  -1    0.06    0.08
   4   3   1    0.09    0.15
   4   3   1    0.14    0.13
   4   3   1   -0.06    0.09
   4   3   1   -0.03    0.09
   4   3   1    0.14    0.11
   4   3   1   -0.03    0.09
  -5  -3  -1   24.23    1.24
  -5  -3  -1   21.58    0.86
  -5  -3  -1   22.68    0.96
  -5  -3  -1   24.28    1.25
  -5  -3  -1   23.19    0.99
  -5  -3  -1   23.69    1.17
   5   3   1   24.16    1.28
   5   3   1   22.63    0.91
   5   3   1   23.85    1.04
   5   3   1   22.52    1.19
   5   3   1   24.14    1.09
  -6  -3  -1   16.03    1.08
  -6  -3  -1   16.22    0.82
  -6  -3  -1   17.16    1.11
  -6  -3  -1   15.29    0.71
  -6  -3  -1   16.62    1.03
   6   3   1   15.94    0.78
   6   3   1   17.32    0.96
   6   3   1   15.49    0.86
   6   3   1   15.79    1.10
   6   3   1   14.57    1.08
   6   3   1   14.20    1.01
  -7  -3  -1    0.94    0.25
  -7  -3  -1    0.67    0.31
  -7  -3  -1    0.45    0.16
   7   3   1    0.77    0.31
   7   3   1    0.78    0.39
   7   3   1    0.46    0.32
   7   3   1    0.71    0.22
   7   3   1    0.64    0.25
  -8  -3  -1   15.37    0.79
  -8  -3  -1   15.20    1.17
   8   3   1   15.43    1.22
   8   3   1   13.24    0.89
   8   3   1   16.06    0.90
  -9  -3  -1    0.02    0.13
   9   3   1    0.23    0.24
   9   3   1    0.21    0.21
  -8   4   1   29.98    1.44
   7  -4  -1   23.31    1.54
  -7   4   1   23.08    1.21
  -7   4   1   23.56    1.27
   6  -4  -1   25.94    1.54
   6  -4  -1   24.03    1.47
   6  -4  -1   24.15    1.50
  -6   4   1   21.63    1.17
  -6   4   1   22.88    1.16
   5  -4  -1   55.28    2.33
   5  -4  -1   53.31    2.38
  -5   4   1   57.16    2.03
  -5   4   1   58.06    2.05
   4  -4  -1   19.76    0.69
   4  -4  -1   21.90    1.24
  -4   4   1   21.18    1.00
  -4   4   1   18.74    1.32
  -4   4   1   17.83    0.95
   3  -4  -1   18.02    1.10
   3  -4  -1   18.66    0.92
   3  -4  -1   16.44    1.07
   3  -4  -1   17.71    0.65
   3  -4  -1   18.15    1.06
  -3   4   1   18.86    0.89
  -3   4   1   17.58    1.17
  -3   4   1   17.29    0.85
   2  -4  -1   44.37    1.85
   2  -4  -1   47.41    1.86
   2  -4  -1   44.16    1.33
   2  -4  -1   42.14    1.78
   2  -4  -1   47.80    1.62
  -2   4   1   44.48    1.80
  -2   4   1   46.42    1.96
  -2   4   1   44.96    1.54
  -2   4   1   44.42    1.55
   1  -4  -1    0.02    0.14
   1  -4  -1    0.09    0.16
   1  -4  -1    0.04    0.07
   1  -4  -1    0.05    0.11
   1  -4  -1    0.02    0.09
  -1   4   1    0.00    0.09
  -1   4   1    0.23    0.16
  -1   4   1    0.09    0.13
  -1   4   1   -0.02    0.07
   0  -4  -1    1.09    0.26
   0  -4  -1    0.74    0.21
   0  -4  -1    1.01    0.15
   0  -4  -1    0.71    0.22
   0  -4  -1    1.04    0.20
   0   4   1    0.76    0.18
   0   4   1    0.96    0.27
   0   4   1    0.63    0.18
   0   4   1    0.34    0.14
  -1  -4  -1   19.80    0.78
  -1  -4  -1   17.05    0.82
  -1  -4  -1   18.59    0.67
  -1  -4  -1   18.60    0.85
  -1  -4  -1   16.90    0.85
   1   4   1   17.64    0.91
   1   4   1   17.57    0.76
   1   4   1   18.98    0.77
  -2  -4  -1    0.12    0.11
  -2  -4  -1    0.02    0.06
  -2  -4  -1    0.14    0.09
  -2  -4  -1    0.03    0.10
  -2  -4  -1    0.08    0.09
   2   4   1    0.21    0.12
   2   4   1    0.08    0.10
   2   4   1    0.09    0.14
   2   4   1    0.03    0.06
  -3  -4  -1   72.71    2.13
  -3  -4  -1   70.56    2.04
  -3  -4  -1   73.55    2.48
  -3  -4  -1   68.04    2.35
  -3  -4  -1   68.69    2.35
   3   4   1   71.32    2.19
   3   4   1   72.73    2.22
   3   4   1   69.46    2.48
   3   4   1   68.36    2.02
  -4  -4  -1   51.45    1.98
  -4  -4  -1   47.41    1.84
  -4  -4  -1   50.59    1.88
  -4  -4  -1   48.39    1.53
   4   4   1   49.98    1.95
   4   4   1   48.86    1.96
   4   4   1   49.58    1.90
   4   4   1   50.27    1.57
   4   4   1   50.76    1.75
   4   4   1   48.06    1.72
  -5  -4  -1   52.98    2.03
  -5  -4  -1   50.21    1.63
  -5  -4  -1   53.17    1.79
   5   4   1   51.28    1.67
   5   4   1   50.72    1.84
   5   4   1   51.00    1.88
   5   4   1   55.13    2.19
   5   4   1   47.80    2.08
   5   4   1   54.61    2.14
  -6  -4  -1   21.80    1.36
  -6  -4  -1   22.06    1.05
  -6  -4  -1   21.96    1.23
  -6  -4  -1   22.76    1.29
  -6  -4  -1   23.02    0.92
   6   4   1   24.08    1.13
   6   4   1   21.52    1.35
   6   4   1   22.63    1.32
   6   4   1   22.62    1.16
   6   4   1   22.40    1.35
   6   4   1   21.41    0.97
  -7  -4  -1  101.04    3.65
  -7  -4  -1  100.61    2.98
   7   4   1   99.75    2.99
   7   4   1   98.76    3.75
   7   4   1   99.07    3.22
  -8  -4  -1   47.43    1.69
  -8  -4  -1   43.61    2.18
   8   4   1   48.61    2.37
   8   4   1   47.81    1.79
   8   4   1   46.01    1.87
  -9  -4  -1    8.06    0.61
   9   4   1    9.14    0.74
   9   4   1    8.89    0.84
   7  -5  -1    0.75    0.46
  -7   5   1    0.29    0.25
   6  -5  -1    0.51    0.37
  -6   5   1    0.14    0.21
  -6   5   1    0.10    0.17
   5  -5  -1    5.83    0.86
   5  -5  -1    6.85    0.92
  -5   5   1    4.80    0.59
  -5   5   1    5.28    0.61
   4  -5  -1   52.95    2.31
  -4   5   1   50.30    1.93
  -4   5   1   52.83    1.94
   3  -5  -1   44.21    1.34
   3  -5  -1   44.39    1.97
  -3   5   1   42.75    2.13
  -3   5   1   42.07    1.63
  -3   5   1   43.96    1.66
   2  -5  -1   51.62    2.15
   2  -5  -1   53.98    1.60
   2  -5  -1   54.62    1.93
   2  -5  -1   55.59    2.23
  -2   5   1   53.39    2.34
  -2   5   1   52.80    1.87
  -2   5   1   53.72    1.85
   1  -5  -1  182.38    5.63
   1  -5  -1  183.15    5.53
   1  -5  -1  184.58    5.66
   1  -5  -1  182.19    5.03
   1  -5  -1  181.56    4.81
  -1   5   1  178.12    5.06
  -1   5   1  178.94    4.96
  -1   5   1  188.60    5.61
  -1   5   1  182.61    5.82
   0  -5  -1  105.62    3.41
   0  -5  -1  102.20    2.92
   0  -5  -1  107.74    3.13
   0  -5  -1  109.22    3.50
   0  -5  -1  101.55    3.45
   0   5   1  105.64    3.63
   0   5   1  105.89    3.14
   0   5   1  112.34    3.47
   0   5   1  104.08    3.06
  -1  -5  -1   40.58    1.58
  -1  -5  -1   41.82    1.65
  -1  -5  -1   40.85    1.33
  -1  -5  -1   40.77    1.62
  -1  -5  -1   43.56    1.48
   1   5   1   39.33    1.74
   1   5   1   40.73    1.45
   1   5   1   42.18    1.50
   1   5   1   41.37    1.60
  -2  -5  -1   84.94    2.82
  -2  -5  -1   88.43    2.96
  -2  -5  -1   93.73    2.51
  -2  -5  -1   87.34    2.89
  -2  -5  -1   85.98    2.60
   2   5   1   87.36    2.61
   2   5   1   84.97    2.84
   2   5   1   85.01    2.65
   2   5   1   82.28    3.02
  -3  -5  -1  105.70    3.27
  -3  -5  -1  102.95    2.97
  -3  -5  -1   99.64    2.85
  -3  -5  -1  104.07    3.41
  -3  -5  -1   97.86    3.29
   3   5   1   97.80    3.00
   3   5   1   99.24    3.04
   3   5   1  101.68    3.31
   3   5   1   99.67    2.80
   3   5   1   96.36    3.43
  -4  -5  -1   18.14    0.80
  -4  -5  -1   20.84    1.13
  -4  -5  -1   18.89    0.91
  -4  -5  -1   20.87    1.05
   4   5   1   18.84    0.96
   4   5   1   21.70    1.13
   4   5   1   19.79    0.86
   4   5   1   20.67    1.16
   4   5   1   19.79    0.96
  -5  -5  -1   45.37    1.86
  -5  -5  -1   42.37    1.48
  -5  -5  -1   45.38    1.66
   5   5   1   43.90    1.72
   5   5   1   42.60    1.90
   5   5   1   44.61    1.99
   5   5   1   45.11    1.71
   5   5   1   46.99    2.03
   5   5   1   45.10    1.55
  -6  -5  -1   67.00    2.61
  -6  -5  -1   67.71    2.14
  -6  -5  -1   67.41    2.67
  -6  -5  -1   72.51    2.37
   6   5   1   68.11    2.18
   6   5   1   69.17    2.78
   6   5   1   66.23    2.75
   6   5   1   65.90    2.37
   6   5   1   69.03    2.45
  -7  -5  -1   25.22    1.06
  -7  -5  -1   23.34    1.38
   7   5   1   24.47    1.12
   7   5   1   23.66    1.51
   7   5   1   24.88    1.24
  -8  -5  -1    7.88    0.57
   8   5   1    6.16    0.95
   8   5   1    8.26    0.79
   8   5   1    8.72    0.83
  -9  -5  -1   21.49    1.04
   9   5   1   18.28    1.10
   9   5   1   20.77    1.16
   6  -6  -1   18.40    1.46
  -6   6   1   18.49    1.11
  -6   6   1   19.64    1.19
  -5   6   1   66.69    2.50
   4  -6  -1   38.14    1.97
  -4   6   1   37.25    1.64
  -4   6   1   39.61    1.67
   3  -6  -1   23.28    1.39
  -3   6   1   24.82    1.18
  -3   6   1   20.77    1.11
   2  -6  -1  125.27    4.24
   2  -6  -1  117.89    3.32
  -2   6   1  124.22    3.75
  -2   6   1  123.11    4.47
  -2   6   1  119.42    3.65
   1  -6  -1   70.64    2.34
   1  -6  -1   63.88    1.95
   1  -6  -1   66.80    2.57
   1  -6  -1   64.48    2.54
  -1   6   1   63.15    2.72
  -1   6   1   65.33    2.21
  -1   6   1   64.89    2.24
   0  -6  -1  113.43    3.11
   0  -6  -1  112.93    3.37
   0  -6  -1  115.34    3.78
   0  -6  -1  109.55    3.80
   0  -6  -1  109.07    3.74
   0   6   1  114.61    3.33
   0   6   1  103.57    3.90
   0   6   1  107.22    3.36
  -1  -6  -1   21.46    1.15
  -1  -6  -1   21.39    1.11
  -1  -6  -1   24.20    1.08
  -1  -6  -1   21.67    1.16
  -1  -6  -1   21.49    0.87
   1   6   1   21.90    1.03
   1   6   1   22.14    1.04
   1   6   1   20.51    1.27
   1   6   1   23.12    1.14
  -2  -6  -1   64.12    1.95
  -2  -6  -1   61.49    1.94
  -2  -6  -1   65.55    2.14
  -2  -6  -1   60.91    2.25
  -2  -6  -1   67.88    2.43
  -2  -6  -1   59.68    2.31
   2   6   1   62.65    2.11
   2   6   1   60.31    2.51
   2   6   1   63.34    2.30
   2   6   1   60.68    2.15
  -3  -6  -1    0.65    0.26
  -3  -6  -1    0.97    0.25
  -3  -6  -1    0.54    0.15
  -3  -6  -1    0.31    0.19
  -3  -6  -1    0.28    0.18
   3   6   1    0.48    0.23
   3   6   1    0.35    0.16
   3   6   1    0.47    0.16
   3   6   1    0.03    0.20
   3   6   1    0.47    0.22
  -4  -6  -1    0.87    0.20
  -4  -6  -1    1.51    0.38
  -4  -6  -1    0.98    0.26
   4   6   1    1.40    0.28
   4   6   1    1.26    0.29
   4   6   1    0.70    0.28
   4   6   1    0.69    0.30
   4   6   1    0.96    0.27
  -5  -6  -1    2.57    0.51
  -5  -6  -1    2.53    0.34
  -5  -6  -1    2.15    0.43
  -5  -6  -1    3.57    0.54
   5   6   1    1.93    0.49
   5   6   1    3.02    0.44
   5   6   1    2.15    0.41
   5   6   1    2.07    0.40
   5   6   1    1.74    0.40
  -6  -6  -1    0.23    0.23
  -6  -6  -1    0.31    0.15
   6   6   1    0.42    0.22
   6   6   1    0.56    0.28
   6   6   1    0.30    0.26
   6   6   1    0.41    0.20
   6   6   1    0.35    0.33
  -7  -6  -1   24.79    1.44
  -7  -6  -1   23.48    1.06
   7   6   1   24.78    1.16
   7   6   1   22.07    1.22
   7   6   1   27.00    1.65
  -8  -6  -1    0.88    0.25
   8   6   1    0.49    0.25
   8   6   1    1.23    0.36
  -9  -6  -1    1.81    0.36
   9   6   1    2.00    0.46
   9   6   1    1.94    0.45
  -5   7   1    8.52    0.86
  -5   7   1    8.33    0.91
  -4   7   1    0.85    0.31
  -4   7   1    1.13    0.35
   3  -7  -1    5.97    0.87
  -3   7   1    5.56    0.68
  -3   7   1    7.02    0.76
   2  -7  -1    0.73    0.35
  -2   7   1    1.54    0.37
  -2   7   1    0.95    0.31
   1  -7  -1    7.56    0.44
   1  -7  -1    7.45    0.88
  -1   7   1    9.04    1.16
  -1   7   1    6.65    0.71
  -1   7   1    5.90    0.67
   0  -7  -1    2.93    0.33
   0  -7  -1    3.26    0.61
   0   7   1    3.50    0.50
   0   7   1    2.59    0.59
   0   7   1    3.73    0.53
  -1  -7  -1    0.50    0.27
  -1  -7  -1    0.63    0.17
   1   7   1    0.63    0.23
   1   7   1    0.63    0.26
   1   7   1    0.44    0.31
  -2  -7  -1   59.17    1.90
  -2  -7  -1   58.30    2.35
   2   7   1   61.46    2.15
   2   7   1   61.81    2.64
   2   7   1   53.51    2.10
  -3  -7  -1   68.19    2.11
  -3  -7  -1   64.81    2.08
  -3  -7  -1   61.78    2.52
   3   7   1   62.72    2.27
   3   7   1   65.99    2.35
   3   7   1   65.47    2.13
   3   7   1   63.00    2.75
  -4  -7  -1   16.19    1.10
  -4  -7  -1   19.81    0.88
   4   7   1   16.39    1.26
   4   7   1   19.20    0.94
   4   7   1   19.21    1.05
   4   7   1   18.48    1.05
  -5  -7  -1   38.13    1.89
  -5  -7  -1   43.07    1.55
   5   7   1   41.87    1.77
   5   7   1   40.79    1.77
   5   7   1   44.13    2.02
   5   7   1   40.57    2.10
   5   7   1   41.81    1.59
  -6  -7  -1   76.87    2.47
  -6  -7  -1   73.57    2.96
   6   7   1   74.88    2.47
   6   7   1   77.51    2.74
  -7  -7  -1   38.26    1.51
  -7  -7  -1   40.20    2.02
   7   7   1   38.89    1.58
   7   7   1   35.50    1.69
  -8  -7  -1   15.44    0.89
   8   7   1   15.80    0.97
   8   7   1   16.03    1.06
  -4   8   1    6.23    0.77
  -3   8   1    5.74    0.75
  -3   8   1    6.34    0.76
   2  -8  -1   47.23    2.35
  -2   8   1   47.19    1.98
  -2   8   1   46.71    1.98
   1  -8  -1   40.24    2.05
  -1   8   1   40.01    1.78
  -1   8   1   40.99    1.77
   0  -8  -1   22.07    0.92
   0  -8  -1   25.54    1.50
   0   8   1   22.88    1.25
   0   8   1   24.42    1.28
  -1  -8  -1   30.04    1.65
  -1  -8  -1   29.35    1.15
   1   8   1   28.95    1.43
   1   8   1   32.22    1.47
  -2  -8  -1  161.41    5.20
  -2  -8  -1  150.22    4.30
   2   8   1  151.68    4.61
   2   8   1  146.85    4.63
  -3  -8  -1   40.31    1.49
  -3  -8  -1   36.70    1.90
   3   8   1   41.10    1.60
   3   8   1   41.34    1.76
   3   8   1   39.66    1.74
  -4  -8  -1   36.52    1.42
  -4  -8  -1   37.05    1.87
   4   8   1   34.77    1.71
   4   8   1   34.63    1.62
   4   8   1   38.52    1.52
  -5  -8  -1   48.40    2.28
  -5  -8  -1   49.20    1.79
   5   8   1   51.14    2.06
   5   8   1   49.14    1.86
  -6  -8  -1   20.23    1.40
  -6  -8  -1   21.74    1.05
   6   8   1   21.57    1.13
   6   8   1   22.60    1.27
  -7  -8  -1   14.69    0.86
   7   8   1   14.35    0.94
   7   8   1   14.26    1.01
  -3   9   1   35.37    1.75
  -2   9   1   17.48    1.14
  -1   9   1    8.79    0.92
   0   9   1    2.96    0.55
   0   9   1    4.20    0.63
  -1  -9  -1   12.10    1.34
   1   9   1   10.72    1.05
   1   9   1   13.87    0.97
  -2  -9  -1    0.29    0.34
   2   9   1    0.56    0.28
  -3  -9  -1    7.83    0.58
  -3  -9  -1    9.37    1.16
   3   9   1   10.93    0.79
   3   9   1    8.02    0.86
  -4  -9  -1    1.06    0.25
  -4  -9  -1    1.16    0.49
   4   9   1    1.46    0.36
   4   9   1    1.14    0.36
  -5  -9  -1    6.05    0.61
  -5  -9  -1    5.10    0.56
   5   9   1    5.12    0.73
   5   9   1    5.13    0.68
   6   9   1   12.43    0.97
   6   9   1   11.86    0.86
  -1  10   1    2.61    0.56
   0  10   1    2.91    0.55
   1  10   1   22.47    1.35
   2  10   1   26.45    1.48
   3  10   1    0.32    0.27
   3  10   1    1.23    0.39
   4  10   1   14.61    1.05
   4  10   1   11.98    0.91
   2   9  -2   18.12    1.05
  -2  -9   2   19.99    1.20
   1   9  -2   16.90    1.01
  -1  -9   2   15.49    1.06
  -1  -9   2   18.04    1.12
   0   9  -2   55.81    2.14
   0  -9   2   58.85    2.34
   1  -9   2   64.32    2.50
  -5  -8   2   15.96    1.02
   4   8  -2   64.16    2.16
  -4  -8   2   60.67    2.36
   3   8  -2   36.94    1.49
  -3  -8   2   37.89    1.66
   2   8  -2   19.92    1.04
  -2  -8   2   20.96    1.14
   1   8  -2   28.88    1.29
  -1  -8   2   26.96    1.37
   0   8  -2   40.78    1.66
   0  -8   2   43.45    1.81
   0  -8   2   42.36    1.80
  -1   8  -2   20.66    1.07
   1  -8   2   21.51    1.21
  -2   8  -2   21.79    1.06
   2  -8   2   20.63    1.20
   3  -8   2    9.32    0.77
   4  -8   2   -0.07    0.17
   6   7  -2    4.40    0.55
  -6  -7   2    4.38    0.59
   5   7  -2   23.99    1.09
  -5  -7   2   21.80    1.15
   4   7  -2    4.31    0.51
  -4  -7   2    2.92    0.56
  -4  -7   2    4.00    0.54
  -4  -7   2    4.24    0.74
   3   7  -2    8.69    1.23
   3   7  -2    8.16    0.59
  -3  -7   2    7.93    0.64
  -3  -7   2   10.93    1.17
  -3  -7   2    9.47    0.94
   2   7  -2    1.91    0.35
   2   7  -2    1.52    0.57
  -2  -7   2    1.77    0.43
  -2  -7   2    1.23    0.43
  -2  -7   2    1.59    0.35
   1   7  -2    0.72    0.20
   1   7  -2    1.09    0.51
   1   7  -2    0.96    0.28
  -1  -7   2    0.77    0.32
  -1  -7   2    0.70    0.24
  -1  -7   2    1.06    0.40
   0   7  -2   31.83    1.94
   0   7  -2   28.10    1.18
   0  -7   2   27.83    1.48
   0  -7   2   27.80    1.34
   0  -7   2   34.31    1.73
  -1   7  -2   10.79    0.64
  -1   7  -2   10.05    1.29
   1  -7   2   12.84    1.06
   1  -7   2    9.47    0.72
   1  -7   2    9.69    0.97
  -2   7  -2    1.07    0.25
  -2   7  -2    0.26    0.41
   2  -7   2    0.86    0.28
  -3   7  -2   55.06    1.95
  -3   7  -2   56.65    2.92
   3  -7   2   55.88    2.16
  -4   7  -2   40.26    1.55
   4  -7   2   38.69    1.71
  -5   7  -2   17.00    0.92
   5  -7   2   17.43    1.06
  -7  -6   2   13.67    0.89
   6   6  -2    4.51    0.53
  -6  -6   2    3.86    0.53
  -6  -6   2    4.47    0.67
  -6  -6   2    3.87    0.74
   5   6  -2   18.36    0.88
  -5  -6   2   17.76    0.96
  -5  -6   2   17.26    1.08
  -5  -6   2   17.01    1.25
   4   6  -2   48.80    1.71
   4   6  -2   49.89    2.45
  -4  -6   2   51.46    2.04
  -4  -6   2   48.80    1.83
  -4  -6   2   54.70    2.30
   3   6  -2   15.22    1.25
   3   6  -2   15.81    0.79
  -3  -6   2   15.11    0.84
  -3  -6   2   16.26    0.98
  -3  -6   2   16.22    1.10
   2   6  -2    9.89    1.14
   2   6  -2   11.16    0.56
   2   6  -2    9.59    0.60
  -2  -6   2    9.78    0.75
  -2  -6   2    9.84    0.66
  -2  -6   2    9.72    0.82
   1   6  -2   71.20    2.25
   1   6  -2   72.85    2.23
   1   6  -2   75.25    3.09
  -1  -6   2   75.97    2.81
  -1  -6   2   69.36    2.40
  -1  -6   2   74.31    2.85
  -1  -6   2   73.90    2.59
   0   6  -2   74.47    3.15
   0   6  -2   71.10    2.33
   0  -6   2   81.80    3.01
   0  -6   2   68.89    2.46
   0  -6   2   79.07    2.69
   0  -6   2   85.33    2.99
  -1   6  -2   24.97    1.60
  -1   6  -2   25.63    1.03
   1  -6   2   23.86    1.28
   1  -6   2   24.85    1.17
   1  -6   2   21.64    1.38
   1  -6   2   23.13    1.14
   1  -6   2   25.16    1.45
  -2   6  -2   50.59    1.76
  -2   6  -2   61.15    2.69
   2  -6   2   48.82    2.08
   2  -6   2   48.49    1.93
   2  -6   2   50.46    2.35
   2  -6   2   56.25    2.44
  -3   6  -2   71.23    2.33
  -3   6  -2   72.30    3.26
   3  -6   2   77.21    2.80
   3  -6   2   68.04    3.03
   3  -6   2   73.89    2.56
   3  -6   2   75.84    3.14
  -4   6  -2   82.83    2.57
  -4   6  -2   81.46    3.59
   4  -6   2   76.26    2.73
  -5   6  -2   24.92    1.13
  -5   6  -2   23.57    1.83
   5  -6   2   26.46    1.31
  -6   6  -2   21.31    1.03
   6  -6   2   21.88    1.19
   7   5  -2   29.64    1.25
  -7  -5   2   29.38    1.54
  -7  -5   2   30.50    1.86
  -7  -5   2   30.24    1.38
   6   5  -2   31.65    1.24
  -6  -5   2   30.94    1.50
  -6  -5   2   29.49    1.31
  -6  -5   2   27.05    1.66
   5   5  -2  101.79    3.87
   5   5  -2  104.34    2.96
  -5  -5   2  103.93    3.74
  -5  -5   2  105.15    3.36
  -5  -5   2   99.05    3.13
   4   5  -2   41.77    2.12
   4   5  -2   49.18    1.59
  -4  -5   2   46.17    1.67
  -4  -5   2   50.93    2.12
  -4  -5   2   48.44    1.85
   3   5  -2   32.81    1.09
   3   5  -2   36.25    1.24
   3   5  -2   34.15    1.77
  -3  -5   2   34.10    1.61
  -3  -5   2   34.35    1.31
  -3  -5   2   33.96    1.71
  -3  -5   2   35.58    1.46
   2   5  -2   71.86    2.09
   2   5  -2   68.98    2.03
   2   5  -2   69.08    2.80
  -2  -5   2   70.44    2.61
  -2  -5   2   69.64    2.35
  -2  -5   2   71.19    2.58
  -2  -5   2   66.71    2.18
   1   5  -2   69.15    2.05
   1   5  -2   70.73    2.47
   1   5  -2   67.52    2.73
   1   5  -2   66.51    2.02
  -1  -5   2   66.45    2.54
  -1  -5   2   66.77    2.50
  -1  -5   2   69.23    2.30
  -1  -5   2   65.57    2.16
   0   5  -2    6.34    0.41
   0   5  -2    6.80    0.56
   0   5  -2    6.92    0.89
   0   5  -2    5.95    0.59
   0  -5   2    5.42    0.45
   0  -5   2    6.19    0.74
   0  -5   2    7.25    0.70
   0  -5   2    6.21    0.72
  -1   5  -2   28.44    1.18
  -1   5  -2   25.76    1.01
  -1   5  -2   26.66    1.28
  -1   5  -2   25.18    1.50
   1  -5   2   26.90    1.39
   1  -5   2   29.65    1.49
   1  -5   2   26.07    1.24
   1  -5   2   24.50    1.10
  -2   5  -2    7.05    0.54
  -2   5  -2    6.13    0.43
  -2   5  -2    4.61    0.73
   2  -5   2    6.46    0.84
   2  -5   2    5.63    0.73
   2  -5   2    5.92    0.65
   2  -5   2    6.40    0.62
  -3   5  -2    2.06    0.30
  -3   5  -2    1.09    0.44
   3  -5   2    1.26    0.37
   3  -5   2    1.19    0.41
   3  -5   2    1.28    0.44
   3  -5   2    1.21    0.28
  -4   5  -2    7.63    0.52
  -4   5  -2    6.48    0.93
   4  -5   2    8.52    1.12
   4  -5   2    8.44    1.06
   4  -5   2    5.96    0.76
   4  -5   2    6.67    0.68
  -5   5  -2    0.86    0.46
  -5   5  -2    1.95    0.33
   5  -5   2    0.86    0.46
   5  -5   2    1.68    0.37
  -6   5  -2    2.58    0.38
  -6   5  -2    2.64    0.73
   6  -5   2    3.65    0.53
  -7   5  -2   36.36    1.44
   7  -5   2   36.23    1.62
   8   4  -2    4.96    0.55
  -8  -4   2    4.10    0.56
   7   4  -2    0.99    0.26
  -7  -4   2    1.60    0.51
  -7  -4   2    1.37    0.36
  -7  -4   2    1.25    0.31
   6   4  -2   39.86    2.15
   6   4  -2   39.64    1.42
  -6  -4   2   46.54    2.09
  -6  -4   2   35.16    1.48
  -6  -4   2   37.33    1.65
   5   4  -2    0.03    0.24
   5   4  -2    0.24    0.13
  -5  -4   2    0.10    0.12
  -5  -4   2    0.09    0.14
  -5  -4   2    0.61    0.29
   4   4  -2    5.84    0.41
   4   4  -2    6.88    0.81
  -4  -4   2    5.92    0.61
  -4  -4   2    4.99    0.65
  -4  -4   2    5.51    0.43
   3   4  -2    0.25    0.16
   3   4  -2    0.30    0.23
  -3  -4   2    0.18    0.15
  -3  -4   2    0.17    0.12
  -3  -4   2    0.33    0.17
  -3  -4   2    0.16    0.17
   2   4  -2    3.08    0.38
   2   4  -2    2.49    0.40
   2   4  -2    2.15    0.21
   2   4  -2    1.53    0.23
   2   4  -2    2.70    0.51
  -2  -4   2    2.28    0.41
  -2  -4   2    2.57    0.30
  -2  -4   2    1.95    0.36
  -2  -4   2    1.71    0.30
   1   4  -2   34.81    1.26
   1   4  -2   33.07    1.56
   1   4  -2   32.82    1.37
   1   4  -2   31.85    1.05
   1   4  -2   33.53    1.12
  -1  -4   2   32.36    1.41
  -1  -4   2   32.86    1.42
  -1  -4   2   34.11    1.18
  -1  -4   2   33.50    1.29
   0   4  -2   23.74    0.97
   0   4  -2   21.98    0.82
   0   4  -2   23.89    1.06
   0   4  -2   19.84    1.18
   0   4  -2   23.07    0.90
   0  -4   2   23.58    0.92
   0  -4   2   24.00    1.22
   0  -4   2   23.90    1.14
   0  -4   2   24.53    1.04
   0  -4   2   21.26    1.12
  -1   4  -2    6.09    0.51
  -1   4  -2    7.19    0.49
  -1   4  -2    6.43    0.75
  -1   4  -2    8.13    0.42
   1  -4   2    7.71    0.55
   1  -4   2    6.42    0.58
   1  -4   2    7.71    0.65
   1  -4   2    5.87    0.72
   1  -4   2    6.17    0.43
  -2   4  -2   66.27    2.06
  -2   4  -2   76.63    2.82
  -2   4  -2   68.72    2.19
  -2   4  -2   66.24    2.47
   2  -4   2   66.54    2.59
   2  -4   2   68.59    2.34
   2  -4   2   73.38    2.76
   2  -4   2   70.94    2.65
   2  -4   2   69.08    2.22
   2  -4   2   71.11    2.24
  -3   4  -2   91.93    2.67
  -3   4  -2   91.23    2.78
  -3   4  -2   92.37    3.18
  -3   4  -2   87.10    3.43
   3  -4   2   93.02    3.36
   3  -4   2   92.32    3.49
   3  -4   2   88.23    2.82
   3  -4   2   89.09    2.95
   3  -4   2   92.17    3.33
  -4   4  -2   24.68    1.02
  -4   4  -2   25.42    1.57
  -4   4  -2   26.49    1.18
   4  -4   2   27.33    1.53
   4  -4   2   24.39    1.14
   4  -4   2   25.59    1.31
   4  -4   2   26.44    1.17
   4  -4   2   28.03    1.59
  -5   4  -2    3.39    0.72
  -5   4  -2    4.07    0.44
   5  -4   2    3.33    0.48
   5  -4   2    4.05    0.56
   5  -4   2    2.90    0.61
   5  -4   2    4.37    0.64
   5  -4   2    2.79    0.60
  -6   4  -2   99.27    2.98
  -6   4  -2   96.62    4.04
   6  -4   2  102.21    3.16
   6  -4   2   96.99    3.19
   6  -4   2   95.09    3.88
  -7   4  -2   28.95    1.20
  -7   4  -2   26.78    1.92
   7  -4   2   28.17    1.36
   7  -4   2   27.56    1.39
  -8   4  -2   24.89    1.12
   8  -4   2   22.98    1.33
   8  -4   2   25.16    1.29
   8   3  -2   12.49    0.76
  -8  -3   2   12.86    0.85
  -8  -3   2   13.66    0.99
  -8  -3   2   11.41    0.90
   7   3  -2    4.77    0.51
  -7  -3   2    2.76    0.42
  -7  -3   2    4.64    0.60
  -7  -3   2    4.95    0.80
   6   3  -2    5.45    0.51
   6   3  -2    5.90    0.79
  -6  -3   2    4.10    0.67
  -6  -3   2    5.55    0.62
  -6  -3   2    5.45    0.56
  -6  -3   2    6.27    0.66
   5   3  -2   78.89    2.94
   5   3  -2   79.58    2.28
  -5  -3   2   77.89    2.55
  -5  -3   2   76.81    2.41
  -5  -3   2   77.65    2.90
  -5  -3   2   76.04    2.50
   4   3  -2   25.87    1.32
   4   3  -2   27.58    1.53
  -4  -3   2   26.33    1.02
  -4  -3   2   26.58    1.31
  -4  -3   2   25.07    1.28
  -4  -3   2   26.20    1.09
  -4  -3   2   25.69    1.11
   3   3  -2   69.85    2.63
   3   3  -2   74.73    2.27
   3   3  -2   73.34    2.64
  -3  -3   2   74.65    2.19
  -3  -3   2   76.80    2.60
  -3  -3   2   75.86    2.58
  -3  -3   2   72.84    2.28
   2   3  -2  187.39    5.81
   2   3  -2  202.95    5.17
   2   3  -2  192.67    5.91
  -2  -3   2  191.89    5.78
  -2  -3   2  198.68    5.90
  -2  -3   2  197.18    5.15
  -2  -3   2  195.74    5.19
  -2  -3   2  191.73    5.67
   1   3  -2  167.60    5.09
   1   3  -2  172.07    5.27
   1   3  -2  173.45    4.56
  -1  -3   2  175.20    4.56
  -1  -3   2  170.63    4.59
  -1  -3   2  168.31    5.11
  -1  -3   2  178.91    5.25
  -1  -3   2  170.16    5.02
   0   3  -2   89.01    2.48
   0   3  -2   84.89    2.35
   0   3  -2   88.14    2.74
   0   3  -2   86.89    2.95
   0   3  -2   83.78    2.30
   0   3  -2   88.95    2.33
   0  -3   2   84.78    2.90
   0  -3   2   84.99    2.51
   0  -3   2   86.32    2.82
   0  -3   2   88.93    2.44
   0  -3   2   83.21    2.78
  -1   3  -2  176.16    5.26
  -1   3  -2  165.51    4.98
  -1   3  -2  177.01    4.50
  -1   3  -2  184.48    4.41
   1  -3   2  156.50    5.05
   1  -3   2  163.53    4.55
   1  -3   2  164.29    4.52
   1  -3   2  164.27    5.05
   1  -3   2  160.41    5.20
  -2   3  -2  169.31    4.49
  -2   3  -2  162.82    5.02
  -2   3  -2  166.51    5.27
  -2   3  -2  172.91    4.30
  -2   3  -2  167.46    4.41
   2  -3   2  163.46    5.14
   2  -3   2  167.92    5.29
   2  -3   2  167.70    4.62
   2  -3   2  169.89    4.56
   2  -3   2  162.06    4.35
   2  -3   2  161.16    5.09
  -3   3  -2   61.99    1.81
  -3   3  -2   58.87    1.93
  -3   3  -2   63.12    2.26
  -3   3  -2   59.20    2.41
  -3   3  -2   58.89    1.82
   3  -3   2   59.42    1.96
   3  -3   2   59.18    2.32
   3  -3   2   59.75    1.89
   3  -3   2   60.02    2.37
   3  -3   2   60.40    2.44
   3  -3   2   58.99    2.07
  -4   3  -2   38.11    1.47
  -4   3  -2   40.66    1.37
  -4   3  -2   37.44    1.91
  -4   3  -2   44.89    1.85
   4  -3   2   41.79    1.49
   4  -3   2   41.70    1.67
   4  -3   2   40.35    1.88
   4  -3   2   47.31    2.04
   4  -3   2   39.74    1.52
   4  -3   2   42.03    2.00
  -5   3  -2   32.42    1.33
  -5   3  -2   33.85    1.21
  -5   3  -2   31.95    1.79
   5  -3   2   32.94    1.52
   5  -3   2   34.17    1.36
   5  -3   2   30.03    1.68
   5  -3   2   31.49    1.35
   5  -3   2   33.19    1.81
   5  -3   2   35.80    1.66
  -6   3  -2   10.12    0.60
  -6   3  -2   13.55    1.45
   6  -3   2   13.19    1.36
   6  -3   2    9.96    0.97
   6  -3   2   11.47    0.76
   6  -3   2   11.60    1.36
   6  -3   2   11.29    0.76
  -7   3  -2    0.92    0.46
  -7   3  -2    1.21    0.24
   7  -3   2    0.65    0.42
   7  -3   2    1.13    0.31
   7  -3   2    1.23    0.34
  -8   3  -2    6.70    0.52
   8  -3   2    5.70    0.70
   8  -3   2    7.04    0.80
   8   2  -2   27.38    1.19
  -8  -2   2   30.15    1.47
  -8  -2   2   29.91    1.35
   7   2  -2   28.92    1.18
  -7  -2   2   29.58    1.38
  -7  -2   2   29.78    1.29
   6   2  -2  102.25    2.93
   6   2  -2  102.71    3.72
  -6  -2   2  102.59    3.22
  -6  -2   2  103.95    3.78
  -6  -2   2  111.85    3.16
   5   2  -2   17.81    0.76
   5   2  -2   17.25    1.06
  -5  -2   2   18.49    0.82
  -5  -2   2   19.00    1.13
  -5  -2   2   17.09    0.87
   4   2  -2   26.03    1.31
   4   2  -2   25.16    1.31
   4   2  -2   25.65    1.24
  -4  -2   2   25.71    1.26
  -4  -2   2   24.94    1.23
  -4  -2   2   23.71    1.00
  -4  -2   2   25.37    0.95
   3   2  -2   41.60    1.61
   3   2  -2   39.64    1.58
   3   2  -2   39.25    1.34
   3   2  -2   39.06    1.61
   3   2  -2   38.06    1.19
  -3  -2   2   40.69    1.35
  -3  -2   2   38.85    1.25
  -3  -2   2   41.19    1.57
  -3  -2   2   39.19    1.57
   2   2  -2   75.09    2.39
   2   2  -2   71.23    2.42
   2   2  -2   74.72    2.10
   2   2  -2   69.24    2.42
   2   2  -2   71.20    1.93
  -2  -2   2   75.38    2.42
  -2  -2   2   71.37    2.03
  -2  -2   2   74.00    2.13
  -2  -2   2   74.53    2.48
  -2  -2   2   73.31    2.37
  -2  -2   2   71.52    2.10
   1   2  -2   11.27    0.59
   1   2  -2   11.31    0.43
   1   2  -2   12.07    0.51
   1   2  -2   11.77    0.66
  -1  -2   2   10.83    0.52
  -1  -2   2   11.75    0.63
  -1  -2   2   10.60    0.59
  -1  -2   2   11.24    0.58
  -1  -2   2   12.35    0.45
   0   2  -2    3.00    0.31
   0   2  -2    2.40    0.25
   0   2  -2    1.74    0.31
   0   2  -2    2.11    0.22
   0  -2   2    2.74    0.32
   0  -2   2    2.60    0.18
   0  -2   2    2.29    0.26
  -1   2  -2   66.55    2.08
  -1   2  -2   66.83    1.86
  -1   2  -2   66.42    1.67
  -1   2  -2   67.37    1.77
  -1   2  -2   58.34    2.20
   1  -2   2   65.46    1.83
   1  -2   2   65.81    2.14
   1  -2   2   63.62    1.81
   1  -2   2   63.46    1.91
  -2   2  -2   31.86    1.04
  -2   2  -2   29.53    0.90
  -2   2  -2   30.87    1.19
  -2   2  -2   28.24    1.31
  -2   2  -2   29.95    0.96
   2  -2   2   30.91    1.13
   2  -2   2   29.23    1.01
   2  -2   2   29.89    1.25
   2  -2   2   30.03    1.02
   2  -2   2   24.80    1.26
  -3   2  -2   18.88    0.97
  -3   2  -2   20.26    0.81
  -3   2  -2   20.38    0.71
  -3   2  -2   19.76    0.75
  -3   2  -2   20.35    1.11
   3  -2   2   19.99    0.92
   3  -2   2   19.19    0.83
   3  -2   2   20.01    1.04
   3  -2   2   19.00    1.07
   3  -2   2   20.62    1.13
   3  -2   2   18.21    0.79
  -4   2  -2    1.71    0.22
  -4   2  -2    2.18    0.47
  -4   2  -2    2.12    0.41
  -4   2  -2    1.59    0.26
   4  -2   2    2.25    0.33
   4  -2   2    2.03    0.36
   4  -2   2    2.11    0.46
   4  -2   2    1.83    0.29
   4  -2   2    1.39    0.37
   4  -2   2    2.02    0.43
  -5   2  -2   12.63    1.02
  -5   2  -2   14.85    0.77
  -5   2  -2   16.02    0.68
  -5   2  -2   15.70    1.01
   5  -2   2   14.86    1.04
   5  -2   2   14.82    0.78
   5  -2   2   14.96    0.90
   5  -2   2   16.29    0.83
   5  -2   2   16.13    0.99
   5  -2   2   16.36    1.16
   5  -2   2   13.66    1.07
  -6   2  -2   75.93    2.41
  -6   2  -2   75.26    3.10
  -6   2  -2   74.47    2.24
   6  -2   2   75.13    2.39
   6  -2   2   71.95    2.96
   6  -2   2   73.24    2.83
   6  -2   2   71.33    2.62
   6  -2   2   70.85    3.06
   6  -2   2   70.83    2.44
  -7   2  -2    2.32    0.32
  -7   2  -2    3.39    0.75
   7  -2   2    3.39    0.49
   7  -2   2    3.31    0.49
   7  -2   2    1.96    0.53
   7  -2   2    2.18    0.67
  -8   2  -2   16.64    0.83
  -8   2  -2   16.90    1.45
   8  -2   2   17.81    1.05
   8  -2   2   17.26    1.01
  -9   2  -2   19.59    0.97
   9  -2   2   20.36    1.14
   9  -2   2   19.24    1.19
   8   1  -2    0.76    0.25
  -8  -1   2    0.56    0.26
  -8  -1   2    0.53    0.24
   7   1  -2    6.29    0.56
  -7  -1   2    4.09    0.54
  -7  -1   2    5.88    0.59
   6   1  -2    0.26    0.27
   6   1  -2   -0.09    0.10
  -6  -1   2    0.16    0.15
  -6  -1   2    0.02    0.12
   5   1  -2   10.17    0.54
   5   1  -2   10.41    0.78
  -5  -1   2    9.98    0.61
  -5  -1   2   11.17    0.82
  -5  -1   2    9.43    0.84
   4   1  -2    3.15    0.51
   4   1  -2    2.67    0.42
   4   1  -2    2.86    0.35
   4   1  -2    3.27    0.31
  -4  -1   2    2.40    0.42
  -4  -1   2    2.12    0.38
  -4  -1   2    3.11    0.32
  -4  -1   2    2.58    0.32
   3   1  -2   38.95    1.55
   3   1  -2   35.95    1.47
   3   1  -2   41.79    1.62
   3   1  -2   39.37    1.14
  -3  -1   2   40.60    1.57
  -3  -1   2   40.38    1.58
  -3  -1   2   37.47    1.26
  -3  -1   2   38.89    1.50
   2   1  -2   93.38    2.33
   2   1  -2   91.65    2.92
   2   1  -2   94.40    2.86
   2   1  -2   90.38    2.87
  -2  -1   2   91.42    2.50
  -2  -1   2   92.75    2.91
  -2  -1   2   92.51    2.48
  -2  -1   2   94.22    2.82
  -2  -1   2   92.98    2.93
   1   1  -2   46.40    1.23
   1   1  -2   49.83    1.58
   1   1  -2   46.99    1.58
   1   1  -2   48.53    1.54
   1   1  -2   48.65    1.22
  -1  -1   2   48.23    1.28
  -1  -1   2   46.80    1.39
  -1  -1   2   48.49    1.57
  -1  -1   2   48.10    1.36
   0   1  -2    3.98    0.15
   0   1  -2    3.54    0.15
   0   1  -2    3.64    0.29
   0   1  -2    3.52    0.23
   0  -1   2    3.55    0.21
   0  -1   2    3.91    0.25
   0  -1   2    4.07    0.23
  -1   1  -2  159.54    4.66
  -1   1  -2  161.16    3.86
  -1   1  -2  159.36    4.53
   1  -1   2  157.28    4.09
   1  -1   2  161.66    3.93
   1  -1   2  163.15    4.09
   1  -1   2  161.21    4.06
   1  -1   2  159.00    4.69
   1  -1   2  161.63    4.55
   1  -1   2  157.58    4.58
  -2   1  -2  253.91    6.11
  -2   1  -2  253.47    7.17
  -2   1  -2  256.46    6.35
  -2   1  -2  251.31    7.29
   2  -1   2  251.65    6.17
   2  -1   2  266.48    6.49
   2  -1   2  245.08    7.10
   2  -1   2  250.25    7.32
   2  -1   2  257.87    6.47
   2  -1   2  243.61    7.21
  -3   1  -2  148.22    3.93
  -3   1  -2  151.60    3.77
  -3   1  -2  157.29    4.53
  -3   1  -2  150.94    3.87
  -3   1  -2  135.88    4.58
   3  -1   2  150.51    4.09
   3  -1   2  150.57    4.58
   3  -1   2  150.81    4.05
   3  -1   2  147.70    3.83
  -4   1  -2  144.83    3.87
  -4   1  -2  147.15    4.62
  -4   1  -2  146.93    3.80
  -4   1  -2  143.90    4.50
  -4   1  -2  134.80    3.68
   4  -1   2  142.95    4.00
   4  -1   2  151.55    4.60
   4  -1   2  145.42    4.27
   4  -1   2  141.01    4.05
   4  -1   2  141.57    3.78
   4  -1   2  141.56    4.67
   4  -1   2  136.98    4.52
  -5   1  -2  218.13    6.68
  -5   1  -2  216.26    5.71
  -5   1  -2  223.93    5.78
  -5   1  -2  222.20    6.83
   5  -1   2  216.31    5.95
   5  -1   2  217.43    5.63
   5  -1   2  215.11    6.72
   5  -1   2  221.74    6.01
   5  -1   2  211.86    6.87
   5  -1   2  217.65    6.31
   5  -1   2  211.96    6.71
  -6   1  -2   95.52    3.75
  -6   1  -2  106.97    3.11
  -6   1  -2  104.75    2.96
   6  -1   2  110.83    4.03
   6  -1   2  104.55    3.88
   6  -1   2  107.18    3.37
   6  -1   2  104.08    3.06
   6  -1   2  105.07    3.50
   6  -1   2  100.86    3.18
   6  -1   2   99.31    3.73
  -7   1  -2   41.83    2.13
  -7   1  -2   40.62    1.44
   7  -1   2   40.42    2.20
   7  -1   2   44.21    1.66
   7  -1   2   44.22    1.69
   7  -1   2   39.52    2.05
   7  -1   2   40.50    2.07
   7  -1   2   44.90    1.88
  -8   1  -2   38.57    2.16
  -8   1  -2   40.54    1.46
   8  -1   2   40.87    1.67
   8  -1   2   38.77    1.67
  -9   1  -2   21.61    1.01
   9  -1   2   22.22    1.20
   9  -1   2   22.88    1.26
   8   0  -2   15.90    0.83
  -8   0   2   15.05    0.92
  -8   0   2   17.13    1.04
   7   0  -2   59.05    2.37
   7   0  -2   56.25    1.86
  -7   0   2   60.04    2.06
  -7   0   2   54.47    2.10
   6   0  -2  138.12    4.29
   6   0  -2  131.71    3.64
   6   0  -2  132.84    4.51
  -6   0   2  135.39    3.93
  -6   0   2  138.61    3.97
   5   0  -2   51.24    1.58
   5   0  -2   48.79    1.91
   5   0  -2   53.36    2.07
  -5   0   2   52.75    1.77
  -5   0   2   52.15    1.72
  -5   0   2   50.65    2.22
   4   0  -2   85.58    2.81
   4   0  -2   88.37    2.99
   4   0  -2   89.83    2.41
   4   0  -2   91.38    3.17
  -4   0   2   94.02    3.17
  -4   0   2   89.66    2.62
  -4   0   2   91.50    2.62
   3   0  -2  285.66    7.03
   3   0  -2  298.15    8.48
   3   0  -2  277.73    8.31
   3   0  -2  296.02    7.86
  -3   0   2  300.53    7.53
  -3   0   2  305.03    8.46
  -3   0   2  295.97    8.47
  -3   0   2  292.00    8.15
  -3   0   2  286.86    7.38
  -3   0   2  278.26    8.17
   2   0  -2  447.38   12.43
   2   0  -2  465.79   12.75
   2   0  -2  435.75   11.92
   2   0  -2  443.04   12.64
  -2   0   2  460.36   12.73
  -2   0   2  463.70   12.34
  -2   0   2  467.95   11.38
  -2   0   2  456.57   12.29
  -2   0   2  454.92   11.28
  -2   0   2  454.71   12.75
  -2   0   2  478.63   11.50
   1   0  -2   43.02    1.34
   1   0  -2   44.67    1.38
  -1   0   2   41.50    1.17
  -1   0   2   42.61    1.36
  -1   0   2   43.63    1.21
  -1   0   2   41.63    1.39
   0   0   2   93.60    2.32
   0   0   2   96.25    2.33
   0   0   2   94.19    2.68
   0   0   2   91.21    2.60
   0   0   2   96.08    2.66
  -1   0  -2  415.00   11.09
  -1   0  -2  401.19   11.05
   1   0   2  401.10    9.51
   1   0   2  408.95   11.10
   1   0   2  404.08    9.90
   1   0   2  403.91    9.52
   1   0   2  382.11   10.73
   1   0   2  400.38   11.07
   1   0   2  415.50    9.93
  -2   0  -2    0.34    0.08
  -2   0  -2    0.22    0.10
  -2   0  -2    0.43    0.07
  -2   0  -2    0.64    0.15
   2   0   2    0.20    0.07
   2   0   2    0.41    0.06
   2   0   2    0.45    0.14
   2   0   2    0.37    0.08
   2   0   2    0.29    0.10
   2   0   2    0.35    0.14
   2   0   2    0.41    0.10
   2   0   2    0.40    0.12
  -3   0  -2   73.39    1.93
  -3   0  -2   74.54    1.93
  -3   0  -2   71.30    2.39
  -3   0  -2   77.55    2.03
  -3   0  -2   74.66    2.45
   3   0   2   74.37    2.50
   3   0   2   70.91    2.43
   3   0   2   72.38    1.97
   3   0   2   76.42    2.28
   3   0   2   76.10    2.10
   3   0   2   71.32    2.42
   3   0   2   73.61    2.17
  -4   0  -2   12.37    0.48
  -4   0  -2   13.54    0.58
  -4   0  -2   12.75    0.78
  -4   0  -2   12.19    0.53
  -4   0  -2   12.66    0.75
   4   0   2   12.86    0.83
   4   0   2   13.14    0.71
   4   0   2   13.48    0.58
   4   0   2   12.83    0.61
   4   0   2   13.36    0.79
   4   0   2   10.79    0.76
   4   0   2   11.22    0.65
  -5   0  -2   13.45    0.92
  -5   0  -2   15.37    0.62
  -5   0  -2   15.35    0.95
  -5   0  -2   15.20    0.71
   5   0   2   14.96    0.84
   5   0   2   15.24    0.76
   5   0   2   16.36    0.73
   5   0   2   16.49    0.89
   5   0   2   15.28    0.95
   5   0   2   16.65    1.06
   5   0   2   14.76    1.00
  -6   0  -2    0.45    0.13
  -6   0  -2    0.47    0.27
  -6   0  -2    0.42    0.15
  -6   0  -2    0.11    0.20
   6   0   2    0.31    0.28
   6   0   2    0.70    0.27
   6   0   2    1.02    0.30
   6   0   2    0.24    0.24
   6   0   2    0.69    0.22
   6   0   2    0.57    0.29
   6   0   2    0.34    0.16
   6   0   2    0.29    0.22
  -7   0  -2    7.88    0.98
  -7   0  -2    8.07    0.49
   7   0   2    7.60    0.60
   7   0   2    7.31    0.94
   7   0   2    6.98    0.77
   7   0   2    8.48    1.10
   7   0   2    8.15    0.60
  -8   0  -2   -0.03    0.26
  -8   0  -2    0.08    0.14
   8   0   2   -0.06    0.17
   8   0   2    0.26    0.21
   8   0   2    0.15    0.32
  -9   0  -2    8.54    0.58
   9   0   2    8.82    0.88
   9   0   2    9.17    0.88
 -10   0  -2   19.78    0.97
  10   0   2   19.26    1.16
  10   0   2   18.56    1.18
   8  -1  -2   19.99    0.95
   8  -1  -2   19.89    1.36
  -8   1   2   19.90    1.09
  -8   1   2   20.48    1.18
   7  -1  -2   95.75    2.76
   7  -1  -2   86.76    3.28
  -7   1   2   95.19    3.08
  -7   1   2   95.77    3.01
   6  -1  -2   62.48    1.90
   6  -1  -2   59.73    2.44
   6  -1  -2   59.30    2.34
  -6   1   2   61.05    2.07
  -6   1   2   58.51    2.07
   5  -1  -2   13.56    0.87
   5  -1  -2   13.04    0.88
   5  -1  -2   15.09    0.66
  -5   1   2   12.80    0.70
  -5   1   2   13.97    0.75
   4  -1  -2   48.34    1.98
   4  -1  -2   47.94    1.42
   4  -1  -2   46.95    1.82
   4  -1  -2   44.96    1.73
   4  -1  -2   48.96    1.99
  -4   1   2   47.14    1.56
  -4   1   2   47.13    1.58
  -4   1   2   49.05    2.02
   3  -1  -2   48.99    1.89
   3  -1  -2   51.40    1.40
   3  -1  -2   51.20    1.79
   3  -1  -2   47.31    1.69
  -3   1   2   52.66    1.91
  -3   1   2   48.32    1.86
  -3   1   2   51.37    1.55
  -3   1   2   48.48    1.55
  -3   1   2   51.57    1.96
   2  -1  -2   11.36    0.55
   2  -1  -2   11.98    0.62
   2  -1  -2   10.56    0.54
  -2   1   2   10.40    0.62
  -2   1   2   10.41    0.58
  -2   1   2   10.71    0.46
  -2   1   2   11.33    0.52
  -2   1   2   10.99    0.59
  -2   1   2   11.46    0.40
  -2   1   2   10.76    0.62
   1  -1  -2    3.80    0.26
   1  -1  -2    4.12    0.26
   1  -1  -2    3.85    0.23
  -1   1   2    4.08    0.23
  -1   1   2    4.43    0.31
  -1   1   2    4.04    0.30
  -1   1   2    3.90    0.21
   0  -1  -2    3.24    0.15
   0   1   2    3.13    0.14
   0   1   2    3.15    0.16
  -1  -1  -2   41.66    1.13
  -2  -1  -2    1.20    0.16
  -2  -1  -2    0.82    0.14
  -2  -1  -2    0.97    0.15
   2   1   2    1.09    0.16
   2   1   2    1.14    0.12
   2   1   2    1.31    0.19
   2   1   2    0.86    0.13
   2   1   2    1.23    0.12
  -3  -1  -2   26.41    0.80
  -3  -1  -2   26.84    1.00
  -3  -1  -2   26.03    1.05
  -3  -1  -2   26.55    1.03
  -3  -1  -2   26.83    0.84
   3   1   2   27.84    0.88
   3   1   2   25.95    0.94
   3   1   2   27.03    0.97
   3   1   2   25.49    1.05
   3   1   2   27.01    0.83
   3   1   2   26.56    1.09
   3   1   2   26.43    1.08
  -4  -1  -2   41.93    1.60
  -4  -1  -2   42.01    1.28
  -4  -1  -2   38.63    1.55
  -4  -1  -2   43.62    1.24
  -4  -1  -2   40.50    1.18
   4   1   2   40.99    1.35
   4   1   2   42.95    1.47
   4   1   2   40.93    1.60
   4   1   2   41.10    1.60
   4   1   2   35.23    1.61
   4   1   2   40.68    1.42
   4   1   2   40.75    1.26
  -5  -1  -2  211.96    5.32
  -5  -1  -2  204.10    6.41
  -5  -1  -2  207.27    5.51
  -5  -1  -2  211.39    6.39
  -5  -1  -2  214.77    5.50
   5   1   2  209.68    5.37
   5   1   2  218.13    6.59
   5   1   2  213.61    6.43
   5   1   2  207.63    5.72
   5   1   2  214.23    5.75
   5   1   2  208.52    6.35
   5   1   2  212.90    5.97
  -6  -1  -2   43.23    1.91
  -6  -1  -2   41.09    1.86
  -6  -1  -2   42.87    1.48
  -6  -1  -2   42.29    1.36
   6   1   2   43.15    1.97
   6   1   2   41.02    2.01
   6   1   2   43.27    1.90
   6   1   2   41.93    1.46
   6   1   2   42.40    1.67
   6   1   2   41.92    1.57
   6   1   2   42.06    1.70
  -7  -1  -2   30.91    1.10
  -7  -1  -2   28.47    1.57
   7   1   2   30.11    1.73
   7   1   2   29.05    1.22
   7   1   2   29.11    1.60
   7   1   2   27.27    1.38
   7   1   2   31.06    1.33
  -8  -1  -2   82.98    2.49
  -8  -1  -2   81.24    3.28
   8   1   2   79.20    2.74
   8   1   2   75.85    3.25
   8   1   2   85.55    2.67
  -9  -1  -2   59.00    2.77
  -9  -1  -2   56.89    1.96
   9   1   2   60.87    2.29
   9   1   2   61.13    2.22
 -10  -1  -2   27.76    1.18
  10   1   2   25.05    1.39
  10   1   2   25.37    1.38
   8  -2  -2    0.13    0.36
  -8   2   2    0.34    0.24
  -8   2   2    0.22    0.22
   7  -2  -2    1.42    0.30
   7  -2  -2    1.66    0.48
  -7   2   2    2.27    0.44
  -7   2   2    1.74    0.37
   6  -2  -2    8.51    0.53
   6  -2  -2    7.32    0.86
   6  -2  -2    7.44    0.84
  -6   2   2    8.24    0.62
  -6   2   2    7.95    0.62
   5  -2  -2    1.48    0.39
   5  -2  -2    1.52    0.37
   5  -2  -2    1.34    0.24
  -5   2   2    0.98    0.23
  -5   2   2    1.29    0.27
   4  -2  -2   16.16    0.93
   4  -2  -2   16.31    0.68
   4  -2  -2   17.94    1.06
   4  -2  -2   18.52    1.09
   4  -2  -2   17.75    0.94
  -4   2   2   17.14    0.80
  -4   2   2   16.38    1.07
  -4   2   2   16.91    0.78
   3  -2  -2  128.57    3.82
   3  -2  -2  122.12    3.93
   3  -2  -2  129.51    4.10
  -3   2   2  135.27    4.21
  -3   2   2  128.92    3.53
  -3   2   2  124.49    3.49
  -3   2   2  128.24    4.04
   2  -2  -2   59.00    1.98
   2  -2  -2   63.33    2.19
   2  -2  -2   60.50    1.94
   2  -2  -2   58.77    2.05
  -2   2   2   62.71    1.71
  -2   2   2   61.41    2.10
  -2   2   2   60.20    2.07
  -2   2   2   60.81    1.84
  -2   2   2   62.55    2.16
  -2   2   2   57.54    1.75
   1  -2  -2  114.29    3.28
   1  -2  -2  115.15    3.32
  -1   2   2  117.88    2.99
  -1   2   2  112.41    3.33
  -1   2   2  111.83    2.93
  -1   2   2  107.14    3.39
   0  -2  -2  975.15   26.67
   0  -2  -2  981.42   26.70
   0   2   2  949.45   23.96
   0   2   2  969.63   26.90
   0   2   2 1000.00   26.75
   0   2   2  994.76   25.98
   0   2   2  984.22   23.85
  -1  -2  -2  873.16   23.50
  -1  -2  -2  853.68   23.51
   1   2   2  888.03   21.05
   1   2   2  834.94   23.58
   1   2   2  881.45   23.73
   1   2   2  860.88   23.00
   1   2   2  856.43   21.10
  -2  -2  -2   67.77    2.11
  -2  -2  -2   68.68    2.06
  -2  -2  -2   69.45    2.07
  -2  -2  -2   69.47    2.12
   2   2   2   71.09    1.91
   2   2   2   71.18    2.06
   2   2   2   69.42    2.13
   2   2   2   73.19    1.87
  -3  -2  -2  160.55    4.64
  -3  -2  -2  167.76    4.12
  -3  -2  -2  157.70    4.41
  -3  -2  -2  164.13    4.71
   3   2   2  158.68    4.54
   3   2   2  156.82    4.71
   3   2   2  156.99    4.21
   3   2   2  164.81    4.22
   3   2   2  158.51    3.98
   3   2   2  163.77    4.60
   3   2   2  151.53    4.70
  -4  -2  -2  203.95    5.12
  -4  -2  -2  198.66    4.93
  -4  -2  -2  205.53    5.92
  -4  -2  -2  196.86    5.09
  -4  -2  -2  195.62    5.83
   4   2   2  195.70    4.96
   4   2   2  185.20    5.75
   4   2   2  203.02    5.48
   4   2   2  198.30    5.29
   4   2   2  193.70    5.89
   4   2   2  203.16    5.96
   4   2   2  198.57    5.27
  -5  -2  -2  172.96    4.54
  -5  -2  -2  171.09    4.38
  -5  -2  -2  163.67    5.21
  -5  -2  -2  172.64    5.32
  -5  -2  -2  171.41    4.48
   5   2   2  169.91    5.26
   5   2   2  169.03    4.41
   5   2   2  169.41    5.39
   5   2   2  172.39    4.89
   5   2   2  168.25    4.71
   5   2   2  172.71    5.30
   5   2   2  169.93    4.73
  -6  -2  -2   15.94    1.00
  -6  -2  -2   16.30    0.77
  -6  -2  -2   16.98    1.06
  -6  -2  -2   14.83    0.65
   6   2   2   14.84    0.87
   6   2   2   15.71    1.01
   6   2   2   14.25    0.80
   6   2   2   16.48    0.77
   6   2   2   17.52    0.92
   6   2   2   16.64    1.13
   6   2   2   16.24    1.11
  -7  -2  -2   57.70    1.81
  -7  -2  -2   56.71    2.41
   7   2   2   60.33    2.21
   7   2   2   63.16    2.65
   7   2   2   56.15    2.42
   7   2   2   53.64    2.03
   7   2   2   57.53    1.93
  -8  -2  -2   27.08    1.61
  -8  -2  -2   28.23    1.10
   8   2   2   27.51    1.56
   8   2   2   27.82    1.65
   8   2   2   29.54    1.28
   8   2   2   29.34    1.82
   8   2   2   27.07    1.32
  -9  -2  -2    3.65    0.43
  -9  -2  -2    2.84    0.65
   9   2   2    4.30    0.58
   9   2   2    2.30    0.47
 -10  -2  -2    6.10    0.59
  10   2   2    7.34    0.83
  10   2   2    7.05    0.80
   8  -3  -2   17.38    1.38
  -8   3   2   19.22    1.17
  -8   3   2   18.27    1.09
   7  -3  -2   76.67    3.07
  -7   3   2   77.05    2.68
  -7   3   2   78.96    2.75
   6  -3  -2   30.48    1.59
   6  -3  -2   29.79    1.61
  -6   3   2   30.55    1.36
  -6   3   2   27.60    1.30
   5  -3  -2   41.83    1.87
   5  -3  -2   45.51    1.95
  -5   3   2   45.86    1.69
  -5   3   2   43.34    1.65
   4  -3  -2  154.61    4.74
   4  -3  -2  152.13    4.91
   4  -3  -2  161.79    5.12
  -4   3   2  161.34    4.43
  -4   3   2  153.54    5.21
  -4   3   2  150.02    4.33
   3  -3  -2   99.27    3.22
   3  -3  -2   92.86    3.10
   3  -3  -2   91.60    3.00
   3  -3  -2   89.91    3.08
   3  -3  -2   95.40    3.22
  -3   3   2   92.68    2.73
  -3   3   2   94.76    2.75
  -3   3   2   92.85    3.33
   2  -3  -2   51.70    1.89
   2  -3  -2   53.20    1.96
  -2   3   2   54.88    2.04
  -2   3   2   53.31    1.67
  -2   3   2   56.59    2.01
  -2   3   2   53.66    2.07
  -2   3   2   55.95    1.65
   1  -3  -2   37.48    1.32
   1  -3  -2   33.82    1.30
   1  -3  -2   34.62    1.40
  -1   3   2   38.32    1.08
  -1   3   2   35.24    1.15
  -1   3   2   37.55    1.42
  -1   3   2   34.91    1.41
  -1   3   2   38.19    1.23
  -1   3   2   36.59    1.37
   0  -3  -2  503.03   13.62
   0  -3  -2  468.58   13.63
   0   3   2  497.37   13.73
   0   3   2  489.33   12.18
   0   3   2  510.52   12.24
   0   3   2  504.02   13.31
  -1  -3  -2  278.47    7.80
  -1  -3  -2  282.53    7.82
   1   3   2  278.47    7.61
   1   3   2  274.06    7.00
   1   3   2  294.13    7.02
   1   3   2  274.57    7.85
  -2  -3  -2   54.22    1.77
  -2  -3  -2   52.22    1.71
  -2  -3  -2   54.68    1.72
   2   3   2   54.90    1.56
   2   3   2   53.27    1.60
   2   3   2   55.25    1.74
   2   3   2   56.04    1.53
   2   3   2   55.87    1.82
  -3  -3  -2   18.42    0.85
  -3  -3  -2   19.42    0.80
  -3  -3  -2   20.08    0.84
  -3  -3  -2   20.01    0.72
   3   3   2   19.16    0.72
   3   3   2   19.30    0.78
   3   3   2   18.32    0.68
   3   3   2   17.21    0.84
  -4  -3  -2   36.63    1.40
  -4  -3  -2   34.85    1.05
  -4  -3  -2   33.81    1.42
  -4  -3  -2   35.21    1.36
  -4  -3  -2   36.83    1.20
   4   3   2   34.09    1.13
   4   3   2   33.90    1.27
   4   3   2   34.25    1.22
   4   3   2   33.44    1.41
   4   3   2   33.20    1.41
   4   3   2   34.56    1.44
  -5  -3  -2   13.25    0.63
  -5  -3  -2   11.63    0.58
  -5  -3  -2   11.58    0.51
  -5  -3  -2   11.56    0.74
  -5  -3  -2   13.27    0.65
  -5  -3  -2   13.43    0.84
  -5  -3  -2   12.25    0.82
   5   3   2   12.54    0.72
   5   3   2   11.78    0.83
   5   3   2   12.29    0.67
   5   3   2   13.27    0.86
   5   3   2   11.22    0.79
   5   3   2   12.19    0.61
  -6  -3  -2    4.99    0.61
  -6  -3  -2    8.13    0.86
  -6  -3  -2    6.42    0.48
  -6  -3  -2    6.07    0.37
  -6  -3  -2    6.10    0.46
   6   3   2    5.35    0.70
   6   3   2    5.53    0.57
   6   3   2    4.83    0.49
   6   3   2    6.22    0.64
   6   3   2    6.63    0.82
  -7  -3  -2   13.60    0.63
  -7  -3  -2   11.40    0.90
   7   3   2   11.19    0.77
   7   3   2   13.08    0.88
   7   3   2   12.14    0.99
   7   3   2   13.65    1.11
   7   3   2   12.44    0.73
  -8  -3  -2   26.06    1.05
  -8  -3  -2   28.86    1.58
   8   3   2   25.31    1.72
   8   3   2   25.93    1.48
   8   3   2   25.75    1.20
   8   3   2   23.65    1.54
   8   3   2   27.65    1.34
  -9  -3  -2    8.73    1.11
  -9  -3  -2    9.17    0.58
   9   3   2    8.83    0.89
   9   3   2    9.13    0.86
 -10  -3  -2    6.85    0.53
  10   3   2    6.01    0.73
  10   3   2    7.03    0.82
   7  -4  -2   19.55    1.40
  -7   4   2   17.77    1.12
  -7   4   2   18.36    1.09
   6  -4  -2    3.30    0.65
  -6   4   2    3.13    0.48
  -6   4   2    3.64    0.53
   5  -4  -2   40.35    1.88
   5  -4  -2   39.02    1.86
  -5   4   2   40.53    1.62
   4  -4  -2   22.38    1.23
   4  -4  -2   21.39    1.22
   4  -4  -2   21.62    1.22
  -4   4   2   22.85    1.07
  -4   4   2   23.94    1.08
   3  -4  -2    0.97    0.32
   3  -4  -2    1.38    0.33
  -3   4   2    1.33    0.26
  -3   4   2    0.94    0.22
  -3   4   2    1.19    0.36
   2  -4  -2    0.77    0.27
   2  -4  -2    0.67    0.22
   2  -4  -2    0.50    0.21
  -2   4   2    0.70    0.18
  -2   4   2    0.55    0.17
  -2   4   2    0.46    0.24
   1  -4  -2    4.33    0.48
   1  -4  -2    4.72    0.42
  -1   4   2    4.27    0.32
  -1   4   2    4.14    0.33
  -1   4   2    4.59    0.57
  -1   4   2    5.06    0.61
  -1   4   2    4.38    0.49
   0  -4  -2   25.53    1.04
   0  -4  -2   25.49    1.04
   0  -4  -2   26.13    1.06
   0   4   2   24.79    0.88
   0   4   2   26.13    1.07
   0   4   2   25.44    0.92
   0   4   2   25.40    1.13
   0   4   2   23.63    1.11
  -1  -4  -2   22.14    0.92
  -1  -4  -2   21.19    0.89
  -1  -4  -2   20.35    0.83
  -1  -4  -2   21.28    0.91
   1   4   2   23.15    1.00
   1   4   2   22.78    1.00
   1   4   2   21.93    0.83
   1   4   2   22.20    0.80
   1   4   2   22.99    0.92
  -2  -4  -2   13.72    0.68
  -2  -4  -2   15.48    0.63
  -2  -4  -2   14.78    0.73
  -2  -4  -2   15.08    0.71
   2   4   2   13.84    0.68
   2   4   2   14.84    0.76
   2   4   2   13.74    0.64
   2   4   2   15.20    0.63
  -3  -4  -2  144.82    3.74
  -3  -4  -2  139.94    3.58
  -3  -4  -2  135.34    4.26
  -3  -4  -2  135.01    4.11
  -3  -4  -2  137.32    4.15
   3   4   2  142.40    4.31
   3   4   2  139.82    3.84
   3   4   2  140.35    3.60
   3   4   2  138.58    3.84
   3   4   2  136.32    4.21
  -4  -4  -2  188.61    5.74
  -4  -4  -2  194.49    5.14
  -4  -4  -2  193.20    5.88
  -4  -4  -2  182.63    5.65
  -4  -4  -2  201.79    5.07
   4   4   2  191.51    5.28
   4   4   2  194.71    5.31
   4   4   2  197.29    5.88
   4   4   2  202.34    5.94
   4   4   2  202.03    5.74
   4   4   2  192.26    4.97
  -5  -4  -2   70.97    2.54
  -5  -4  -2   74.33    2.27
  -5  -4  -2   72.10    2.68
  -5  -4  -2   73.02    2.09
   5   4   2   74.75    2.67
   5   4   2   72.77    2.70
   5   4   2   72.62    2.16
   5   4   2   73.21    2.68
   5   4   2   71.30    2.34
   5   4   2   72.97    2.39
  -6  -4  -2   47.16    1.92
  -6  -4  -2   44.75    2.03
  -6  -4  -2   46.40    1.66
  -6  -4  -2   45.88    1.47
  -6  -4  -2   48.60    2.09
   6   4   2   44.32    1.73
   6   4   2   48.15    2.08
   6   4   2   47.58    2.03
   6   4   2   44.02    1.78
   6   4   2   44.79    1.56
  -7  -4  -2  174.45    5.64
  -7  -4  -2  176.97    4.77
   7   4   2  171.73    5.15
   7   4   2  174.16    5.78
   7   4   2  176.77    4.78
   7   4   2  170.28    5.79
   7   4   2  181.06    5.20
  -8  -4  -2   97.10    3.67
  -8  -4  -2   98.90    2.93
   8   4   2  101.95    3.08
   8   4   2   98.00    3.32
  -9  -4  -2   18.08    0.87
  -9  -4  -2   17.55    1.31
   9   4   2   18.47    1.06
   9   4   2   18.12    1.13
 -10  -4  -2   22.67    1.11
  10   4   2   23.29    1.33
  10   4   2   22.84    1.27
   7  -5  -2   19.32    1.48
  -7   5   2   17.18    1.10
  -7   5   2   19.28    1.20
   6  -5  -2    8.05    1.09
  -6   5   2    8.56    0.89
  -6   5   2    6.31    0.72
   5  -5  -2   28.24    1.59
  -5   5   2   28.36    1.36
   4  -5  -2   52.63    2.23
  -4   5   2   49.80    1.90
  -4   5   2   51.72    1.92
   3  -5  -2   52.59    2.15
  -3   5   2   53.47    1.87
  -3   5   2   50.46    1.86
   2  -5  -2   45.43    1.91
   2  -5  -2   48.51    1.96
  -2   5   2   46.10    1.67
  -2   5   2   47.99    1.68
  -2   5   2   49.82    2.15
   1  -5  -2   54.97    2.10
   1  -5  -2   57.58    2.11
   1  -5  -2   56.45    1.85
  -1   5   2   55.57    1.84
  -1   5   2   56.15    2.27
  -1   5   2   56.26    1.86
   0  -5  -2  265.32    7.55
   0  -5  -2  259.21    7.77
   0  -5  -2  271.02    6.94
   0  -5  -2  265.13    7.75
   0   5   2  264.40    7.94
   0   5   2  272.08    7.09
   0   5   2  272.84    7.97
   0   5   2  264.74    6.92
  -1  -5  -2    6.89    0.54
  -1  -5  -2    8.51    0.56
  -1  -5  -2    9.06    0.52
  -1  -5  -2    8.84    0.58
   1   5   2    8.73    0.51
   1   5   2    8.80    0.57
   1   5   2    8.28    0.64
   1   5   2    7.58    0.48
  -2  -5  -2  100.99    3.24
  -2  -5  -2  103.38    3.18
  -2  -5  -2   99.08    3.28
  -2  -5  -2  106.87    2.93
   2   5   2  102.15    2.95
   2   5   2   99.02    3.37
   2   5   2  101.40    2.98
   2   5   2  103.73    3.23
  -3  -5  -2  204.70    5.38
  -3  -5  -2  198.39    5.98
  -3  -5  -2  200.15    5.22
  -3  -5  -2  202.45    5.87
  -3  -5  -2  207.52    6.10
   3   5   2  202.08    5.46
   3   5   2  204.38    6.02
   3   5   2  202.21    5.56
   3   5   2  202.73    6.15
  -4  -5  -2  123.09    3.33
  -4  -5  -2  127.88    4.06
  -4  -5  -2  124.73    3.91
  -4  -5  -2  126.27    3.52
  -4  -5  -2  116.28    3.86
   4   5   2  121.41    3.36
   4   5   2  126.55    4.04
   4   5   2  120.11    3.64
   4   5   2  125.65    3.63
   4   5   2  124.91    4.08
  -5  -5  -2   15.39    0.65
  -5  -5  -2   16.05    0.99
  -5  -5  -2   13.57    0.85
  -5  -5  -2   15.16    0.79
  -5  -5  -2   15.55    1.00
   5   5   2   14.78    0.74
   5   5   2   16.04    0.89
   5   5   2   14.04    0.97
   5   5   2   15.39    0.87
   5   5   2   14.96    0.96
  -6  -5  -2   73.21    2.19
  -6  -5  -2   75.13    2.71
   6   5   2   71.04    2.52
   6   5   2   71.83    2.28
   6   5   2   71.13    2.54
   6   5   2   74.41    2.89
   6   5   2   74.58    2.87
  -7  -5  -2   33.06    1.19
  -7  -5  -2   30.75    1.57
   7   5   2   31.40    1.53
   7   5   2   30.88    1.73
   7   5   2   33.49    1.33
   7   5   2   32.11    1.78
   7   5   2   29.04    1.44
  -8  -5  -2   23.48    1.43
  -8  -5  -2   25.21    1.02
   8   5   2   24.76    1.19
   8   5   2   23.47    1.29
  -9  -5  -2    3.22    0.40
   9   5   2    3.35    0.55
   9   5   2    3.71    0.59
   6  -6  -2   22.26    1.57
  -6   6   2   20.03    1.20
  -6   6   2   22.25    1.29
   5  -6  -2   71.82    2.99
  -5   6   2   70.48    2.62
   4  -6  -2   59.11    2.55
  -4   6   2   57.32    2.18
  -4   6   2   60.28    2.22
   3  -6  -2   40.17    1.88
  -3   6   2   38.42    1.61
  -3   6   2   39.56    1.61
   2  -6  -2   54.06    2.21
  -2   6   2   52.67    1.92
  -2   6   2   52.47    1.93
   1  -6  -2   80.83    2.97
   1  -6  -2   86.21    3.00
  -1   6   2   81.47    3.20
  -1   6   2   84.51    2.64
  -1   6   2   81.75    2.66
   0  -6  -2    4.23    0.56
   0  -6  -2    4.67    0.59
   0  -6  -2    3.67    0.51
   0   6   2    3.53    0.42
   0   6   2    4.06    0.64
   0   6   2    3.14    0.41
  -1  -6  -2    6.65    0.50
  -1  -6  -2    6.03    0.54
  -1  -6  -2    5.00    0.59
   1   6   2    4.64    0.49
   1   6   2    6.31    0.50
   1   6   2    5.65    0.73
  -2  -6  -2    9.29    0.65
  -2  -6  -2   10.02    0.61
  -2  -6  -2    9.43    0.67
  -2  -6  -2   10.19    0.71
   2   6   2    9.17    0.60
   2   6   2    8.83    0.60
   2   6   2    9.54    0.78
  -3  -6  -2    1.67    0.19
  -3  -6  -2    1.90    0.36
  -3  -6  -2    2.12    0.38
  -3  -6  -2    2.12    0.34
   3   6   2    1.48    0.38
   3   6   2    1.69    0.33
   3   6   2    1.64    0.30
  -4  -6  -2    1.43    0.21
  -4  -6  -2    1.26    0.31
  -4  -6  -2    1.12    0.27
  -4  -6  -2    0.96    0.28
   4   6   2    0.91    0.23
   4   6   2    1.01    0.27
   4   6   2    1.03    0.27
   4   6   2    1.18    0.34
  -5  -6  -2    0.06    0.10
  -5  -6  -2    0.10    0.16
   5   6   2    0.01    0.17
   5   6   2   -0.05    0.21
   5   6   2   -0.08    0.16
   5   6   2    0.15    0.14
   5   6   2    0.10    0.14
  -6  -6  -2    4.39    0.43
   6   6   2    4.52    0.62
   6   6   2    4.45    0.70
   6   6   2    5.70    0.79
   6   6   2    4.40    0.58
   6   6   2    4.63    0.53
  -7  -6  -2   35.10    1.70
  -7  -6  -2   33.14    1.24
   7   6   2   34.79    1.63
   7   6   2   31.32    1.36
   7   6   2   33.29    1.55
   7   6   2   31.73    1.82
  -8  -6  -2   18.17    1.25
  -8  -6  -2   18.92    0.88
   8   6   2   19.48    1.04
   8   6   2   18.19    1.14
   9   6   2    6.25    0.75
   9   6   2    5.48    0.71
   5  -7  -2    3.31    0.73
  -5   7   2    3.46    0.59
  -5   7   2    4.30    0.67
  -4   7   2    1.64    0.40
  -4   7   2    1.36    0.38
   3  -7  -2    2.41    0.55
  -3   7   2    3.19    0.52
  -3   7   2    1.92    0.43
   2  -7  -2    0.24    0.25
  -2   7   2   -0.02    0.12
  -2   7   2    0.08    0.19
   1  -7  -2   19.92    1.22
  -1   7   2   19.45    1.06
  -1   7   2   20.17    1.05
   0  -7  -2   65.05    2.52
   0   7   2   61.89    2.21
   0   7   2   64.17    2.28
  -1  -7  -2    7.70    0.84
   1   7   2    6.52    0.64
   1   7   2    7.82    0.98
   1   7   2    7.69    0.64
  -2  -7  -2   93.52    3.29
   2   7   2   92.63    3.52
   2   7   2   92.61    3.03
   2   7   2   96.59    2.99
  -3  -7  -2   64.42    2.47
  -3  -7  -2   63.18    1.86
   3   7   2   64.50    2.69
   3   7   2   64.06    2.28
   3   7   2   67.96    2.28
  -4  -7  -2   45.68    1.48
  -4  -7  -2   46.45    1.97
   4   7   2   46.15    1.85
   4   7   2   48.63    1.69
   4   7   2   47.71    1.85
   4   7   2   47.10    2.18
  -5  -7  -2   15.72    1.05
  -5  -7  -2   17.00    0.74
   5   7   2   15.42    0.98
   5   7   2   16.69    1.01
   5   7   2   16.42    0.88
  -6  -7  -2   48.84    2.20
  -6  -7  -2   53.76    1.74
   6   7   2   54.51    2.15
   6   7   2   55.10    2.42
   6   7   2   54.76    1.91
   6   7   2   52.03    2.09
  -7  -7  -2   37.90    1.90
  -7  -7  -2   42.06    1.47
   7   7   2   42.66    1.65
   7   7   2   38.41    1.78
   8   7   2   16.70    1.11
   8   7   2   16.68    0.99
   9   7   2   24.44    1.30
   9   7   2   22.19    1.34
  -4   8   2   12.09    0.97
  -4   8   2   12.42    0.96
  -3   8   2   22.86    1.30
  -3   8   2   22.25    1.28
  -2   8   2   45.25    1.94
  -2   8   2   48.01    2.01
   1  -8  -2   73.75    3.01
  -1   8   2   77.07    2.68
  -1   8   2   71.39    2.66
   0  -8  -2   19.75    1.30
   0   8   2   21.74    1.16
   0   8   2   21.77    1.20
  -1  -8  -2   55.85    2.41
   1   8   2   61.77    2.20
   1   8   2   53.66    2.17
  -2  -8  -2   59.23    2.46
   2   8   2   58.33    2.24
   2   8   2   60.07    2.23
  -3  -8  -2   67.76    2.67
   3   8   2   65.95    2.46
   3   8   2   65.90    2.41
  -4  -8  -2    9.61    0.86
   4   8   2   10.59    0.80
   4   8   2    9.88    0.70
   4   8   2    9.91    0.93
  -5  -8  -2   32.38    1.69
   5   8   2   31.17    1.54
   5   8   2   33.64    1.58
   5   8   2   33.60    1.41
  -6  -8  -2    8.63    0.99
   6   8   2    8.18    0.88
   6   8   2    7.70    0.76
   7   8   2    1.77    0.44
   7   8   2    2.04    0.43
   8   8   2    0.36    0.25
   8   8   2    0.65    0.31
  -3   9   2   10.08    1.04
  -3   9   2    5.94    0.78
  -2   9   2   15.98    1.13
  -2   9   2   18.42    1.18
  -1   9   2    1.19    0.37
  -1   9   2    2.39    0.52
   0   9   2    0.11    0.21
   0   9   2    0.03    0.24
   1   9   2    0.36    0.29
   1   9   2    0.49    0.26
  -2  -9  -2    5.07    0.83
   2   9   2    4.37    0.64
   2   9   2    3.82    0.62
  -3  -9  -2    7.50    0.99
   3   9   2    6.30    0.77
   3   9   2    6.16    0.79
   4   9   2    7.65    0.81
   4   9   2    6.10    0.76
   4   9   2    7.33    0.86
   5   9   2    1.63    0.38
   5   9   2    0.95    0.35
   6   9   2   32.07    1.49
   6   9   2   32.09    1.66
   7   9   2   26.04    1.35
   7   9   2   24.78    1.46
  -1  10   2   14.96    1.15
   0  10   2    5.81    0.78
   0  10   2    5.48    0.79
   1  10   2   27.77    1.53
   1  10   2   24.70    1.48
   2  10   2   40.79    2.04
   2  10   2   40.24    1.93
   3  10   2   30.28    1.61
   4  10   2   12.74    1.02
   4  10   2   11.91    0.90
   5  10   2   69.24    2.48
   5  10   2   63.59    2.64
   3   8  -3   49.97    1.80
  -3  -8   3   51.59    2.13
   2   8  -3    3.46    0.46
  -2  -8   3    4.08    0.62
   1   8  -3   32.32    1.35
  -1  -8   3   30.36    1.52
   0   8  -3   12.85    0.81
   0  -8   3   11.66    0.90
  -1   8  -3    2.04    0.40
   1  -8   3    1.78    0.40
   2  -8   3    0.64    0.29
   5   7  -3    0.49    0.22
  -5  -7   3    0.32    0.24
   4   7  -3    0.39    0.18
  -4  -7   3    0.28    0.22
  -4  -7   3    0.69    0.33
  -4  -7   3    0.64    0.30
   3   7  -3    5.16    0.53
  -3  -7   3    5.44    0.85
  -3  -7   3    4.95    0.71
  -3  -7   3    4.98    0.63
   2   7  -3    4.27    0.48
  -2  -7   3    3.83    0.66
  -2  -7   3    3.99    0.71
  -2  -7   3    4.13    0.56
   1   7  -3    8.06    0.57
  -1  -7   3    7.14    0.86
  -1  -7   3    5.85    0.88
  -1  -7   3    5.50    0.66
   0   7  -3   26.21    1.13
   0  -7   3   23.56    1.40
   0  -7   3   25.91    1.30
   0  -7   3   24.55    1.53
  -1   7  -3   44.49    1.66
   1  -7   3   44.91    1.89
   1  -7   3   46.52    2.10
   1  -7   3   40.20    1.84
   1  -7   3   51.02    2.35
   2  -7   3   17.58    1.37
   2  -7   3   19.12    1.30
   2  -7   3   17.92    1.09
   3  -7   3   19.30    1.16
   4  -7   3   50.96    2.13
   5  -7   3   18.79    1.18
   6   6  -3    5.84    0.55
  -6  -6   3    6.69    0.83
  -6  -6   3    4.71    0.61
  -6  -6   3    5.01    0.86
   5   6  -3   30.62    1.17
  -5  -6   3   27.99    1.34
  -5  -6   3   30.34    1.55
  -5  -6   3   28.79    1.73
   4   6  -3   57.24    1.83
  -4  -6   3   55.82    2.05
  -4  -6   3   56.50    2.51
  -4  -6   3   55.86    2.25
   3   6  -3   32.21    1.17
  -3  -6   3   29.84    1.64
  -3  -6   3   30.56    1.49
  -3  -6   3   27.88    1.28
   2   6  -3    9.77    1.17
   2   6  -3    9.77    0.57
  -2  -6   3    9.85    1.07
  -2  -6   3    8.25    0.63
  -2  -6   3    8.62    0.86
   1   6  -3   94.93    3.86
   1   6  -3  101.51    2.86
  -1  -6   3  102.97    3.64
  -1  -6   3   99.18    3.32
  -1  -6   3   98.11    3.13
   0   6  -3   63.25    2.91
   0   6  -3   66.35    2.09
   0  -6   3   67.85    2.50
   0  -6   3   66.65    2.32
   0  -6   3   69.01    2.73
  -1   6  -3   45.07    1.62
  -1   6  -3   49.53    2.43
   1  -6   3   48.87    2.23
   1  -6   3   45.57    1.82
   1  -6   3   47.21    1.99
  -2   6  -3   23.05    1.59
   2  -6   3   19.27    1.09
   2  -6   3   23.08    1.31
   2  -6   3   20.61    1.43
   2  -6   3   21.37    1.14
  -3   6  -3   41.40    2.36
   3  -6   3   44.48    2.03
   3  -6   3   44.27    1.87
   3  -6   3   50.35    2.39
   4  -6   3   19.88    1.14
   4  -6   3   19.71    1.51
   4  -6   3   20.14    1.45
   5  -6   3    3.99    0.62
   6  -6   3   19.99    1.21
   6   5  -3   23.65    0.98
  -6  -5   3   22.94    1.17
  -6  -5   3   23.86    1.34
  -6  -5   3   23.36    1.56
   5   5  -3   59.01    1.85
  -5  -5   3   59.46    2.30
  -5  -5   3   60.31    2.60
  -5  -5   3   57.94    2.09
   4   5  -3   60.57    1.83
  -4  -5   3   58.25    2.20
  -4  -5   3   58.15    2.03
  -4  -5   3   58.49    2.48
   3   5  -3    0.68    0.18
   3   5  -3    0.63    0.37
  -3  -5   3    0.62    0.25
  -3  -5   3    0.63    0.27
  -3  -5   3    0.36    0.17
   2   5  -3    2.94    0.60
   2   5  -3    1.91    0.29
  -2  -5   3    3.04    0.48
  -2  -5   3    2.19    0.33
  -2  -5   3    2.25    0.48
   1   5  -3   21.28    1.37
   1   5  -3   21.50    0.87
  -1  -5   3   22.68    0.99
  -1  -5   3   21.51    1.24
  -1  -5   3   22.58    1.13
   0   5  -3    5.18    0.39
   0   5  -3    6.77    0.90
   0  -5   3    5.60    0.64
   0  -5   3    4.59    0.65
   0  -5   3    5.73    0.47
  -1   5  -3    1.63    0.47
   1  -5   3    1.75    0.32
   1  -5   3    1.18    0.37
   1  -5   3    1.96    0.41
  -2   5  -3    0.63    0.36
   2  -5   3    0.93    0.36
   2  -5   3    0.44    0.20
   2  -5   3    0.42    0.21
  -3   5  -3    9.82    1.23
   3  -5   3   11.67    1.23
   3  -5   3    8.52    0.67
   3  -5   3    9.70    0.78
  -4   5  -3   34.46    2.04
   4  -5   3   38.87    2.08
   4  -5   3   37.45    1.78
   4  -5   3   36.62    1.60
  -5   5  -3    4.93    0.89
   5  -5   3    6.90    1.07
   5  -5   3    6.38    0.85
   5  -5   3    6.60    0.73
   6  -5   3   20.18    1.17
   7  -5   3   18.21    1.14
   7   4  -3    4.85    0.47
  -7  -4   3    5.14    0.71
  -7  -4   3    3.52    0.79
  -7  -4   3    3.54    0.51
   6   4  -3    0.57    0.20
  -6  -4   3    1.53    0.39
  -6  -4   3    1.02    0.29
  -6  -4   3    0.76    0.35
   5   4  -3    1.63    0.26
  -5  -4   3    0.70    0.34
  -5  -4   3    1.54    0.31
  -5  -4   3    1.55    0.35
   4   4  -3    6.71    0.85
   4   4  -3    7.09    0.43
  -4  -4   3    5.88    0.47
  -4  -4   3    5.17    0.70
  -4  -4   3    5.69    0.62
   3   4  -3   35.39    1.72
   3   4  -3   34.49    1.14
  -3  -4   3   34.41    1.59
  -3  -4   3   33.64    1.27
  -3  -4   3   34.32    1.42
   2   4  -3   35.71    1.15
   2   4  -3   37.08    1.74
  -2  -4   3   35.38    1.28
  -2  -4   3   37.55    1.44
  -2  -4   3   34.41    1.56
   1   4  -3   98.39    3.23
   1   4  -3   89.52    2.67
   1   4  -3   96.49    2.60
   1   4  -3   98.66    3.46
  -1  -4   3   95.43    2.94
  -1  -4   3   99.15    2.83
  -1  -4   3   99.83    3.27
  -1  -4   3   97.10    3.29
   0   4  -3   43.20    1.93
   0   4  -3   44.08    1.70
   0  -4   3   43.23    1.81
   0  -4   3   44.82    1.82
   0  -4   3   42.60    1.48
   0  -4   3   46.43    1.64
  -1   4  -3   24.62    1.13
  -1   4  -3   27.16    0.97
  -1   4  -3   22.48    1.33
   1  -4   3   24.53    1.31
   1  -4   3   23.42    1.11
   1  -4   3   24.08    1.01
   1  -4   3   25.31    1.27
  -2   4  -3   49.69    1.90
  -2   4  -3   47.55    2.15
   2  -4   3   48.65    2.06
   2  -4   3   48.44    2.11
   2  -4   3   47.72    1.70
   2  -4   3   49.99    1.86
  -3   4  -3  105.06    3.97
   3  -4   3  112.61    3.93
   3  -4   3  112.59    3.34
   3  -4   3  105.71    3.45
   3  -4   3  110.17    3.89
  -4   4  -3   37.89    1.18
  -4   4  -3   34.81    1.92
   4  -4   3   37.17    1.68
   4  -4   3   37.00    1.52
   4  -4   3   36.19    1.90
   4  -4   3   37.16    1.49
   4  -4   3   37.63    1.95
  -5   4  -3   30.25    1.04
  -5   4  -3   31.15    1.84
   5  -4   3   31.35    1.57
   5  -4   3   28.68    1.33
   5  -4   3   28.11    1.77
   5  -4   3   29.08    1.36
  -6   4  -3   71.77    3.37
  -6   4  -3   80.09    2.31
   6  -4   3   79.20    2.99
   6  -4   3   76.40    2.72
   6  -4   3   76.58    2.65
   6  -4   3   79.74    3.46
   7  -4   3   38.58    1.74
   7  -4   3   40.24    1.76
   8  -4   3   19.70    1.18
   8  -4   3   19.93    1.24
   7   3  -3   13.42    0.68
  -7  -3   3   14.60    0.88
  -7  -3   3   12.58    1.34
  -7  -3   3   13.72    0.95
  -7  -3   3   14.42    1.00
   6   3  -3   49.34    1.57
  -6  -3   3   50.77    1.83
  -6  -3   3   50.47    2.00
  -6  -3   3   48.55    2.32
  -6  -3   3   50.85    1.96
   5   3  -3   62.62    2.54
   5   3  -3   61.42    1.81
  -5  -3   3   60.86    2.04
  -5  -3   3   64.11    2.55
  -5  -3   3   62.32    2.21
  -5  -3   3   60.74    2.16
   4   3  -3  109.73    3.81
   4   3  -3  110.83    2.92
  -4  -3   3  107.60    3.32
  -4  -3   3  109.77    3.20
  -4  -3   3  114.09    3.76
  -4  -3   3  111.20    3.29
   3   3  -3   25.30    0.85
   3   3  -3   25.59    1.31
  -3  -3   3   24.87    0.96
  -3  -3   3   24.72    1.08
  -3  -3   3   25.48    1.25
   2   3  -3  205.66    5.12
   2   3  -3  201.16    6.32
   2   3  -3  209.62    5.18
   2   3  -3  208.19    6.26
  -2  -3   3  209.35    6.10
  -2  -3   3  217.88    6.24
  -2  -3   3  208.85    5.51
  -2  -3   3  202.71    5.56
   1   3  -3  244.89    7.20
   1   3  -3  248.30    6.03
   1   3  -3  251.62    7.39
  -1  -3   3  245.37    7.08
  -1  -3   3  253.44    6.45
  -1  -3   3  249.94    7.23
  -1  -3   3  235.96    6.46
   0   3  -3   44.89    1.35
   0   3  -3   48.35    1.68
   0   3  -3   46.63    1.33
   0   3  -3   44.56    1.85
   0  -3   3   45.59    1.43
   0  -3   3   47.71    1.58
   0  -3   3   45.76    1.78
   0  -3   3   47.93    1.76
  -1   3  -3   34.70    1.10
  -1   3  -3   32.76    1.55
  -1   3  -3   36.26    1.37
  -1   3  -3   36.65    1.14
  -1   3  -3   36.90    1.24
   1  -3   3   35.46    1.54
   1  -3   3   37.24    1.35
   1  -3   3   35.67    1.47
   1  -3   3   35.05    1.19
  -2   3  -3  107.80    3.75
  -2   3  -3  112.04    3.50
  -2   3  -3  113.65    2.93
  -2   3  -3  112.89    3.11
   2  -3   3  106.87    3.63
   2  -3   3  108.39    3.07
   2  -3   3  111.69    3.16
   2  -3   3  109.69    3.68
   2  -3   3  107.76    3.26
  -3   3  -3   26.93    1.24
  -3   3  -3   26.70    0.98
  -3   3  -3   25.93    1.42
  -3   3  -3   30.56    1.13
   3  -3   3   26.71    1.10
   3  -3   3   26.30    1.42
   3  -3   3   26.53    1.22
   3  -3   3   26.25    1.37
   3  -3   3   27.74    1.12
   3  -3   3   28.12    1.13
  -4   3  -3    0.30    0.26
  -4   3  -3    0.03    0.13
  -4   3  -3    0.05    0.06
   4  -3   3    0.03    0.14
   4  -3   3    0.19    0.22
   4  -3   3    0.04    0.15
   4  -3   3    0.02    0.12
   4  -3   3   -0.09    0.14
  -5   3  -3    2.57    0.26
  -5   3  -3    2.81    0.61
   5  -3   3    1.72    0.49
   5  -3   3    2.13    0.45
   5  -3   3    2.23    0.51
   5  -3   3    1.86    0.36
   5  -3   3    2.26    0.38
  -6   3  -3    1.41    0.48
  -6   3  -3    0.72    0.16
   6  -3   3    1.51    0.34
   6  -3   3    1.24    0.35
   6  -3   3    0.67    0.35
   6  -3   3    0.80    0.25
  -7   3  -3    0.20    0.11
  -7   3  -3   -0.03    0.30
   7  -3   3   -0.04    0.15
   7  -3   3    0.31    0.36
   7  -3   3    0.11    0.19
   8  -3   3    8.04    0.85
   8  -3   3    8.18    0.87
  -8  -2   3   16.41    1.00
   7   2  -3   14.37    0.67
  -7  -2   3   14.30    0.87
  -7  -2   3   15.67    0.98
   6   2  -3   58.74    1.73
  -6  -2   3   56.48    2.09
  -6  -2   3   56.66    1.98
  -6  -2   3   60.21    2.58
   5   2  -3   39.22    1.80
   5   2  -3   40.75    1.28
  -5  -2   3   40.17    1.88
  -5  -2   3   40.33    1.55
  -5  -2   3   42.36    1.48
   4   2  -3    7.58    0.38
   4   2  -3    7.22    0.65
  -4  -2   3    8.12    0.69
  -4  -2   3    7.42    0.46
  -4  -2   3    7.92    0.54
   3   2  -3   12.16    0.78
   3   2  -3   11.61    0.45
   3   2  -3   10.99    0.74
  -3  -2   3   10.58    0.59
  -3  -2   3   11.25    0.53
  -3  -2   3   11.92    0.76
  -3  -2   3   11.16    0.74
   2   2  -3   40.58    1.57
   2   2  -3   39.93    1.58
   2   2  -3   39.96    1.12
   2   2  -3   39.91    1.09
  -2  -2   3   41.42    1.55
  -2  -2   3   40.10    1.23
  -2  -2   3   39.63    1.35
  -2  -2   3   40.20    1.55
  -2  -2   3   38.86    1.32
   1   2  -3    0.62    0.09
   1   2  -3    0.81    0.20
   1   2  -3    0.67    0.22
   1   2  -3    0.46    0.08
  -1  -2   3    0.55    0.18
  -1  -2   3    0.44    0.16
  -1  -2   3    0.65    0.16
  -1  -2   3    0.51    0.10
   0   2  -3    8.58    0.33
   0   2  -3    8.35    0.31
   0   2  -3    8.42    0.58
   0   2  -3    8.46    0.48
   0  -2   3    9.10    0.47
   0  -2   3    8.64    0.47
   0  -2   3    7.88    0.50
   0  -2   3    8.40    0.58
   0  -2   3    8.27    0.55
   0  -2   3    8.71    0.36
  -1   2  -3   14.81    0.68
  -1   2  -3   15.42    0.52
  -1   2  -3   13.92    0.81
  -1   2  -3   15.54    0.52
   1  -2   3   15.45    0.56
   1  -2   3   15.35    0.76
   1  -2   3   14.73    0.66
   1  -2   3   15.03    0.64
   1  -2   3   13.53    0.81
   1  -2   3   16.22    0.85
  -2   2  -3   12.94    0.67
  -2   2  -3   12.57    0.57
  -2   2  -3   12.48    0.50
  -2   2  -3   13.56    0.82
   2  -2   3   13.57    0.61
   2  -2   3   13.22    0.75
   2  -2   3   13.29    0.83
   2  -2   3   12.80    0.80
   2  -2   3   13.80    0.56
   2  -2   3   13.31    0.67
  -3   2  -3   47.37    1.35
  -3   2  -3   45.90    1.45
  -3   2  -3   44.27    1.68
  -3   2  -3   42.77    1.85
   3  -2   3   45.98    1.49
   3  -2   3   47.77    2.10
   3  -2   3   42.13    1.44
   3  -2   3   44.94    1.61
   3  -2   3   42.71    1.84
   3  -2   3   43.11    1.79
  -4   2  -3   19.63    1.05
  -4   2  -3   20.34    0.64
  -4   2  -3   20.82    1.21
  -4   2  -3   21.26    0.81
  -4   2  -3   20.62    0.87
   4  -2   3   20.57    1.03
   4  -2   3   22.92    1.27
   4  -2   3   20.48    0.93
   4  -2   3   20.16    1.17
   4  -2   3   20.70    0.91
  -5   2  -3   30.65    1.65
  -5   2  -3   29.93    1.57
  -5   2  -3   32.91    1.00
   5  -2   3   31.16    1.26
   5  -2   3   32.45    1.65
   5  -2   3   31.81    1.31
   5  -2   3   32.91    1.74
   5  -2   3   30.92    1.44
  -6   2  -3   73.49    3.07
  -6   2  -3   76.77    2.13
   6  -2   3   75.62    2.70
   6  -2   3   70.50    3.09
   6  -2   3   72.54    2.51
   6  -2   3   72.89    3.01
   6  -2   3   72.88    2.40
  -7   2  -3   37.33    2.09
  -7   2  -3   37.46    1.28
   7  -2   3   38.93    2.20
   7  -2   3   37.50    1.79
   7  -2   3   38.98    1.60
   7  -2   3   36.67    1.61
  -8   2  -3   15.93    0.80
  -8   2  -3   15.32    1.39
   8  -2   3   17.09    1.04
   8  -2   3   15.66    1.00
   9  -2   3   35.99    1.74
   9  -2   3   41.10    1.80
   8   1  -3    5.13    0.38
  -8  -1   3    5.71    0.73
  -8  -1   3    5.61    0.64
   7   1  -3    0.24    0.14
  -7  -1   3    0.35    0.21
  -7  -1   3    0.42    0.22
   6   1  -3    0.47    0.14
  -6  -1   3    0.38    0.19
  -6  -1   3    0.30    0.18
   5   1  -3   15.61    0.98
   5   1  -3   14.87    0.60
  -5  -1   3   15.29    0.80
  -5  -1   3   15.69    1.05
   4   1  -3   24.32    0.77
   4   1  -3   25.23    1.29
   4   1  -3   23.01    1.15
  -4  -1   3   23.23    1.21
  -4  -1   3   24.62    1.00
   3   1  -3    1.46    0.29
   3   1  -3    1.61    0.14
   3   1  -3    2.21    0.39
  -3  -1   3    2.04    0.37
  -3  -1   3    1.44    0.20
  -3  -1   3    1.55    0.24
  -3  -1   3    1.86    0.33
   2   1  -3  119.45    3.74
   2   1  -3  126.90    3.81
  -2  -1   3  126.99    3.26
  -2  -1   3  117.51    3.78
  -2  -1   3  122.45    3.29
  -2  -1   3  122.37    3.69
  -2  -1   3  127.16    3.41
   1   1  -3   78.25    2.52
   1   1  -3   81.94    2.51
  -1  -1   3   80.89    2.25
  -1  -1   3   81.11    2.21
  -1  -1   3   81.68    2.54
  -1  -1   3   82.30    2.58
  -1  -1   3   81.87    2.48
   0   1  -3  104.09    2.91
   0   1  -3   95.85    2.95
   0  -1   3   96.09    2.60
   0  -1   3   98.11    2.62
   0  -1   3   97.08    2.92
  -1   1  -3  318.23    9.00
  -1   1  -3  315.24    8.85
   1  -1   3  312.26    7.98
   1  -1   3  326.49    7.70
   1  -1   3  326.94    8.00
   1  -1   3  323.87    8.95
  -2   1  -3  346.83    8.26
  -2   1  -3  339.39    9.69
  -2   1  -3  344.82    9.86
   2  -1   3  343.33    9.64
   2  -1   3  349.83    9.83
   2  -1   3  357.86    9.97
   2  -1   3  343.93    8.77
   2  -1   3  354.30    8.79
   2  -1   3  361.13    8.74
   2  -1   3  343.15    8.41
  -3   1  -3  227.22    6.73
  -3   1  -3  227.57    5.78
  -3   1  -3  221.33    5.52
  -3   1  -3  227.97    6.57
   3  -1   3  217.94    5.96
   3  -1   3  231.06    5.93
   3  -1   3  232.01    6.83
   3  -1   3  224.89    5.66
   3  -1   3  227.74    6.70
   3  -1   3  233.56    6.65
  -4   1  -3   53.70    1.55
  -4   1  -3   54.32    1.65
  -4   1  -3   53.81    1.99
  -4   1  -3   49.22    2.06
   4  -1   3   53.03    2.09
   4  -1   3   54.04    1.86
   4  -1   3   55.62    2.17
   4  -1   3   53.69    1.74
   4  -1   3   53.87    2.21
   4  -1   3   53.23    1.94
  -5   1  -3  164.66    4.32
  -5   1  -3  158.59    4.10
  -5   1  -3  160.22    4.10
  -5   1  -3  165.14    5.05
  -5   1  -3  154.29    5.14
   5  -1   3  160.84    4.80
   5  -1   3  160.34    5.17
   5  -1   3  151.03    4.46
   5  -1   3  153.75    5.11
   5  -1   3  152.19    4.55
  -6   1  -3   70.19    2.82
  -6   1  -3   71.16    1.98
   6  -1   3   67.29    2.33
   6  -1   3   68.72    2.48
   6  -1   3   70.73    2.25
   6  -1   3   69.15    2.80
   6  -1   3   65.52    2.85
  -7   1  -3   14.19    0.61
  -7   1  -3   14.29    1.14
   7  -1   3   13.76    0.98
   7  -1   3   11.69    1.31
   7  -1   3   13.71    0.84
   7  -1   3   14.46    0.89
  -8   1  -3   11.86    1.27
  -8   1  -3   11.27    0.57
   8  -1   3   11.26    0.81
   8  -1   3   11.82    1.44
   8  -1   3    9.18    0.75
   8  -1   3   10.91    1.09
   9  -1   3   34.35    1.65
   9  -1   3   36.74    1.66
  -8   0   3   16.69    1.08
  -8   0   3   17.83    1.03
   7   0  -3   34.62    1.15
  -7   0   3   34.06    1.47
  -7   0   3   37.69    1.59
   6   0  -3   85.01    2.31
  -6   0   3   85.55    2.77
  -6   0   3   85.04    2.70
   5   0  -3   80.79    2.18
   5   0  -3   80.94    2.92
  -5   0   3   83.61    2.59
  -5   0   3   84.98    2.55
   4   0  -3   38.17    1.60
   4   0  -3   42.89    1.79
   4   0  -3   40.45    1.11
  -4   0   3   39.57    1.41
  -4   0   3   43.24    1.39
  -4   0   3   38.09    1.88
   3   0  -3   97.65    3.15
   3   0  -3  103.99    3.30
  -3   0   3   98.53    3.18
  -3   0   3  100.47    2.81
  -3   0   3  100.40    2.95
  -3   0   3  101.67    3.33
  -3   0   3  102.49    2.78
  -3   0   3   98.65    3.20
   2   0  -3  105.17    3.23
   2   0  -3  104.56    3.16
  -2   0   3  103.21    3.16
  -2   0   3  103.76    3.18
  -2   0   3  102.41    2.81
  -2   0   3  104.91    2.92
  -2   0   3  107.54    3.39
  -2   0   3  111.14    3.32
   1   0  -3   34.71    1.11
   1   0  -3   34.97    1.13
  -1   0   3   33.18    1.20
  -1   0   3   35.53    1.04
  -1   0   3   34.83    1.21
  -1   0   3   34.88    1.18
  -1   0   3   33.59    0.99
   0   0   3   26.35    0.90
   0   0   3   25.23    0.86
   0   0   3   26.27    0.73
   0   0   3   25.83    0.86
   0   0   3   25.13    0.71
   1   0   3  106.62    3.03
   1   0   3  102.37    3.09
   1   0   3  106.35    2.66
   1   0   3  107.12    3.02
   1   0   3  107.19    2.66
  -2   0  -3   78.29    2.37
  -2   0  -3   81.54    2.31
   2   0   3   81.04    2.10
   2   0   3   76.58    2.41
   2   0   3   76.47    2.13
   2   0   3   80.03    1.99
  -3   0  -3    2.28    0.27
  -3   0  -3    1.10    0.12
  -3   0  -3    1.59    0.25
   3   0   3    1.96    0.28
   3   0   3    1.93    0.22
   3   0   3    1.84    0.15
   3   0   3    2.04    0.33
   3   0   3    2.11    0.26
   3   0   3    1.41    0.17
   3   0   3    1.99    0.26
  -4   0  -3   83.49    2.87
  -4   0  -3   86.90    2.85
  -4   0  -3   89.02    2.28
  -4   0  -3   90.14    2.40
   4   0   3   88.57    2.73
   4   0   3   85.21    2.36
   4   0   3   83.34    2.60
   4   0   3   86.87    2.97
   4   0   3   87.62    2.50
   4   0   3   82.54    2.90
   4   0   3   84.95    3.02
  -5   0  -3    0.81    0.17
  -5   0  -3    0.61    0.15
  -5   0  -3    1.24    0.12
  -5   0  -3    1.02    0.31
  -5   0  -3    1.18    0.30
   5   0   3    0.31    0.24
   5   0   3    0.75    0.20
   5   0   3    0.78    0.29
   5   0   3    0.61    0.23
   5   0   3    0.84    0.21
   5   0   3    0.59    0.21
  -6   0  -3    9.50    0.77
  -6   0  -3    8.18    0.89
  -6   0  -3    7.91    0.37
   6   0   3    8.00    0.55
   6   0   3    7.18    0.84
   6   0   3   10.50    0.74
   6   0   3    8.63    0.98
   6   0   3    9.25    0.95
   6   0   3    8.79    0.61
  -7   0  -3    4.79    0.74
  -7   0  -3    5.79    0.35
   7   0   3    8.02    1.07
   7   0   3    6.48    0.63
   7   0   3    6.15    0.84
   7   0   3    5.66    0.83
   7   0   3    5.71    0.62
   7   0   3    4.67    0.64
  -8   0  -3    0.93    0.18
  -8   0  -3    0.74    0.39
   8   0   3    0.93    0.30
   8   0   3    1.19    0.48
   8   0   3    0.85    0.29
   8   0   3    0.77    0.34
   9   0   3   13.43    0.94
   9   0   3   12.37    0.92
  10   0   3   10.97    1.03
  10   0   3   10.81    1.03
   8  -1  -3    0.56    0.41
  -8   1   3    0.83    0.32
  -8   1   3    1.31    0.38
   7  -1  -3   54.98    2.32
  -7   1   3   54.64    2.03
  -7   1   3   54.14    2.09
   6  -1  -3   17.00    1.08
  -6   1   3   16.64    0.91
  -6   1   3   17.47    0.95
   5  -1  -3    1.51    0.36
   5  -1  -3    0.97    0.30
  -5   1   3    1.48    0.30
  -5   1   3    1.53    0.29
   4  -1  -3    6.44    0.53
   4  -1  -3    7.91    0.58
   4  -1  -3    7.11    0.63
  -4   1   3    6.03    0.44
  -4   1   3    5.71    0.41
   3  -1  -3   29.73    1.21
   3  -1  -3   32.54    1.34
   3  -1  -3   30.45    1.21
  -3   1   3   32.83    1.05
  -3   1   3   32.45    1.38
  -3   1   3   32.68    1.22
  -3   1   3   31.05    1.41
  -3   1   3   29.77    1.09
   2  -1  -3    8.55    0.47
   2  -1  -3    7.91    0.47
   2  -1  -3    8.12    0.43
  -2   1   3    8.38    0.56
  -2   1   3    9.31    0.47
  -2   1   3    8.73    0.55
  -2   1   3    8.27    0.40
   1  -1  -3    0.17    0.09
  -1   1   3    0.13    0.10
  -1   1   3    0.09    0.10
  -1   1   3    0.24    0.08
  -1   1   3    0.13    0.11
  -1   1   3    0.17    0.06
  -1   1   3    0.28    0.11
   0   1   3    0.27    0.07
   0   1   3    0.33    0.07
   2   1   3  146.02    4.04
   2   1   3  144.67    3.97
   2   1   3  138.16    3.56
   2   1   3  142.94    3.52
   2   1   3  138.54    4.03
  -3  -1  -3   31.40    1.11
  -3  -1  -3   31.32    1.12
  -3  -1  -3   32.93    1.13
   3   1   3   32.25    1.19
   3   1   3   26.81    1.26
   3   1   3   30.36    1.07
   3   1   3   30.38    1.04
   3   1   3   32.53    0.92
   3   1   3   32.40    0.97
  -4  -1  -3    0.83    0.22
  -4  -1  -3    0.51    0.11
  -4  -1  -3    0.17    0.12
  -4  -1  -3    0.48    0.17
  -4  -1  -3    0.55    0.11
   4   1   3    1.20    0.20
   4   1   3    0.19    0.15
   4   1   3    0.67    0.21
   4   1   3    0.51    0.18
   4   1   3    0.85    0.19
   4   1   3    1.15    0.24
  -5  -1  -3  150.63    3.88
  -5  -1  -3  152.56    4.78
  -5  -1  -3  155.01    4.04
  -5  -1  -3  149.45    4.73
   5   1   3  151.50    3.97
   5   1   3  154.42    4.82
   5   1   3  150.02    4.30
   5   1   3  148.89    4.76
   5   1   3  153.48    4.23
   5   1   3  153.07    5.07
   5   1   3  151.89    4.44
  -6  -1  -3   92.05    2.51
  -6  -1  -3   93.92    2.71
  -6  -1  -3   92.14    3.32
  -6  -1  -3   96.61    2.70
  -6  -1  -3   88.21    3.25
   6   1   3   91.81    2.69
   6   1   3   95.18    3.06
   6   1   3   95.23    3.36
   6   1   3   97.64    3.45
   6   1   3   92.57    2.88
   6   1   3   93.03    3.35
   6   1   3   90.48    2.96
  -7  -1  -3   63.47    1.82
  -7  -1  -3   63.30    2.55
   7   1   3   60.33    2.17
   7   1   3   60.98    2.30
   7   1   3   59.97    2.58
   7   1   3   62.85    2.06
   7   1   3   62.70    2.73
  -8  -1  -3   68.00    2.04
  -8  -1  -3   70.00    2.88
   8   1   3   72.20    3.17
   8   1   3   67.09    2.59
   8   1   3   65.81    2.44
   8   1   3   68.84    2.32
  -9  -1  -3   61.79    3.06
   9   1   3   73.85    2.52
   9   1   3   74.51    2.63
  10   1   3   20.17    1.19
  10   1   3   16.07    1.11
   7  -2  -3   -0.02    0.28
  -7   2   3    0.92    0.30
  -7   2   3    0.32    0.25
   6  -2  -3    6.84    0.81
  -6   2   3    7.34    0.73
  -6   2   3    6.54    0.66
   5  -2  -3   38.22    1.69
   5  -2  -3   40.77    1.71
  -5   2   3   39.42    1.52
  -5   2   3   39.58    1.50
   4  -2  -3   31.91    1.38
   4  -2  -3   31.12    1.36
   4  -2  -3   33.19    1.52
  -4   2   3   31.03    1.20
  -4   2   3   30.80    1.21
   3  -2  -3  100.69    3.24
   3  -2  -3  103.30    3.19
   3  -2  -3  105.12    3.39
  -3   2   3  104.26    3.55
  -3   2   3  105.92    3.20
  -3   2   3  109.26    2.92
  -3   2   3  106.97    3.47
  -3   2   3  100.60    2.92
   2  -2  -3  159.24    4.63
   2  -2  -3  164.40    4.53
   2  -2  -3  168.03    4.73
  -2   2   3  160.95    4.28
  -2   2   3  161.09    4.91
  -2   2   3  161.61    4.75
  -2   2   3  153.24    4.19
   1  -2  -3   54.87    1.72
  -1   2   3   59.50    1.89
  -1   2   3   58.31    1.59
  -1   2   3   55.14    1.55
  -1   2   3   58.56    1.83
  -1   2   3   54.55    1.84
   0   2   3   56.28    1.62
   0   2   3   53.05    1.63
   0   2   3   56.75    1.61
   1   2   3  258.46    6.81
  -2  -2  -3  116.46    3.18
   2   2   3  118.75    3.29
   2   2   3  125.41    3.37
   2   2   3  112.59    2.99
   2   2   3  120.41    2.97
   2   2   3  120.57    3.40
   2   2   3  117.92    3.29
  -3  -2  -3   29.17    1.05
  -3  -2  -3   27.31    0.99
  -3  -2  -3   29.16    1.02
   3   2   3   29.39    1.07
   3   2   3   31.59    1.13
   3   2   3   28.57    0.97
   3   2   3   28.42    0.85
   3   2   3   29.61    0.91
   3   2   3   28.54    1.10
  -4  -2  -3  102.60    3.19
  -4  -2  -3   98.09    3.01
  -4  -2  -3   99.68    3.11
   4   2   3  102.83    3.19
   4   2   3  104.05    2.80
   4   2   3   99.17    2.87
   4   2   3   96.81    2.93
   4   2   3   98.37    3.22
   4   2   3  101.02    3.11
   4   2   3  101.08    3.26
   4   2   3  102.04    2.66
   4   2   3  105.02    3.25
  -5  -2  -3   10.90    0.68
  -5  -2  -3   10.33    0.52
  -5  -2  -3    9.37    0.47
  -5  -2  -3   11.15    0.73
   5   2   3   10.71    0.54
   5   2   3   10.51    0.77
   5   2   3    9.16    0.59
   5   2   3   10.27    0.85
   5   2   3   11.25    0.74
   5   2   3   11.05    0.58
   5   2   3    9.93    0.63
  -6  -2  -3   49.56    1.53
  -6  -2  -3   45.13    1.92
  -6  -2  -3   46.71    1.36
  -6  -2  -3   51.66    1.62
  -6  -2  -3   49.53    2.03
   6   2   3   47.75    1.59
   6   2   3   47.72    1.79
   6   2   3   48.10    1.81
   6   2   3   46.74    1.70
   6   2   3   48.09    2.03
   6   2   3   48.17    2.11
  -7  -2  -3   19.93    1.18
  -7  -2  -3   18.05    0.68
   7   2   3   17.94    0.89
   7   2   3   16.50    0.94
   7   2   3   19.26    1.31
   7   2   3   17.64    1.04
   7   2   3   19.81    1.23
  -8  -2  -3   31.88    1.10
  -8  -2  -3   31.87    1.72
   8   2   3   29.11    1.43
   8   2   3   33.83    1.61
   8   2   3   33.38    1.38
   8   2   3   33.03    1.93
  -9  -2  -3    0.81    0.40
   9   2   3    0.69    0.30
   9   2   3    0.74    0.30
  10   2   3    0.89    0.36
  10   2   3    1.28    0.38
   7  -3  -3   40.16    2.00
  -7   3   3   42.71    1.79
  -7   3   3   36.36    1.67
   6  -3  -3    5.32    0.78
  -6   3   3    4.32    0.57
  -6   3   3    5.48    0.64
   5  -3  -3   14.95    1.00
   5  -3  -3   14.43    0.95
  -5   3   3   15.66    0.86
   4  -3  -3   65.89    2.38
   4  -3  -3   64.66    2.38
  -4   3   3   68.16    2.17
  -4   3   3   66.73    2.16
   3  -3  -3  125.61    3.92
   3  -3  -3  130.70    4.00
   3  -3  -3  129.10    4.12
  -3   3   3  133.43    3.63
  -3   3   3  131.21    4.35
  -3   3   3  127.83    3.63
   2  -3  -3   26.65    1.11
   2  -3  -3   26.66    1.11
   2  -3  -3   26.50    1.05
  -2   3   3   28.13    0.87
  -2   3   3   27.67    1.06
  -2   3   3   25.15    0.96
  -2   3   3   28.89    1.29
  -2   3   3   27.83    1.28
   1  -3  -3   23.05    0.82
   1  -3  -3   22.65    0.83
  -1   3   3   22.30    0.78
  -1   3   3   21.88    1.00
  -1   3   3   23.86    1.03
  -1   3   3   22.31    0.83
   0   3   3  100.38    2.61
   0   3   3   98.79    2.65
   0   3   3  105.11    3.02
   0   3   3  100.87    2.99
   0   3   3  101.98    3.04
   1   3   3    7.62    0.39
   1   3   3    8.86    0.40
   1   3   3    7.80    0.39
   1   3   3    7.69    0.32
   1   3   3    8.19    0.32
  -2  -3  -3    1.06    0.14
  -2  -3  -3    0.99    0.13
   2   3   3    1.06    0.15
   2   3   3    1.26    0.19
   2   3   3    1.20    0.19
   2   3   3    1.13    0.14
  -3  -3  -3   32.35    1.14
  -3  -3  -3   33.50    1.20
  -3  -3  -3   32.75    1.13
   3   3   3   33.57    0.94
   3   3   3   34.63    1.25
   3   3   3   34.31    1.05
   3   3   3   31.23    1.09
   3   3   3   31.83    1.19
   3   3   3   32.77    1.21
   3   3   3   34.50    1.22
  -4  -3  -3    1.78    0.28
  -4  -3  -3    1.59    0.28
  -4  -3  -3    1.29    0.26
   4   3   3    1.08    0.25
   4   3   3    1.56    0.29
   4   3   3    1.16    0.20
   4   3   3    1.63    0.27
   4   3   3    1.59    0.22
   4   3   3    2.09    0.34
   4   3   3    1.30    0.26
  -5  -3  -3   34.15    1.40
  -5  -3  -3   33.32    1.47
  -5  -3  -3   35.55    1.20
   5   3   3   35.39    1.18
   5   3   3   33.34    1.33
   5   3   3   34.07    1.25
   5   3   3   33.43    1.48
   5   3   3   35.34    1.53
  -6  -3  -3    0.84    0.27
  -6  -3  -3    0.65    0.10
  -6  -3  -3    0.41    0.15
  -6  -3  -3    0.74    0.20
  -6  -3  -3    0.84    0.28
  -6  -3  -3    0.65    0.19
   6   3   3    0.91    0.31
   6   3   3    0.62    0.26
   6   3   3    0.43    0.17
   6   3   3    1.03    0.28
   6   3   3    0.64    0.21
  -7  -3  -3    1.27    0.18
  -7  -3  -3    1.22    0.34
   7   3   3    0.88    0.27
   7   3   3    1.14    0.33
   7   3   3    1.32    0.45
   7   3   3    1.79    0.46
   7   3   3    1.76    0.34
  -8  -3  -3   19.93    1.25
  -8  -3  -3   18.83    0.75
   8   3   3   19.16    1.09
   8   3   3   18.88    1.44
   8   3   3   17.49    0.96
   8   3   3   18.51    1.14
  -9  -3  -3   50.69    2.41
   9   3   3   51.60    2.10
   9   3   3   51.34    1.96
  10   3   3   10.01    0.95
  10   3   3    9.63    0.98
   7  -4  -3    9.02    1.10
  -7   4   3    8.16    0.86
  -7   4   3    8.25    0.86
   6  -4  -3    0.39    0.34
  -6   4   3    0.28    0.23
  -6   4   3    0.29    0.22
   5  -4  -3    5.64    0.75
  -5   4   3    4.23    0.54
  -5   4   3    6.13    0.64
   4  -4  -3   14.46    0.93
   4  -4  -3   16.71    1.03
  -4   4   3   15.83    0.87
  -4   4   3   16.65    0.87
   3  -4  -3    4.29    0.57
   3  -4  -3    4.42    0.52
   3  -4  -3    3.33    0.50
  -3   4   3    3.82    0.42
  -3   4   3    4.25    0.45
   2  -4  -3   22.44    1.05
   2  -4  -3   22.02    1.01
   2  -4  -3   23.47    1.03
  -2   4   3   22.89    0.87
  -2   4   3   23.46    0.94
  -2   4   3   23.42    1.24
  -2   4   3   21.68    1.20
   1  -4  -3    0.06    0.09
   1  -4  -3    0.16    0.10
  -1   4   3    0.17    0.08
  -1   4   3    0.29    0.16
  -1   4   3    0.00    0.16
  -1   4   3    0.15    0.10
  -1   4   3    0.05    0.07
   0  -4  -3   61.24    1.92
   0  -4  -3   59.85    1.94
   0   4   3   58.72    2.07
   0   4   3   60.90    1.77
   0   4   3   63.58    1.84
   0   4   3   62.45    2.11
  -1  -4  -3   51.06    1.68
  -1  -4  -3   50.98    1.67
   1   4   3   53.86    1.79
   1   4   3   52.61    1.55
   1   4   3   54.06    1.58
   1   4   3   54.11    1.80
  -2  -4  -3   96.41    2.93
  -2  -4  -3  100.78    2.96
   2   4   3   97.50    3.04
   2   4   3  101.90    2.67
   2   4   3   92.25    2.92
   2   4   3  101.57    2.97
   2   4   3   95.97    2.70
  -3  -4  -3   54.58    1.83
  -3  -4  -3   52.20    1.75
   3   4   3   53.46    1.62
   3   4   3   52.41    1.81
   3   4   3   53.41    1.82
   3   4   3   52.24    1.88
   3   4   3   52.96    1.68
   3   4   3   55.04    1.56
  -4  -4  -3  183.61    5.52
  -4  -4  -3  188.42    5.49
  -4  -4  -3  192.14    5.67
   4   4   3  191.31    5.53
   4   4   3  182.88    5.08
   4   4   3  186.93    4.80
   4   4   3  198.75    5.73
   4   4   3  191.53    5.08
  -5  -4  -3  106.15    3.38
  -5  -4  -3  103.86    3.52
  -5  -4  -3  107.21    3.53
  -5  -4  -3  109.79    3.01
   5   4   3  106.47    3.53
   5   4   3  104.53    3.16
   5   4   3  106.02    3.12
   5   4   3  102.64    2.90
   5   4   3  104.42    3.48
  -6  -4  -3   48.06    1.33
  -6  -4  -3   47.91    2.04
  -6  -4  -3   46.29    1.87
   6   4   3   46.01    1.59
   6   4   3   48.12    1.74
   6   4   3   48.54    2.02
   6   4   3   47.33    1.81
   6   4   3   47.11    2.04
  -7  -4  -3    5.89    0.72
  -7  -4  -3    5.04    0.31
   7   4   3    4.30    0.58
   7   4   3    5.10    0.56
   7   4   3    4.50    0.71
   7   4   3    4.76    0.58
  -8  -4  -3   54.94    2.37
   8   4   3   55.86    2.68
   8   4   3   57.97    2.29
   8   4   3   55.94    2.17
   8   4   3   54.23    1.96
   9   4   3   11.51    0.82
   9   4   3    9.97    0.84
  10   4   3   22.35    1.24
  10   4   3   19.91    1.28
   6  -5  -3   26.37    1.61
  -6   5   3   24.56    1.32
  -6   5   3   26.61    1.37
   5  -5  -3   30.86    1.66
  -5   5   3   29.60    1.41
  -5   5   3   28.82    1.39
   4  -5  -3   40.41    1.85
   4  -5  -3   39.77    1.79
   4  -5  -3   37.86    1.76
  -4   5   3   41.86    1.65
  -4   5   3   40.03    1.61
   3  -5  -3   46.04    1.91
  -3   5   3   46.29    1.72
  -3   5   3   49.57    1.75
   2  -5  -3   20.24    1.05
   2  -5  -3   19.15    1.02
  -2   5   3   20.68    0.91
  -2   5   3   21.07    0.95
   1  -5  -3   75.52    2.71
   1  -5  -3   82.96    2.76
  -1   5   3   86.63    3.03
  -1   5   3   82.55    2.49
  -1   5   3   82.99    3.01
  -1   5   3   88.85    2.48
   0  -5  -3   90.70    2.96
   0  -5  -3   92.91    2.91
   0   5   3   95.73    2.74
   0   5   3   90.31    2.65
   0   5   3   93.08    2.61
   0   5   3   94.76    3.11
   0   5   3   88.80    3.12
  -1  -5  -3   31.16    1.23
  -1  -5  -3   31.69    1.21
   1   5   3   28.39    1.08
   1   5   3   34.31    1.17
   1   5   3   30.50    1.32
   1   5   3   29.57    1.32
   1   5   3   32.22    1.05
  -2  -5  -3   15.83    0.79
  -2  -5  -3   15.50    0.77
   2   5   3   16.96    0.75
   2   5   3   17.01    0.87
   2   5   3   17.50    0.89
   2   5   3   16.12    0.66
  -3  -5  -3  113.72    3.50
  -3  -5  -3  111.71    3.56
   3   5   3  113.83    3.53
   3   5   3  112.87    3.24
   3   5   3  114.93    3.66
   3   5   3  112.01    3.18
  -4  -5  -3   74.68    2.60
  -4  -5  -3   77.15    2.23
  -4  -5  -3   74.88    2.50
   4   5   3   73.34    2.16
   4   5   3   74.67    2.65
   4   5   3   74.74    2.29
   4   5   3   70.27    2.34
  -5  -5  -3   25.04    1.24
  -5  -5  -3   21.54    1.07
   5   5   3   22.27    1.23
   5   5   3   24.07    1.12
   5   5   3   23.59    0.97
   5   5   3   23.19    1.04
   5   5   3   22.73    1.20
  -6  -5  -3   34.80    1.48
   6   5   3   30.37    1.58
   6   5   3   32.05    1.43
   6   5   3   32.52    1.25
   6   5   3   31.13    1.36
   6   5   3   30.32    1.59
  -7  -5  -3   14.90    0.99
   7   5   3   16.81    0.87
   7   5   3   18.07    1.07
   7   5   3   16.03    1.19
   7   5   3   17.08    1.01
  -8  -5  -3    2.76    0.55
   8   5   3    4.01    0.62
   8   5   3    3.86    0.79
   8   5   3    2.88    0.46
   8   5   3    3.59    0.58
   9   5   3    0.06    0.22
   9   5   3    0.02    0.20
  10   5   3    2.72    0.56
  10   5   3    2.47    0.57
   6  -6  -3   18.47    1.44
  -6   6   3   18.78    1.20
  -6   6   3   21.14    1.24
   5  -6  -3   36.95    2.00
  -5   6   3   41.83    1.82
  -5   6   3   41.96    1.81
   4  -6  -3   52.25    2.34
  -4   6   3   54.92    2.09
  -4   6   3   55.91    2.11
   3  -6  -3    1.13    0.35
  -3   6   3    0.80    0.25
  -3   6   3    0.95    0.30
   2  -6  -3   10.13    0.77
  -2   6   3   10.99    0.70
  -2   6   3    9.03    0.65
   1  -6  -3   32.64    1.49
   1  -6  -3   34.16    1.46
  -1   6   3   33.39    1.31
  -1   6   3   34.27    1.35
   0  -6  -3    4.36    0.52
   0  -6  -3    4.46    0.52
   0   6   3    4.53    0.63
   0   6   3    3.36    0.39
   0   6   3    4.24    0.45
  -1  -6  -3    0.62    0.22
  -1  -6  -3    0.51    0.19
   1   6   3    0.64    0.19
   1   6   3    0.60    0.18
   1   6   3    0.68    0.25
  -2  -6  -3    9.68    0.64
  -2  -6  -3   10.00    0.65
  -2  -6  -3    9.63    0.64
   2   6   3    8.14    0.55
   2   6   3    8.89    0.56
   2   6   3    9.77    0.73
  -3  -6  -3    2.56    0.40
  -3  -6  -3    3.13    0.41
  -3  -6  -3    2.83    0.40
   3   6   3    3.23    0.42
   3   6   3    2.83    0.37
   3   6   3    2.59    0.44
  -4  -6  -3   44.36    1.85
  -4  -6  -3   44.71    1.77
   4   6   3   46.45    1.55
   4   6   3   44.53    1.93
   4   6   3   47.28    1.71
   4   6   3   45.94    1.68
  -5  -6  -3   15.43    0.92
   5   6   3   15.41    1.04
   5   6   3   15.78    0.90
   5   6   3   17.32    0.95
   5   6   3   15.96    0.80
  -6  -6  -3    3.76    0.54
   6   6   3    4.40    0.67
   6   6   3    4.19    0.47
   6   6   3    4.82    0.61
   6   6   3    3.86    0.55
  -7  -6  -3   23.70    1.32
   7   6   3   23.24    1.12
   7   6   3   25.29    1.33
   7   6   3   24.67    1.34
   7   6   3   28.21    1.60
  -8  -6  -3   69.39    2.88
   8   6   3   69.14    3.08
   8   6   3   69.09    2.63
   8   6   3   65.10    2.64
   8   6   3   69.54    2.35
   9   6   3    9.17    0.91
   9   6   3    7.99    0.91
   5  -7  -3    1.38    0.56
  -5   7   3    0.81    0.37
  -5   7   3    0.69    0.31
  -4   7   3    5.46    0.71
  -4   7   3    5.49    0.68
  -3   7   3   22.58    1.19
  -3   7   3   22.09    1.21
   2  -7  -3   11.74    0.92
  -2   7   3   12.70    0.84
  -2   7   3   12.19    0.81
   1  -7  -3   30.85    1.55
  -1   7   3   32.58    1.41
  -1   7   3   34.49    1.42
   0  -7  -3   46.56    1.99
   0   7   3   51.28    1.86
   0   7   3   49.49    1.81
  -1  -7  -3   39.45    1.68
   1   7   3   38.46    1.51
   1   7   3   36.93    1.51
  -2  -7  -3   11.35    0.79
   2   7   3   10.79    0.71
   2   7   3   12.39    0.74
  -3  -7  -3   96.37    3.24
   3   7   3   93.44    2.97
   3   7   3   92.29    2.98
  -4  -7  -3   34.39    1.54
   4   7   3   34.24    1.45
   4   7   3   31.04    1.41
  -5  -7  -3   34.21    1.54
   5   7   3   29.14    1.40
   5   7   3   32.22    1.30
   5   7   3   31.57    1.45
  -6  -7  -3   48.77    2.12
   6   7   3   52.06    1.84
   6   7   3   47.91    2.02
   6   7   3   54.63    2.09
   6   7   3   52.61    2.29
  -7  -7  -3   53.10    2.27
   7   7   3   53.15    2.18
   7   7   3   56.46    2.53
   7   7   3   52.72    1.94
   7   7   3   50.55    2.16
   8   7   3   20.12    2.03
   8   7   3   17.03    1.14
   8   7   3   17.49    1.02
   9   7   3   16.82    1.19
   9   7   3   20.52    1.14
  -4   8   3   30.41    1.58
  -4   8   3   29.39    1.56
  -3   8   3   26.45    1.38
  -3   8   3   23.43    1.34
  -2   8   3   42.33    1.83
  -2   8   3   40.25    1.78
   1  -8  -3   92.28    3.45
  -1   8   3   91.91    3.05
  -1   8   3   87.63    3.06
   0  -8  -3   71.80    2.86
   0   8   3   76.90    2.61
   0   8   3   74.86    2.65
  -1  -8  -3   32.73    1.60
   1   8   3   28.94    1.43
   1   8   3   33.24    1.45
  -2  -8  -3   45.55    1.95
   2   8   3   43.32    1.76
   2   8   3   41.70    1.77
  -3  -8  -3   38.81    1.78
   3   8   3   38.30    1.63
   3   8   3   39.41    1.67
  -4  -8  -3    1.18    0.36
   4   8   3    1.02    0.32
   4   8   3    0.73    0.29
  -5  -8  -3    8.08    0.90
   5   8   3    7.40    0.79
   5   8   3    8.40    0.85
   5   8   3    9.22    0.88
  -6  -8  -3    5.37    0.80
   6   8   3    6.97    0.81
   6   8   3    6.16    0.85
   6   8   3    5.64    0.70
   6   8   3    6.04    0.73
   7   8   3    0.63    0.34
   7   8   3    0.45    0.28
   7   8   3    0.42    0.27
   7   8   3    0.27    0.31
   8   8   3    3.28    0.54
   8   8   3    2.11    0.52
  -3   9   3    2.80    0.60
  -3   9   3    2.61    0.52
  -2   9   3    8.68    0.90
  -2   9   3    9.52    1.02
  -1   9   3    0.13    0.25
  -1   9   3    0.08    0.20
   0   9   3    0.63    0.28
   0   9   3    0.14    0.27
   1   9   3    1.71    0.39
   1   9   3    1.93    0.48
   2   9   3    0.41    0.25
   2   9   3    0.09    0.25
   3   9   3   30.06    1.50
   3   9   3   30.76    1.55
   4   9   3    6.03    0.77
   4   9   3    5.15    0.70
   5   9   3   18.07    1.18
   5   9   3   20.00    1.20
   6   9   3   15.73    1.12
   6   9   3   14.37    1.20
   6   9   3   16.63    1.13
   7   9   3   44.20    2.04
  -1  10   3   35.23    1.80
  -1  10   3   36.80    1.86
   0  10   3   10.89    1.13
   0  10   3   12.92    1.02
   1  10   3    9.59    1.00
   1  10   3   10.43    1.06
   2  10   3   56.55    2.43
   2  10   3   59.91    2.41
   3  10   3   60.82    2.47
   3  10   3   57.74    2.44
   4  10   3   24.66    1.47
   4  10   3   23.80    1.41
   5  10   3   31.59    1.74
   5  10   3   36.07    1.78
   6  10   3   39.49    1.97
   2  11   3   15.72    1.23
   2  11   3   14.40    1.14
   3  11   3    5.67    0.82
   3   7  -4   12.72    0.66
  -3  -7   4   12.68    1.22
  -3  -7   4   13.16    0.92
  -3  -7   4   10.10    1.16
   2   7  -4   12.01    0.65
  -2  -7   4   12.79    1.23
  -2  -7   4   13.39    0.92
  -2  -7   4   13.46    1.15
   1   7  -4   17.13    0.79
  -1  -7   4   14.94    1.22
  -1  -7   4   14.59    1.13
  -1  -7   4   16.12    1.04
   0   7  -4   11.69    0.67
   0  -7   4   10.87    1.10
   0  -7   4   10.85    1.17
   0  -7   4   11.43    0.87
  -1   7  -4   72.02    2.27
   1  -7   4   70.86    3.11
   1  -7   4   70.49    2.67
   1  -7   4   77.69    2.99
  -2   7  -4   13.27    0.78
   2  -7   4   12.81    0.97
   2  -7   4   13.77    1.01
   2  -7   4   14.65    1.39
   2  -7   4   12.70    1.37
   4  -7   4   20.24    1.28
   4   6  -4   37.27    1.21
  -4  -6   4   36.11    1.97
  -4  -6   4   35.87    1.77
  -4  -6   4   35.75    1.57
   3   6  -4   61.70    1.81
  -3  -6   4   60.37    2.20
  -3  -6   4   61.93    2.68
  -3  -6   4   59.11    2.40
   2   6  -4   28.97    1.04
  -2  -6   4   29.26    1.64
  -2  -6   4   29.81    1.33
  -2  -6   4   27.58    1.47
   1   6  -4   24.92    0.94
  -1  -6   4   23.41    1.34
  -1  -6   4   24.02    1.18
  -1  -6   4   23.41    1.45
   0   6  -4   83.45    2.40
   0  -6   4   85.53    3.26
   0  -6   4   83.31    3.01
   0  -6   4   79.85    2.80
  -1   6  -4   39.61    1.38
   1  -6   4   37.25    1.97
   1  -6   4   38.37    1.65
   1  -6   4   40.97    1.86
  -2   6  -4   41.17    1.48
   2  -6   4   41.67    2.15
   2  -6   4   41.30    1.77
   2  -6   4   41.51    1.95
   3  -6   4   27.58    1.75
   3  -6   4   27.57    1.57
   3  -6   4   27.00    1.40
   4  -6   4   12.01    0.94
   4  -6   4   13.83    1.55
   4  -6   4   12.77    1.25
   5  -6   4    2.29    0.49
   5   5  -4   13.52    0.55
  -5  -5   4   14.40    1.02
  -5  -5   4   14.45    0.89
  -5  -5   4   14.53    1.18
   4   5  -4   46.09    1.38
  -4  -5   4   46.17    2.19
  -4  -5   4   47.10    1.95
  -4  -5   4   45.66    1.75
   3   5  -4    9.21    0.46
  -3  -5   4    9.51    0.76
  -3  -5   4    9.04    0.64
  -3  -5   4   10.15    1.06
   2   5  -4   14.27    0.60
  -2  -5   4   13.60    0.78
  -2  -5   4   15.11    1.04
  -2  -5   4   13.42    0.90
   1   5  -4    8.43    0.45
   1   5  -4    7.47    0.94
  -1  -5   4    9.07    0.71
  -1  -5   4    7.49    0.56
  -1  -5   4    7.96    0.90
   0   5  -4    0.01    0.25
   0   5  -4    0.02    0.09
   0  -5   4    0.22    0.19
   0  -5   4   -0.07    0.11
   0  -5   4    0.04    0.18
  -1   5  -4    8.74    0.49
  -1   5  -4    7.91    1.05
   1  -5   4    8.14    0.62
   1  -5   4    9.61    0.75
   1  -5   4    9.44    1.04
  -2   5  -4    2.12    0.57
  -2   5  -4    2.53    0.34
   2  -5   4    2.93    0.44
   2  -5   4    2.36    0.48
   2  -5   4    2.14    0.50
  -3   5  -4    5.32    0.86
   3  -5   4    6.79    0.97
   3  -5   4    5.28    0.64
   3  -5   4    5.89    0.73
   3  -5   4    5.00    0.62
   4  -5   4   31.11    1.86
   4  -5   4   30.53    1.62
   4  -5   4   29.79    1.46
   5  -5   4   21.23    1.59
   5  -5   4   19.14    1.17
   5  -5   4   21.15    1.37
   6  -5   4    4.95    0.68
   7  -5   4   18.69    1.20
  -6  -4   4    5.12    0.69
  -6  -4   4    5.41    0.62
  -6  -4   4    5.55    0.88
  -5  -4   4    1.39    0.50
  -5  -4   4    0.71    0.29
  -5  -4   4    1.22    0.30
   4   4  -4   29.57    0.91
  -4  -4   4   31.55    1.28
  -4  -4   4   29.99    1.41
  -4  -4   4   33.06    1.67
   3   4  -4    7.05    0.87
   3   4  -4    7.89    0.36
  -3  -4   4    6.59    0.50
  -3  -4   4    8.39    0.78
  -3  -4   4    7.36    0.79
   2   4  -4    2.62    0.54
   2   4  -4    2.54    0.23
  -2  -4   4    2.29    0.32
  -2  -4   4    2.23    0.39
  -2  -4   4    2.92    0.50
   1   4  -4   13.28    0.99
   1   4  -4   12.71    0.51
  -1  -4   4   12.59    0.78
  -1  -4   4   13.89    0.92
  -1  -4   4   13.88    0.68
   0   4  -4   85.46    2.29
   0   4  -4   85.73    3.21
   0  -4   4   88.98    2.61
   0  -4   4   90.25    3.10
   0  -4   4   82.97    2.76
  -1   4  -4   33.53    1.06
  -1   4  -4   33.27    1.68
   1  -4   4   32.91    1.25
   1  -4   4   31.44    1.58
   1  -4   4   31.27    1.39
  -2   4  -4   32.01    1.67
  -2   4  -4   31.92    1.08
   2  -4   4   32.30    1.42
   2  -4   4   28.81    1.57
   2  -4   4   31.02    1.26
  -3   4  -4   68.53    2.91
   3  -4   4   70.99    2.90
   3  -4   4   73.02    2.59
   3  -4   4   74.35    2.43
  -4   4  -4  141.88    5.08
   4  -4   4  139.74    4.97
   4  -4   4  138.07    4.45
   4  -4   4  146.96    4.20
   4  -4   4  147.19    4.32
  -5   4  -4   43.71    2.29
   5  -4   4   41.78    1.80
   5  -4   4   45.01    2.35
   5  -4   4   46.08    1.98
   5  -4   4   45.89    2.04
   6  -4   4   28.28    1.90
   6  -4   4   27.56    1.41
   6  -4   4   28.50    1.63
   7  -4   4   46.12    2.00
  -6  -3   4   22.00    1.20
  -6  -3   4   23.98    1.55
  -6  -3   4   20.62    1.08
  -6  -3   4   22.63    1.26
  -5  -3   4   61.85    2.60
  -5  -3   4   64.36    2.24
  -5  -3   4   61.69    2.27
  -5  -3   4   59.59    2.08
   4   3  -4   96.92    3.54
  -4  -3   4   96.52    3.49
  -4  -3   4  100.33    3.15
  -4  -3   4  104.01    3.00
   3   3  -4   36.41    1.67
  -3  -3   4   33.57    1.59
  -3  -3   4   35.08    1.43
  -3  -3   4   37.77    1.30
   2   3  -4   65.71    2.47
  -2  -3   4   64.58    2.14
  -2  -3   4   62.35    2.36
  -2  -3   4   67.10    1.98
   1   3  -4   86.75    2.90
   1   3  -4   89.79    3.06
  -1  -3   4   86.05    2.47
  -1  -3   4   86.11    2.64
  -1  -3   4   84.23    2.92
   0   3  -4   55.70    2.23
   0   3  -4   58.59    1.50
   0   3  -4   59.13    2.06
   0  -3   4   60.34    1.79
   0  -3   4   59.40    2.17
   0  -3   4   59.17    2.18
   0  -3   4   59.78    1.95
  -1   3  -4   12.36    0.46
  -1   3  -4   12.30    0.85
  -1   3  -4   12.23    0.45
  -1   3  -4   11.89    0.67
   1  -3   4   12.84    0.58
   1  -3   4   13.31    0.73
   1  -3   4   11.60    0.77
   1  -3   4   12.07    0.83
  -2   3  -4   29.66    1.52
  -2   3  -4   32.91    1.01
  -2   3  -4   33.17    1.00
  -2   3  -4   32.29    1.31
   2  -3   4   30.03    1.15
   2  -3   4   31.13    1.53
   2  -3   4   33.97    1.51
   2  -3   4   32.58    1.34
   2  -3   4   31.99    1.23
  -3   3  -4   12.37    0.93
   3  -3   4   13.66    0.69
   3  -3   4   11.89    0.92
   3  -3   4   11.75    0.70
   3  -3   4   10.90    0.86
   3  -3   4   11.85    0.78
  -4   3  -4    9.18    0.99
   4  -3   4    7.34    0.90
   4  -3   4    9.47    0.64
   4  -3   4    8.70    0.63
   4  -3   4    7.77    0.78
  -5   3  -4   22.34    1.45
   5  -3   4   20.37    1.22
   5  -3   4   22.34    1.48
   5  -3   4   22.78    1.10
   5  -3   4   23.18    1.14
  -6   3  -4    3.12    0.68
   6  -3   4    4.02    0.65
   6  -3   4    3.94    0.83
   6  -3   4    3.55    0.55
   6  -3   4    3.10    0.49
   7  -3   4    9.60    0.95
   7  -3   4   10.95    1.00
   7  -3   4    8.82    1.26
   7  -3   4   10.92    1.16
   8  -3   4    4.77    0.68
  -7  -2   4    3.09    0.49
  -7  -2   4    3.71    0.58
  -6  -2   4   23.82    1.52
  -6  -2   4   22.36    1.19
  -6  -2   4   22.76    1.08
  -5  -2   4   42.50    2.01
  -5  -2   4   42.43    1.68
  -5  -2   4   43.85    1.57
   4   2  -4    0.21    0.19
  -4  -2   4    0.24    0.14
  -4  -2   4    0.54    0.19
  -4  -2   4    0.40    0.21
   3   2  -4    8.43    0.65
  -3  -2   4   10.39    0.74
  -3  -2   4    8.88    0.56
  -3  -2   4    9.02    0.58
  -3  -2   4    8.68    0.48
   2   2  -4    1.22    0.27
   2   2  -4    1.06    0.27
  -2  -2   4    1.23    0.28
  -2  -2   4    1.27    0.24
  -2  -2   4    1.47    0.20
  -2  -2   4    1.44    0.24
   1   2  -4    6.17    0.45
   1   2  -4    5.90    0.48
  -1  -2   4    5.96    0.30
  -1  -2   4    6.32    0.47
  -1  -2   4    5.33    0.45
  -1  -2   4    4.70    0.37
   0   2  -4   23.72    1.09
   0   2  -4   24.40    1.00
   0  -2   4   26.48    1.09
   0  -2   4   25.07    0.78
   0  -2   4   24.01    0.95
   0  -2   4   24.08    1.08
   0  -2   4   23.77    0.94
  -1   2  -4    0.28    0.11
  -1   2  -4    0.16    0.13
   1  -2   4    0.25    0.08
   1  -2   4    0.40    0.13
   1  -2   4    0.21    0.13
   1  -2   4    0.33    0.12
   1  -2   4    0.42    0.18
  -2   2  -4    3.95    0.34
  -2   2  -4    4.55    0.19
  -2   2  -4    4.96    0.57
  -2   2  -4    4.28    0.20
   2  -2   4    4.24    0.55
   2  -2   4    4.50    0.28
   2  -2   4    5.95    0.64
   2  -2   4    4.67    0.46
   2  -2   4    4.69    0.43
  -3   2  -4   77.68    2.87
  -3   2  -4   81.82    2.12
  -3   2  -4   79.53    2.65
   3  -2   4   82.58    2.57
   3  -2   4   78.47    2.90
   3  -2   4   85.56    2.39
   3  -2   4   82.68    2.39
   3  -2   4   80.17    2.86
  -4   2  -4   25.17    0.87
  -4   2  -4   24.10    1.34
  -4   2  -4   25.24    1.19
   4  -2   4   25.44    1.20
   4  -2   4   25.33    1.41
   4  -2   4   26.89    1.08
   4  -2   4   23.53    1.29
   4  -2   4   26.13    1.07
   4  -2   4   25.71    1.06
  -5   2  -4    0.25    0.25
   5  -2   4    0.15    0.24
   5  -2   4    0.61    0.22
   5  -2   4    0.44    0.22
   5  -2   4    0.70    0.28
  -6   2  -4   30.16    1.74
   6  -2   4   32.30    1.38
   6  -2   4   32.03    1.42
   6  -2   4   34.05    1.61
   6  -2   4   33.76    1.92
  -7   2  -4   79.86    3.34
   7  -2   4   78.08    2.65
   7  -2   4   76.39    2.75
   7  -2   4   80.90    2.99
   8  -2   4   23.57    1.48
   8  -2   4   24.62    1.30
   8  -2   4   24.25    1.32
   8  -2   4   22.02    1.78
   9  -2   4   36.29    1.76
   9  -2   4   30.65    1.62
  -7  -1   4    2.09    0.43
  -7  -1   4    2.47    0.43
  -6  -1   4    0.90    0.26
  -6  -1   4    0.39    0.21
  -5  -1   4   14.80    1.06
  -5  -1   4   14.03    0.81
   4   1  -4   36.79    1.54
  -4  -1   4   33.94    1.61
  -4  -1   4   36.34    1.35
   3   1  -4   28.55    1.28
   3   1  -4   28.80    1.22
  -3  -1   4   28.67    1.30
  -3  -1   4   26.83    1.06
  -3  -1   4   27.89    0.98
   2   1  -4   64.44    2.16
   2   1  -4   62.54    2.11
  -2  -1   4   64.33    2.17
  -2  -1   4   64.45    2.22
  -2  -1   4   62.35    1.88
  -2  -1   4   61.06    1.76
   1   1  -4  178.20    5.09
  -1  -1   4  168.50    4.55
  -1  -1   4  175.12    5.17
  -1  -1   4  181.11    4.63
  -1  -1   4  176.87    5.04
   0   1  -4   96.84    2.95
   0   1  -4  101.70    3.00
   0  -1   4  104.27    2.75
   0  -1   4   98.20    2.71
   0  -1   4  102.11    3.06
  -1   1  -4   72.06    2.24
  -1   1  -4   69.69    2.14
   1  -1   4   72.72    2.33
   1  -1   4   68.33    2.00
   1  -1   4   71.66    2.02
   1  -1   4   73.74    2.28
   1  -1   4   71.20    1.91
  -2   1  -4  197.22    5.91
  -2   1  -4  201.63    5.75
   2  -1   4  202.26    5.05
   2  -1   4  212.01    5.28
   2  -1   4  201.12    5.90
   2  -1   4  205.06    5.94
   2  -1   4  206.35    5.30
   2  -1   4  202.59    5.13
  -3   1  -4  123.90    2.98
  -3   1  -4  117.18    2.97
  -3   1  -4  121.89    3.72
  -3   1  -4  124.98    3.90
   3  -1   4  124.06    3.92
   3  -1   4  133.76    3.47
   3  -1   4  125.22    3.31
   3  -1   4  123.46    3.94
   3  -1   4  123.18    3.27
   3  -1   4  123.76    3.49
  -4   1  -4   74.37    1.97
  -4   1  -4   74.10    2.67
  -4   1  -4   73.85    2.52
   4  -1   4   73.78    2.24
   4  -1   4   75.25    2.41
   4  -1   4   74.54    2.52
   4  -1   4   72.61    2.75
   4  -1   4   74.22    2.18
   4  -1   4   78.90    2.74
  -5   1  -4   31.54    1.57
  -5   1  -4   34.13    1.08
  -5   1  -4   32.77    1.48
   5  -1   4   35.66    1.74
   5  -1   4   33.32    1.26
   5  -1   4   32.88    1.61
   5  -1   4   32.37    1.43
   5  -1   4   32.23    1.29
  -6   1  -4   41.33    1.93
   6  -1   4   41.76    1.55
   6  -1   4   40.37    1.59
   6  -1   4   40.01    1.73
   6  -1   4   38.57    2.03
  -7   1  -4   14.89    1.14
   7  -1   4   11.68    1.29
   7  -1   4   12.83    0.95
   7  -1   4   15.16    0.88
   7  -1   4   11.96    0.84
   8  -1   4    9.52    1.02
   8  -1   4    8.89    0.90
   8  -1   4   10.48    0.96
   8  -1   4   10.79    1.43
   9  -1   4    6.84    0.80
   9  -1   4    7.96    0.89
  -7   0   4   26.84    1.29
  -7   0   4   27.13    1.36
  -6   0   4   37.37    1.56
   5   0  -4   72.11    2.58
  -5   0   4   71.45    2.28
  -5   0   4   68.91    2.33
   4   0  -4   18.75    0.93
  -4   0   4   17.14    0.83
  -4   0   4   17.51    1.04
  -4   0   4   17.35    0.77
   3   0  -4   49.07    1.83
   3   0  -4   48.56    1.74
  -3   0   4   53.33    1.53
  -3   0   4   48.93    1.87
  -3   0   4   48.46    1.59
   2   0  -4   82.14    2.56
   2   0  -4   82.02    2.52
  -2   0   4   82.33    2.64
  -2   0   4   78.81    2.30
  -2   0   4   85.37    2.44
  -2   0   4   79.83    2.63
  -2   0   4   91.00    2.77
  -1   0   4  111.07    2.92
  -1   0   4  115.59    3.40
  -1   0   4  117.42    2.98
  -1   0   4  103.41    3.24
   0   0   4    0.26    0.06
   0   0   4    0.35    0.11
   0   0   4    0.66    0.15
   0   0   4    0.37    0.11
   0   0   4    0.41    0.08
   1   0   4  129.73    3.27
   1   0   4  130.54    3.69
   1   0   4  128.69    3.70
   1   0   4  127.35    3.26
   1   0   4  129.84    3.81
   2   0   4   18.28    0.83
   2   0   4   18.05    0.55
   2   0   4   18.49    0.62
   2   0   4   17.01    0.62
   2   0   4   17.15    0.80
   2   0   4   17.35    0.74
  -3   0  -4    2.10    0.24
  -3   0  -4    2.73    0.31
   3   0   4    1.77    0.22
   3   0   4    1.94    0.38
   3   0   4    2.14    0.32
   3   0   4    2.45    0.37
   3   0   4    2.37    0.24
   3   0   4    1.93    0.26
  -4   0  -4    6.70    0.51
  -4   0  -4    7.70    0.50
  -4   0  -4    6.35    0.27
   4   0   4    6.30    0.39
   4   0   4    6.76    0.37
   4   0   4    6.82    0.51
   4   0   4    7.19    0.57
   4   0   4    6.33    0.47
   4   0   4    7.63    0.79
  -5   0  -4    0.72    0.24
  -5   0  -4    0.49    0.21
  -5   0  -4    0.73    0.14
   5   0   4    0.56    0.22
   5   0   4    0.55    0.26
   5   0   4    0.46    0.18
   5   0   4    0.90    0.30
   5   0   4    0.79    0.20
  -6   0  -4    8.45    0.87
   6   0   4    6.47    0.50
   6   0   4    6.83    0.82
   6   0   4    6.04    0.59
   6   0   4    5.98    0.66
   6   0   4    7.64    0.92
  -7   0  -4   17.48    1.18
   7   0   4   20.10    1.05
   7   0   4   20.52    1.17
   7   0   4   18.24    0.94
   7   0   4   19.61    1.40
  -8   0  -4    0.03    0.25
   8   0   4    0.15    0.22
   8   0   4    0.43    0.38
   8   0   4    0.02    0.15
   8   0   4   -0.23    0.15
   9   0   4   12.69    0.92
   9   0   4   11.52    0.89
   9   0   4   11.37    1.23
   9   0   4   10.94    1.47
  10   0   4   28.95    1.58
  10   0   4   28.33    1.54
  -7   1   4    6.30    0.69
  -7   1   4    6.25    0.73
  -6   1   4   26.59    1.27
  -6   1   4   28.63    1.27
   5  -1  -4    0.05    0.20
   5  -1  -4    0.02    0.15
  -5   1   4    0.13    0.14
  -5   1   4    0.09    0.16
   4  -1  -4    0.05    0.12
   4  -1  -4    0.07    0.17
  -4   1   4    0.19    0.11
  -4   1   4   -0.03    0.09
   3  -1  -4    0.02    0.08
   3  -1  -4    0.05    0.10
   3  -1  -4    0.15    0.14
  -3   1   4   -0.03    0.07
  -3   1   4   -0.01    0.06
   2  -1  -4    3.95    0.23
  -2   1   4    3.75    0.26
  -2   1   4    3.91    0.43
  -2   1   4    3.78    0.45
  -2   1   4    3.54    0.35
  -1   1   4   41.81    1.20
  -1   1   4   42.37    1.38
  -1   1   4   44.29    1.47
  -1   1   4   41.32    1.40
  -1   1   4   39.19    1.17
   0   1   4    0.96    0.14
   0   1   4    1.02    0.14
   0   1   4    0.93    0.13
   0   1   4    1.08    0.14
   1   1   4   25.06    0.80
   2   1   4  110.64    3.12
   2   1   4  105.67    3.12
   2   1   4  108.45    2.70
   2   1   4  112.39    3.18
   2   1   4  107.96    2.69
  -3  -1  -4  152.89    4.30
  -3  -1  -4  151.66    4.29
   3   1   4  153.07    4.00
   3   1   4  154.97    4.51
   3   1   4  154.00    3.74
   3   1   4  153.56    3.91
  -4  -1  -4  100.80    3.17
  -4  -1  -4   98.29    3.18
   4   1   4  105.59    3.35
   4   1   4  106.63    2.85
   4   1   4  105.97    2.99
   4   1   4  106.22    2.73
   4   1   4  104.26    3.35
   4   1   4  105.95    2.78
   4   1   4  103.75    3.07
  -5  -1  -4   92.26    3.11
  -5  -1  -4   95.65    2.46
  -5  -1  -4   92.82    3.12
   5   1   4   92.89    3.28
   5   1   4   98.51    2.79
   5   1   4   96.20    2.91
   5   1   4   94.09    3.25
   5   1   4   97.62    2.64
   5   1   4   98.20    2.99
  -6  -1  -4  223.60    6.79
  -6  -1  -4  221.59    5.68
  -6  -1  -4  227.80    6.82
   6   1   4  221.99    5.76
   6   1   4  226.24    6.13
   6   1   4  222.26    6.20
   6   1   4  227.15    6.93
   6   1   4  221.16    6.93
  -7  -1  -4   35.48    1.69
   7   1   4   35.44    1.58
   7   1   4   34.13    1.35
   7   1   4   37.34    1.94
   7   1   4   32.67    1.43
  -8  -1  -4   43.75    2.06
   8   1   4   44.07    1.92
   8   1   4   44.62    1.68
   8   1   4   39.46    1.73
   8   1   4   39.81    2.27
   9   1   4   37.55    2.35
   9   1   4   41.49    1.73
   9   1   4   38.10    1.78
   9   1   4   42.00    1.97
  10   1   4   18.51    1.20
  10   1   4   17.62    1.29
   7  -2  -4   12.90    1.24
  -7   2   4   11.39    0.87
  -7   2   4   13.90    0.91
   6  -2  -4   34.81    1.66
  -6   2   4   33.63    1.49
  -6   2   4   35.41    1.48
   5  -2  -4   68.81    2.53
   5  -2  -4   71.94    2.55
  -5   2   4   70.72    2.35
  -5   2   4   70.52    2.33
   4  -2  -4   18.03    0.91
   4  -2  -4   19.00    1.01
  -4   2   4   19.96    0.90
   3  -2  -4  123.87    3.71
   3  -2  -4  121.68    3.69
   3  -2  -4  124.15    3.80
  -3   2   4  123.79    3.44
  -3   2   4  127.31    3.38
   2  -2  -4  255.39    6.84
  -2   2   4  250.66    7.42
  -2   2   4  246.37    6.43
  -2   2   4  256.85    7.20
  -2   2   4  254.53    6.52
   1  -2  -4  122.61    3.38
  -1   2   4  121.54    3.13
  -1   2   4  126.92    3.18
  -1   2   4  114.96    3.56
  -1   2   4  124.53    3.69
   0  -2  -4   30.16    0.89
   0   2   4   29.40    0.97
  -2  -2  -4   91.06    2.52
   2   2   4   91.96    2.59
   2   2   4   96.62    2.61
  -3  -2  -4   45.78    1.46
   3   2   4   46.23    1.55
   3   2   4   47.46    1.57
   3   2   4   48.61    1.56
   3   2   4   47.38    1.30
   3   2   4   43.51    1.35
  -4  -2  -4   58.04    1.92
  -4  -2  -4   59.60    1.92
  -4  -2  -4   57.14    1.87
   4   2   4   60.34    1.71
   4   2   4   58.31    2.05
   4   2   4   59.13    1.82
   4   2   4   61.51    2.07
   4   2   4   57.08    1.62
   4   2   4   57.79    1.58
  -5  -2  -4   75.11    2.54
  -5  -2  -4   78.05    2.55
  -5  -2  -4   79.35    2.64
   5   2   4   76.38    2.73
   5   2   4   78.64    2.72
   5   2   4   80.24    2.74
   5   2   4   76.11    2.17
   5   2   4   80.60    2.30
   5   2   4   73.39    2.41
   5   2   4   75.93    2.41
  -6  -2  -4   21.46    1.16
  -6  -2  -4   20.78    1.08
  -6  -2  -4   20.86    0.78
   6   2   4   22.40    1.21
   6   2   4   21.50    1.07
   6   2   4   20.43    1.17
   6   2   4   22.14    0.97
   6   2   4   23.34    1.30
   6   2   4   21.98    0.91
  -7  -2  -4   10.02    0.79
   7   2   4   11.08    0.96
   7   2   4    7.92    0.59
   7   2   4    9.65    0.68
   7   2   4    9.52    0.75
  -8  -2  -4   27.36    1.51
   8   2   4   27.51    1.43
   8   2   4   26.57    1.72
   8   2   4   26.30    1.30
   9   2   4   -0.05    0.22
   9   2   4    0.04    0.20
   9   2   4   -0.29    0.34
   9   2   4    0.13    0.27
  10   2   4    5.33    0.75
   7  -3  -4   34.37    1.84
  -7   3   4   36.76    1.66
  -7   3   4   36.47    1.67
   6  -3  -4  114.82    3.93
  -6   3   4  113.23    3.61
  -6   3   4  116.73    3.64
   5  -3  -4   17.45    1.08
  -5   3   4   15.64    0.89
   4  -3  -4   47.24    1.89
   4  -3  -4   47.85    1.80
  -4   3   4   49.34    1.69
  -4   3   4   48.28    1.71
   3  -3  -4   59.33    2.11
   3  -3  -4   59.98    2.08
   3  -3  -4   60.55    2.00
  -3   3   4   63.14    1.85
  -3   3   4   58.35    1.92
   2  -3  -4   89.17    2.77
   2  -3  -4   90.87    2.66
   2  -3  -4   89.38    2.63
  -2   3   4   89.46    2.98
  -2   3   4   92.73    3.10
  -2   3   4   88.49    2.54
  -2   3   4   88.90    2.63
   1  -3  -4   26.27    0.98
  -1   3   4   26.37    1.10
  -1   3   4   25.57    0.85
  -1   3   4   26.10    0.89
  -1   3   4   25.12    1.09
   0   3   4   12.82    0.55
   0   3   4   11.56    0.57
   0   3   4   13.29    0.42
   0   3   4   12.72    0.40
   0   3   4   12.82    0.56
   1   3   4   11.66    0.44
   1   3   4   11.23    0.46
   1   3   4   12.27    0.44
   2   3   4    0.01    0.06
   2   3   4    0.03    0.04
   2   3   4   -0.05    0.06
   2   3   4    0.13    0.04
   2   3   4   -0.01    0.05
  -3  -3  -4    1.34    0.19
   3   3   4    0.84    0.13
   3   3   4    0.68    0.18
   3   3   4    0.38    0.13
   3   3   4    0.68    0.17
   3   3   4    0.66    0.15
   3   3   4    0.35    0.11
  -4  -3  -4    1.39    0.24
  -4  -3  -4    1.50    0.21
  -4  -3  -4    1.51    0.24
   4   3   4    1.41    0.26
   4   3   4    1.84    0.26
   4   3   4    1.25    0.25
   4   3   4    1.91    0.14
   4   3   4    1.55    0.20
   4   3   4    1.45    0.26
   4   3   4    1.33    0.19
  -5  -3  -4   51.11    1.86
  -5  -3  -4   48.35    1.76
  -5  -3  -4   48.34    1.73
   5   3   4   49.16    1.91
   5   3   4   48.75    1.51
   5   3   4   50.35    1.58
   5   3   4   50.34    1.93
   5   3   4   48.41    1.81
   5   3   4   47.42    1.69
  -6  -3  -4   72.12    2.65
  -6  -3  -4   79.10    2.82
   6   3   4   78.13    2.91
   6   3   4   79.98    2.47
   6   3   4   82.12    2.59
   6   3   4   78.03    2.30
   6   3   4   79.94    2.88
  -7  -3  -4    1.94    0.41
   7   3   4    1.75    0.47
   7   3   4    1.92    0.35
   7   3   4    1.29    0.28
   7   3   4    1.52    0.36
  -8  -3  -4   47.22    2.14
   8   3   4   50.08    2.09
   8   3   4   52.86    1.85
   8   3   4   51.49    1.99
   8   3   4   49.32    2.45
   9   3   4   39.01    1.77
   9   3   4   39.26    1.89
   9   3   4   40.20    2.30
  10   3   4   44.77    2.00
   6  -4  -4    1.84    0.52
  -6   4   4    2.21    0.44
  -6   4   4    1.71    0.39
   5  -4  -4    0.06    0.23
  -5   4   4   -0.09    0.10
  -5   4   4   -0.07    0.16
   4  -4  -4    0.41    0.26
   4  -4  -4    0.50    0.20
  -4   4   4    0.53    0.23
  -4   4   4    0.18    0.16
   3  -4  -4   16.91    0.96
   3  -4  -4   16.39    0.81
   3  -4  -4   16.68    0.87
  -3   4   4   17.01    0.78
  -3   4   4   16.66    0.83
   2  -4  -4   31.27    1.31
   2  -4  -4   30.60    1.13
   2  -4  -4   32.82    1.18
  -2   4   4   31.36    1.17
  -1   4   4   21.25    0.82
  -1   4   4   21.70    0.88
  -1   4   4   21.84    1.08
  -1   4   4   22.47    1.08
   0   4   4  108.29    2.91
   0   4   4  111.19    2.98
   0   4   4  111.22    3.35
   0   4   4  109.89    3.41
   1   4   4  357.74    9.77
   1   4   4  372.09   10.06
   1   4   4  362.77    8.96
   1   4   4  350.80    8.93
   2   4   4  113.04    3.32
   2   4   4  111.71    3.26
   2   4   4  107.18    2.92
   2   4   4  113.89    2.92
   2   4   4  107.73    3.21
  -3  -4  -4   29.11    1.01
  -3  -4  -4   30.58    1.05
   3   4   4   29.93    1.13
   3   4   4   30.52    1.17
   3   4   4   30.21    1.03
   3   4   4   30.34    0.99
  -4  -4  -4  123.69    3.65
  -4  -4  -4  127.93    3.84
  -4  -4  -4  126.50    3.74
   4   4   4  127.01    3.79
   4   4   4  132.04    3.97
   4   4   4  129.48    3.84
   4   4   4  121.99    3.27
   4   4   4  131.06    3.38
   4   4   4  129.89    3.44
   4   4   4  121.81    3.50
   4   4   4  122.18    3.39
  -5  -4  -4  205.78    6.05
  -5  -4  -4  197.90    5.88
  -5  -4  -4  201.03    5.72
   5   4   4  202.31    5.48
   5   4   4  204.84    5.43
   5   4   4  204.72    6.12
   5   4   4  202.32    5.14
   5   4   4  194.26    5.96
  -6  -4  -4   49.63    1.87
  -6  -4  -4   48.32    2.01
   6   4   4   50.33    2.06
   6   4   4   51.84    1.76
   6   4   4   50.57    1.64
   6   4   4   47.17    2.05
   6   4   4   49.05    1.84
  -7  -4  -4   38.94    1.70
   7   4   4   40.41    1.69
   7   4   4   39.79    1.60
   7   4   4   38.76    1.94
   7   4   4   39.08    1.46
  -8  -4  -4   50.95    2.20
   8   4   4   55.03    2.59
   8   4   4   51.91    2.04
   8   4   4   53.61    2.17
   9   4   4   27.81    1.46
   9   4   4   29.03    1.95
   9   4   4   29.85    1.60
  10   4   4    7.59    0.92
   6  -5  -4   35.86    1.90
  -6   5   4   33.35    1.61
  -6   5   4   34.79    1.64
   5  -5  -4   10.70    1.12
  -5   5   4    8.35    0.81
  -5   5   4    8.50    0.84
   4  -5  -4   59.50    2.41
  -4   5   4   60.64    2.18
  -4   5   4   60.96    2.17
   3  -5  -4   68.60    2.34
   3  -5  -4   64.14    2.44
  -3   5   4   66.42    2.22
  -3   5   4   64.41    2.17
   2  -5  -4   81.01    2.63
   2  -5  -4   82.76    2.66
  -2   5   4   81.94    2.43
  -2   5   4   77.83    2.48
   1  -5  -4   17.31    0.76
   1  -5  -4   16.72    0.75
   1  -5  -4   16.82    0.74
  -1   5   4   17.37    1.03
  -1   5   4   17.54    0.79
  -1   5   4   16.90    0.64
   0  -5  -4  216.59    6.00
   0  -5  -4  209.48    6.01
   0   5   4  201.97    5.52
   0   5   4  215.27    6.23
   0   5   4  210.35    6.37
   0   5   4  222.85    5.63
  -1  -5  -4  387.50   10.61
  -1  -5  -4  382.26   10.63
   1   5   4  393.28    9.72
   1   5   4  382.07   10.61
   1   5   4  379.56    9.66
   1   5   4  385.44   10.92
  -2  -5  -4   63.38    1.95
  -2  -5  -4   61.35    1.95
   2   5   4   60.72    2.12
   2   5   4   64.67    1.87
   2   5   4   61.69    1.87
   2   5   4   61.16    2.08
  -3  -5  -4   62.32    2.08
  -3  -5  -4   61.49    2.04
   3   5   4   64.79    1.91
   3   5   4   66.49    2.24
   3   5   4   61.70    1.96
   3   5   4   65.11    2.17
   3   5   4   64.74    1.77
  -4  -5  -4   55.45    1.93
  -4  -5  -4   53.77    1.83
  -4  -5  -4   55.98    1.94
   4   5   4   50.58    1.91
   4   5   4   54.56    1.66
   4   5   4   51.34    1.78
   4   5   4   53.85    2.03
  -5  -5  -4   21.44    1.07
  -5  -5  -4   19.13    0.93
  -5  -5  -4   20.54    1.05
   5   5   4   20.56    1.08
   5   5   4   19.00    0.83
   5   5   4   20.07    0.98
   5   5   4   19.75    0.88
   5   5   4   19.49    1.07
  -6  -5  -4    3.70    0.47
   6   5   4    3.62    0.60
   6   5   4    3.53    0.43
   6   5   4    3.43    0.45
   6   5   4    3.23    0.46
  -7  -5  -4    6.90    0.74
   7   5   4    5.92    0.65
   7   5   4    8.05    0.93
   7   5   4    6.88    0.74
   7   5   4    7.49    0.72
  -8  -5  -4    3.80    0.59
   8   5   4    3.21    0.57
   8   5   4    3.77    0.72
   8   5   4    3.89    0.57
   9   5   4    1.74    0.48
   9   5   4    2.40    0.56
   9   5   4    1.40    0.58
  10   5   4    3.40    0.62
   5  -6  -4   23.39    1.51
  -5   6   4   23.87    1.33
  -5   6   4   25.65    1.34
   4  -6  -4   42.74    2.01
  -4   6   4   41.66    1.78
  -4   6   4   44.57    1.81
   3  -6  -4   25.09    1.24
  -3   6   4   26.31    1.22
  -3   6   4   24.09    1.18
   2  -6  -4    1.52    0.31
   2  -6  -4    1.27    0.28
  -2   6   4    1.55    0.31
  -2   6   4    1.72    0.32
   1  -6  -4    4.48    0.49
   1  -6  -4    4.11    0.45
  -1   6   4    3.34    0.41
  -1   6   4    3.80    0.42
   0  -6  -4    1.30    0.25
   0  -6  -4    1.09    0.23
   0   6   4    1.19    0.21
   0   6   4    0.76    0.20
  -1  -6  -4    0.52    0.17
  -1  -6  -4    0.69    0.19
   1   6   4    0.81    0.26
   1   6   4    0.67    0.15
   1   6   4    0.79    0.19
  -2  -6  -4    2.47    0.34
  -2  -6  -4    2.77    0.35
   2   6   4    2.80    0.36
   2   6   4    2.81    0.29
   2   6   4    3.05    0.46
  -3  -6  -4   16.54    0.81
  -3  -6  -4   16.20    0.83
   3   6   4   16.72    0.95
   3   6   4   15.53    0.79
   3   6   4   17.11    0.72
  -4  -6  -4   48.42    1.87
  -4  -6  -4   50.23    1.81
   4   6   4   49.99    1.66
   4   6   4   48.75    1.98
   4   6   4   48.48    1.75
  -5  -6  -4   59.88    2.15
   5   6   4   58.73    2.09
   5   6   4   58.47    1.93
   5   6   4   56.88    1.98
   5   6   4   61.62    2.29
  -6  -6  -4   15.27    0.89
   6   6   4   13.82    1.00
   6   6   4   15.28    0.89
   6   6   4   13.87    0.90
  -7  -6  -4   57.49    2.33
   7   6   4   59.45    2.33
   7   6   4   60.51    2.27
   7   6   4   68.85    2.71
   8   6   4   93.56    3.33
   8   6   4  102.95    3.48
   8   6   4   99.31    3.89
   9   6   4   38.76    2.24
   9   6   4   35.62    1.85
   9   6   4   34.42    1.77
  10   6   4    5.91    0.83
   5  -7  -4    1.06    0.48
  -5   7   4    1.07    0.42
  -5   7   4    0.36    0.28
   4  -7  -4    6.17    0.94
  -4   7   4    7.08    0.79
  -4   7   4    6.79    0.80
  -3   7   4   20.55    1.16
  -3   7   4   21.19    1.15
   2  -7  -4   11.83    0.82
  -2   7   4   12.53    0.82
  -2   7   4   12.57    0.82
   1  -7  -4   12.00    0.79
  -1   7   4   12.21    0.76
  -1   7   4   11.79    0.75
   0  -7  -4  101.34    3.35
   0   7   4   98.47    3.07
   0   7   4  102.90    3.10
  -1  -7  -4   44.14    1.76
   1   7   4   45.32    1.66
   1   7   4   46.26    1.63
  -2  -7  -4   17.69    0.95
  -2  -7  -4   19.12    0.96
   2   7   4   19.34    0.93
   2   7   4   19.14    0.90
  -3  -7  -4  108.37    3.59
   3   7   4  112.97    3.36
   3   7   4  112.31    3.35
  -4  -7  -4  116.08    3.74
   4   7   4  115.44    3.50
   4   7   4  113.12    3.49
  -5  -7  -4   57.46    2.22
   5   7   4   59.21    2.15
   5   7   4   61.64    2.19
  -6  -7  -4   23.79    1.26
   6   7   4   23.92    1.25
   6   7   4   24.26    1.26
   6   7   4   25.49    1.42
   7   7   4   81.82    2.98
   7   7   4   85.33    3.03
   7   7   4   88.71    3.39
   8   7   4   56.60    2.33
   8   7   4   50.21    2.55
   8   7   4   51.78    2.24
   9   7   4   15.56    1.19
   9   7   4   17.08    1.78
   4  -8  -4   52.25    2.54
  -4   8   4   56.26    2.29
  -4   8   4   50.52    2.23
  -3   8   4   38.78    1.80
  -3   8   4   38.35    1.75
  -2   8   4   32.86    1.57
  -2   8   4   36.96    1.64
  -1   8   4   52.52    2.11
  -1   8   4   59.47    2.16
   0  -8  -4   41.79    1.81
   0   8   4   39.92    1.69
   0   8   4   41.44    1.69
  -1  -8  -4   12.97    0.90
   1   8   4   13.15    0.84
   1   8   4   12.37    0.84
  -2  -8  -4   14.94    0.97
   2   8   4   18.68    0.99
   2   8   4   16.35    0.94
  -3  -8  -4   16.07    0.99
   3   8   4   15.46    0.92
   3   8   4   14.72    0.89
  -4  -8  -4   15.01    0.96
   4   8   4   14.72    0.92
   4   8   4   14.23    0.91
  -5  -8  -4    0.72    0.29
   5   8   4    0.59    0.25
   5   8   4    0.82    0.32
   6   8   4    6.36    0.78
   6   8   4    5.74    0.74
   6   8   4    6.63    0.90
   7   8   4    4.39    0.68
   7   8   4    5.71    0.76
   7   8   4    5.07    0.84
   8   8   4    4.78    0.73
   8   8   4    4.14    0.69
   8   8   4    6.49    1.06
   9   8   4    0.55    0.35
  -3   9   4    0.21    0.28
  -3   9   4   -0.03    0.20
  -2   9   4    2.14    0.48
  -2   9   4    3.09    0.61
  -1   9   4    0.01    0.23
  -1   9   4    0.29    0.23
   0   9   4    9.48    0.95
   0   9   4    9.71    0.93
   1   9   4    6.18    0.72
   1   9   4    6.75    0.79
   2   9   4    7.79    0.84
   2   9   4    6.03    0.70
   3   9   4   27.24    1.35
   3   9   4   25.34    1.35
   4   9   4   29.31    1.43
   4   9   4   27.82    1.44
   5   9   4    7.52    0.84
   5   9   4    7.03    0.81
   6   9   4   14.64    1.07
   6   9   4   15.23    1.05
   7   9   4   52.04    2.50
   7   9   4   48.11    2.19
   7   9   4   48.83    2.19
   8   9   4   21.79    1.42
  -1  10   4   26.66    1.51
  -1  10   4   27.99    1.59
   0  10   4   42.21    2.02
   0  10   4   44.60    2.01
   1  10   4   16.89    1.19
   1  10   4   15.20    1.09
   2  10   4   45.96    2.06
   2  10   4   50.79    2.18
   3  10   4   58.84    2.41
   3  10   4   63.08    2.52
   4  10   4   29.31    1.55
   4  10   4   29.91    1.61
   5  10   4   12.75    0.99
   5  10   4   10.84    1.07
   6  10   4   31.70    1.68
   6  10   4   31.68    1.72
   7  10   4    1.30    0.46
   7  10   4    0.35    0.40
   2  11   4    2.71    0.63
   2  11   4    2.80    0.59
   3  11   4    0.27    0.37
   3  11   4    0.15    0.27
   4  11   4    0.30    0.39
   4  11   4    0.14    0.26
   0   7  -5   13.36    0.60
   0  -7   5   13.08    1.33
   0  -7   5   14.40    1.25
   0  -7   5   13.13    0.98
  -1   7  -5   21.23    0.86
   1  -7   5   21.26    1.30
   1  -7   5   23.61    1.61
  -2   7  -5   36.07    1.27
   2  -7   5   37.20    1.82
   2  -7   5   32.39    1.72
   2  -7   5   34.63    2.08
  -3  -6   5   59.31    2.49
  -3  -6   5   60.05    2.72
  -3  -6   5   62.05    2.27
  -2  -6   5   39.93    1.68
  -2  -6   5   43.38    2.12
  -2  -6   5   37.23    1.85
   1   6  -5   19.64    0.62
  -1  -6   5   19.84    1.10
  -1  -6   5   19.89    1.34
  -1  -6   5   19.65    1.26
   0   6  -5   44.90    1.30
   0  -6   5   42.95    1.82
   0  -6   5   46.17    2.21
   0  -6   5   43.91    2.04
  -1   6  -5   14.56    0.61
   1  -6   5   12.45    1.02
   1  -6   5   13.67    0.93
   1  -6   5   14.35    1.18
  -2   6  -5    7.88    0.47
   2  -6   5    7.10    1.01
   2  -6   5    8.08    0.86
   2  -6   5    8.74    1.04
  -3   6  -5    3.38    0.39
   3  -6   5    3.48    0.59
   3  -6   5    3.02    0.62
   3  -6   5    3.78    0.82
   3  -6   5    2.87    0.56
  -4   6  -5   13.54    0.74
   4  -6   5   12.94    1.22
   4  -6   5   15.32    1.44
   4  -6   5   14.76    1.66
  -4  -5   5    4.77    0.70
  -4  -5   5    3.54    0.52
  -4  -5   5    4.67    0.75
  -3  -5   5    5.21    0.76
  -3  -5   5    5.03    0.69
  -3  -5   5    4.67    0.56
  -2  -5   5    1.13    0.35
  -2  -5   5    2.02    0.48
  -2  -5   5    1.68    0.34
  -1  -5   5    0.16    0.21
  -1  -5   5    0.04    0.15
  -1  -5   5    0.32    0.21
   0  -5   5    1.71    0.33
   0  -5   5    1.06    0.36
   0  -5   5    1.18    0.33
  -1   5  -5   15.33    0.57
   1  -5   5   15.67    1.04
   1  -5   5   16.55    1.18
   1  -5   5   16.54    0.92
  -2   5  -5   24.74    0.87
   2  -5   5   25.15    1.39
   2  -5   5   24.76    1.54
   2  -5   5   24.82    1.23
  -3   5  -5    1.36    0.23
   3  -5   5    2.24    0.60
   3  -5   5    1.54    0.37
   3  -5   5    1.62    0.44
   4  -5   5   46.49    2.14
   4  -5   5   46.39    1.95
   4  -5   5   44.10    2.38
   5  -5   5   23.75    1.35
   5  -5   5   23.13    1.49
   5  -5   5   23.57    1.73
   6  -5   5   11.24    1.26
   6  -5   5   12.41    1.16
   6  -5   5   11.73    1.50
  -5  -4   5    4.56    0.65
  -5  -4   5    4.36    0.74
  -5  -4   5    5.25    0.60
  -4  -4   5   30.36    1.49
  -4  -4   5   29.70    1.31
  -4  -4   5   31.86    1.71
  -3  -4   5   35.75    1.58
  -3  -4   5   38.07    1.43
  -3  -4   5   32.00    1.70
  -2  -4   5   17.11    1.12
  -2  -4   5   17.90    0.87
  -2  -4   5   18.50    1.02
   1   4  -5   26.93    1.46
  -1  -4   5   26.35    1.39
  -1  -4   5   26.80    1.29
  -1  -4   5   29.75    1.15
   0   4  -5  102.90    3.72
   0  -4   5  100.93    3.58
   0  -4   5  102.88    3.29
   0  -4   5  108.72    3.11
  -1   4  -5   63.10    2.61
   1  -4   5   66.54    2.35
   1  -4   5   65.66    2.12
   1  -4   5   63.21    2.57
  -2   4  -5   34.37    1.02
  -2   4  -5   36.46    1.83
   2  -4   5   36.13    1.83
   2  -4   5   37.68    1.62
   2  -4   5   37.65    1.44
  -3   4  -5   46.61    2.27
  -3   4  -5   50.45    1.47
   3  -4   5   52.28    2.09
   3  -4   5   51.56    2.36
   3  -4   5   51.06    1.87
   4  -4   5   64.47    2.38
   4  -4   5   68.22    2.94
   4  -4   5   66.53    2.39
   4  -4   5   66.52    2.56
   5  -4   5   25.02    1.47
   5  -4   5   26.89    1.74
   5  -4   5   25.17    1.34
   6  -4   5   24.96    1.52
   6  -4   5   23.05    1.74
   7  -4   5   19.53    1.69
   7  -4   5   17.19    1.19
   7  -4   5   18.57    1.38
  -5  -3   5   43.30    1.85
  -5  -3   5   44.56    1.68
  -5  -3   5   41.22    2.09
  -4  -3   5   78.69    2.50
  -4  -3   5   77.20    3.01
  -4  -3   5   79.17    2.70
  -3  -3   5   52.63    2.18
  -3  -3   5   50.67    1.74
  -3  -3   5   53.29    1.95
   2   3  -5    0.10    0.18
  -2  -3   5    0.12    0.13
  -2  -3   5    0.35    0.22
  -2  -3   5    0.18    0.11
   1   3  -5   62.51    2.37
  -1  -3   5   65.32    2.16
  -1  -3   5   63.02    1.93
  -1  -3   5   63.53    2.34
   0   3  -5   33.37    1.52
   0  -3   5   33.52    1.51
   0  -3   5   34.96    1.18
   0  -3   5   33.53    1.35
  -1   3  -5    6.32    0.70
   1  -3   5    7.79    0.45
   1  -3   5    7.14    0.67
   1  -3   5    7.76    0.82
  -2   3  -5    1.80    0.41
   2  -3   5    2.15    0.48
   2  -3   5    2.20    0.39
   2  -3   5    1.70    0.26
  -3   3  -5    5.10    0.24
  -3   3  -5    5.32    0.25
  -3   3  -5    5.38    0.72
   3  -3   5    6.77    0.87
   3  -3   5    5.46    0.52
   3  -3   5    5.57    0.65
  -4   3  -5    9.08    0.98
   4  -3   5    9.53    0.89
   4  -3   5    9.12    1.06
   4  -3   5    9.93    0.67
  -5   3  -5    3.37    0.68
   5  -3   5    3.51    0.74
   5  -3   5    3.89    0.63
   5  -3   5    3.56    0.54
   6  -3   5    3.89    0.61
   6  -3   5    4.01    0.83
   6  -3   5    3.54    0.63
   7  -3   5    2.94    0.64
   7  -3   5    4.58    0.93
   7  -3   5    2.22    0.48
   8  -3   5   18.32    1.24
   8  -3   5   21.85    2.17
  -6  -2   5    0.31    0.32
  -6  -2   5    0.67    0.27
  -6  -2   5    0.44    0.25
  -5  -2   5    8.27    0.67
  -5  -2   5    8.49    0.62
  -5  -2   5   10.28    1.12
  -4  -2   5    3.54    0.60
  -4  -2   5    3.07    0.38
  -4  -2   5    2.30    0.40
  -4  -2   5    2.44    0.39
   3   2  -5    9.43    0.68
  -3  -2   5    9.54    0.64
  -3  -2   5    9.10    0.61
  -3  -2   5   10.28    0.78
  -3  -2   5    9.71    0.53
   2   2  -5   11.29    0.74
   2   2  -5   10.49    0.68
  -2  -2   5   10.05    0.62
  -2  -2   5   11.61    0.55
  -2  -2   5   10.86    0.75
   1   2  -5   24.21    1.03
   1   2  -5   24.78    1.08
  -1  -2   5   23.87    1.14
  -1  -2   5   23.08    0.99
   0   2  -5   31.45    1.27
   0   2  -5   30.94    1.19
   0  -2   5   30.95    1.18
   0  -2   5   30.67    0.98
   0  -2   5   33.82    1.37
  -1   2  -5   13.48    0.65
  -1   2  -5   12.10    0.71
   1  -2   5   13.47    0.50
   1  -2   5   12.82    0.67
   1  -2   5   12.75    0.80
  -2   2  -5   18.56    0.80
  -2   2  -5   17.83    0.95
   2  -2   5   17.14    1.03
   2  -2   5   19.26    0.70
   2  -2   5   18.07    0.87
  -3   2  -5   68.82    2.23
  -3   2  -5   64.37    2.44
   3  -2   5   69.41    2.27
   3  -2   5   60.99    2.51
   3  -2   5   70.20    2.04
  -4   2  -5   88.18    3.21
  -4   2  -5   87.15    2.23
  -4   2  -5   90.56    2.25
   4  -2   5   91.52    2.72
   4  -2   5   89.76    3.33
   4  -2   5   91.78    2.94
  -5   2  -5   34.25    1.75
   5  -2   5   37.49    1.47
   5  -2   5   36.19    1.63
   5  -2   5   36.18    1.91
  -6   2  -5   53.25    2.45
   6  -2   5   54.50    2.62
   6  -2   5   57.07    2.30
   6  -2   5   56.20    2.10
   7  -2   5   87.04    3.07
   7  -2   5   92.21    3.85
   7  -2   5   91.47    3.32
   8  -2   5   32.28    1.63
   8  -2   5   33.81    1.83
   8  -2   5   33.26    2.20
   9  -2   5   21.73    1.36
  -6  -1   5    8.70    0.68
  -6  -1   5    9.62    0.76
  -5  -1   5   36.72    1.52
  -5  -1   5   34.71    1.82
   4   1  -5   66.97    2.38
  -4  -1   5   66.67    2.21
  -4  -1   5   66.44    2.59
   3   1  -5   49.29    1.80
   3   1  -5   53.62    1.93
  -3  -1   5   47.22    1.68
  -3  -1   5   50.81    2.01
   2   1  -5   61.64    1.99
   2   1  -5   61.12    1.97
  -2  -1   5   59.24    1.89
  -2  -1   5   60.12    2.16
  -1  -1   5  327.13    8.38
  -1  -1   5  332.88    8.36
   0  -1   5   85.20    2.47
   0  -1   5   88.06    2.50
   0  -1   5   91.18    2.80
   1  -1   5   60.91    1.87
   1  -1   5   66.17    1.91
   1  -1   5   65.15    2.14
   1  -1   5   64.46    1.80
  -2   1  -5   61.86    1.96
  -2   1  -5   60.96    1.87
   2  -1   5   63.53    1.75
   2  -1   5   57.85    2.15
   2  -1   5   60.33    1.86
   2  -1   5   62.14    2.11
   2  -1   5   59.65    1.86
  -3   1  -5  129.21    3.77
  -3   1  -5  128.64    3.95
   3  -1   5  131.08    4.10
   3  -1   5  128.28    3.39
   3  -1   5  127.23    3.41
   3  -1   5  126.93    4.09
   3  -1   5  128.30    3.63
  -4   1  -5   14.35    0.70
  -4   1  -5   11.63    0.76
   4  -1   5   12.25    0.59
   4  -1   5   12.11    0.90
   4  -1   5   12.56    0.75
  -5   1  -5    2.11    0.42
   5  -1   5    2.12    0.54
   5  -1   5    2.09    0.41
   5  -1   5    2.28    0.34
  -6   1  -5   23.67    1.34
   6  -1   5   23.87    1.28
   6  -1   5   22.34    1.50
   6  -1   5   22.75    1.12
  -7   1  -5    6.59    0.86
   7  -1   5    7.28    1.06
   7  -1   5    9.19    0.86
   7  -1   5    9.90    1.03
   8  -1   5    0.16    0.23
   8  -1   5    0.35    0.37
   8  -1   5    0.38    0.27
   9  -1   5    2.28    0.75
   9  -1   5    2.44    0.56
   9  -1   5    2.02    0.53
  -6   0   5   39.90    1.61
  -6   0   5   39.05    1.66
  -5   0   5   66.64    2.22
  -5   0   5   68.31    2.30
   4   0  -5   35.98    1.42
  -4   0   5   36.90    1.70
  -4   0   5   37.37    1.41
   3   0  -5    9.57    0.52
   3   0  -5    9.62    0.51
  -3   0   5   10.26    0.72
  -3   0   5    8.90    0.54
  -2   0   5   59.94    1.80
  -1   0   5   35.87    1.18
  -1   0   5   34.38    1.11
  -1   0   5   37.48    1.37
   0   0   5   12.12    0.48
   0   0   5   13.87    0.63
   0   0   5   13.41    0.52
   0   0   5   12.55    0.59
   1   0   5    3.68    0.23
   1   0   5    3.73    0.23
   1   0   5    3.95    0.28
   1   0   5    4.19    0.35
   2   0   5   11.33    0.56
   2   0   5    9.80    0.61
   2   0   5   11.20    0.46
   2   0   5   10.49    0.46
  -3   0  -5    2.95    0.19
  -3   0  -5    3.36    0.22
   3   0   5    3.02    0.23
   3   0   5    2.76    0.31
   3   0   5    2.89    0.29
   3   0   5    3.71    0.43
  -4   0  -5   16.85    0.74
  -4   0  -5   16.62    0.79
   4   0   5   17.72    0.95
   4   0   5   17.33    1.01
   4   0   5   15.47    0.67
   4   0   5   18.30    0.85
   4   0   5   17.02    0.61
  -5   0  -5    4.80    0.43
  -5   0  -5    4.41    0.53
   5   0   5    3.99    0.51
   5   0   5    4.33    0.35
   5   0   5    4.20    0.35
   5   0   5    4.42    0.67
  -6   0  -5   42.56    1.86
   6   0   5   42.62    2.10
   6   0   5   46.12    1.83
   6   0   5   46.99    1.68
  -7   0  -5   30.57    1.59
   7   0   5   31.05    1.39
   7   0   5   29.47    1.50
   7   0   5   32.94    1.88
   8   0   5   19.52    1.13
   8   0   5   18.85    1.24
   8   0   5   19.85    1.55
   9   0   5   17.06    1.14
   9   0   5   16.33    1.79
   9   0   5   17.72    1.27
  -6   1   5   12.65    0.85
  -6   1   5   11.25    0.79
  -5   1   5    0.19    0.16
   4  -1  -5    2.15    0.30
  -4   1   5    2.82    0.38
  -3   1   5    0.30    0.13
  -2   1   5    1.69    0.22
  -2   1   5    1.53    0.32
  -1   1   5   74.25    2.28
  -1   1   5   72.02    1.98
  -1   1   5   72.17    2.27
  -1   1   5   76.24    2.39
  -1   1   5   73.19    2.03
   0   1   5   35.82    1.20
   0   1   5   36.19    0.96
   0   1   5   35.71    1.16
   1   1   5  127.43    3.50
   1   1   5  125.12    3.56
   1   1   5  121.21    3.47
   2   1   5  174.12    4.99
   2   1   5  178.08    4.39
   2   1   5  184.01    5.02
   3   1   5  243.42    6.76
   3   1   5  228.51    6.64
   3   1   5  234.34    5.98
   3   1   5  237.59    5.91
  -4  -1  -5   54.14    1.71
  -4  -1  -5   51.78    1.68
   4   1   5   54.12    1.74
   4   1   5   54.03    2.03
   4   1   5   54.49    1.54
   4   1   5   55.27    1.99
   4   1   5   57.45    1.64
  -5  -1  -5   99.03    3.09
  -5  -1  -5   93.80    3.08
   5   1   5   96.82    2.75
   5   1   5   95.94    3.32
   5   1   5   99.23    3.39
   5   1   5   95.68    2.67
   5   1   5   96.30    2.97
   5   1   5  102.91    2.77
  -6  -1  -5  133.45    4.30
   6   1   5  136.87    4.07
   6   1   5  141.95    3.93
   6   1   5  131.08    4.58
  -7  -1  -5   40.42    1.80
   7   1   5   38.90    1.73
   7   1   5   42.01    1.62
   7   1   5   40.45    2.09
   8   1   5   16.42    1.01
   8   1   5   19.13    1.45
   8   1   5   13.84    1.02
   9   1   5   30.59    1.67
   9   1   5   30.39    1.53
   9   1   5   31.71    2.09
  10   1   5   18.07    1.23
  -6   2   5   41.73    1.77
  -6   2   5   44.88    1.77
   5  -2  -5   45.33    1.89
  -5   2   5   46.24    1.74
   4  -2  -5   60.91    2.00
   4  -2  -5   64.10    2.22
  -4   2   5   61.03    2.04
   3  -2  -5   16.30    0.84
  -3   2   5   17.41    0.78
   2  -2  -5   95.89    2.86
  -2   2   5   95.78    2.69
  -2   2   5  100.84    3.14
  -1   2   5   65.13    2.15
  -1   2   5   63.99    1.80
  -1   2   5   64.04    1.75
  -1   2   5   63.49    2.06
   0   2   5   37.65    1.19
   0   2   5   37.95    1.22
   0   2   5   40.70    1.25
   2   2   5  227.56    6.11
   3   2   5   26.05    0.96
   3   2   5   25.24    0.74
   3   2   5   25.55    0.99
   3   2   5   24.94    0.79
   4   2   5   50.77    1.40
   4   2   5   51.68    1.49
   4   2   5   50.13    1.81
   4   2   5   49.30    1.59
  -5  -2  -5   51.77    1.82
  -5  -2  -5   51.46    1.73
  -5  -2  -5   49.89    1.68
   5   2   5   49.92    1.48
   5   2   5   48.94    1.70
   5   2   5   46.62    1.47
   5   2   5   47.13    1.90
   5   2   5   47.82    1.93
  -6  -2  -5    3.38    0.44
  -6  -2  -5    2.82    0.43
   6   2   5    3.44    0.39
   6   2   5    3.72    0.50
   6   2   5    2.71    0.51
  -7  -2  -5    0.61    0.26
   7   2   5    0.63    0.26
   7   2   5    0.07    0.25
   7   2   5    0.26    0.19
  -8  -2  -5    0.49    0.27
   8   2   5    1.47    0.36
   8   2   5    0.82    0.33
   8   2   5    0.79    0.42
   9   2   5    2.23    0.52
   9   2   5    4.07    0.93
   9   2   5    2.51    0.51
  10   2   5    9.95    1.16
  10   2   5    8.99    1.38
  10   2   5    8.28    0.96
   6  -3  -5   44.15    2.03
  -6   3   5   45.03    1.88
  -6   3   5   50.74    1.94
   5  -3  -5   16.76    1.06
  -5   3   5   15.98    0.92
   4  -3  -5   11.06    0.58
   4  -3  -5   12.13    0.82
  -4   3   5   11.40    0.70
   3  -3  -5   31.07    1.32
  -3   3   5   32.48    1.21
   2  -3  -5   23.99    1.00
  -2   3   5   23.94    0.91
   1  -3  -5    0.56    0.15
  -1   3   5    0.48    0.18
  -1   3   5    0.85    0.14
  -1   3   5    0.94    0.16
  -1   3   5    0.90    0.22
   0  -3  -5    2.25    0.18
   0   3   5    1.86    0.25
   0   3   5    2.53    0.22
   1   3   5    0.97    0.12
  -2  -3  -5   15.07    0.49
   2   3   5   15.05    0.52
  -3  -3  -5   26.63    0.90
   3   3   5   27.81    0.98
   3   3   5   26.53    0.77
   3   3   5   25.94    0.81
   3   3   5   25.57    0.95
   3   3   5   25.46    0.93
  -4  -3  -5    0.72    0.18
   4   3   5    0.99    0.15
   4   3   5    0.70    0.19
   4   3   5    0.68    0.19
   4   3   5    0.49    0.17
   4   3   5    0.39    0.13
   4   3   5    0.62    0.13
  -5  -3  -5   20.15    0.95
  -5  -3  -5   19.15    0.86
  -5  -3  -5   18.91    0.79
   5   3   5   19.59    0.75
   5   3   5   19.07    0.96
   5   3   5   19.99    0.90
   5   3   5   20.80    0.71
   5   3   5   19.28    1.00
   5   3   5   19.91    1.04
   5   3   5   18.68    0.99
  -6  -3  -5   88.33    2.99
  -6  -3  -5   88.53    2.88
   6   3   5   87.19    2.80
   6   3   5   89.57    2.66
   6   3   5   89.47    3.20
  -7  -3  -5   56.22    2.10
   7   3   5   55.97    1.96
   7   3   5   53.25    2.39
   7   3   5   52.84    2.06
  -8  -3  -5   32.16    1.56
   8   3   5   30.07    1.53
   8   3   5   34.29    1.48
   8   3   5   30.66    1.83
   9   3   5   71.57    2.80
   9   3   5   67.78    2.62
   9   3   5   78.26    3.39
  10   3   5   31.28    1.68
  10   3   5   32.52    2.26
  10   3   5   36.59    1.89
   6  -4  -5   -0.13    0.30
  -6   4   5    0.12    0.18
  -6   4   5   -0.14    0.23
   5  -4  -5    7.68    0.88
  -5   4   5    7.13    0.73
   4  -4  -5   23.55    0.98
   4  -4  -5   23.54    1.24
  -4   4   5   22.74    1.10
   3  -4  -5    1.71    0.37
  -3   4   5    2.46    0.36
   2  -4  -5  102.51    3.09
  -2   4   5   94.86    2.82
   1  -4  -5   22.27    0.95
  -1   4   5   22.32    1.10
  -1   4   5   25.06    0.92
  -1   4   5   22.77    1.10
  -1   4   5   22.93    0.85
   0   4   5   30.41    0.92
   0   4   5   30.01    1.18
   0   4   5   30.28    0.96
   0   4   5   29.24    1.18
   1   4   5   80.49    2.41
   1   4   5   80.15    2.08
   1   4   5   79.97    2.07
   1   4   5   82.35    2.43
   2   4   5  123.76    3.24
   2   4   5  131.73    3.62
   2   4   5  135.42    3.73
   2   4   5  123.66    3.24
   3   4   5   48.66    1.62
   3   4   5   52.14    1.44
   3   4   5   52.20    1.70
   3   4   5   49.62    1.47
  -4  -4  -5   31.99    1.16
   4   4   5   30.66    1.20
   4   4   5   31.44    1.12
   4   4   5   31.49    1.05
   4   4   5   31.47    1.26
  -5  -4  -5   48.87    1.73
  -5  -4  -5   47.77    1.70
  -5  -4  -5   48.79    1.60
   5   4   5   45.27    1.55
   5   4   5   46.25    1.84
   5   4   5   47.54    1.66
   5   4   5   50.55    1.47
   5   4   5   49.40    1.87
  -6  -4  -5   43.95    1.75
  -6  -4  -5   43.64    1.61
   6   4   5   42.94    1.52
   6   4   5   41.61    1.64
   6   4   5   45.79    1.92
  -7  -4  -5   32.16    1.43
   7   4   5   32.71    1.48
   7   4   5   33.92    1.75
   7   4   5   34.23    1.39
  -8  -4  -5   35.84    1.65
   8   4   5   35.65    1.56
   8   4   5   37.31    1.70
   8   4   5   36.25    2.02
   9   4   5   46.55    2.47
   9   4   5   39.26    1.84
   9   4   5   44.41    2.01
  10   4   5    0.47    0.52
  10   4   5    0.17    0.39
  10   4   5    0.23    0.32
   5  -5  -5   10.23    1.07
  -5   5   5   11.74    0.87
  -5   5   5   10.20    0.79
   4  -5  -5   23.85    1.33
  -4   5   5   23.70    1.17
   3  -5  -5   95.83    3.23
   3  -5  -5   96.03    2.90
  -3   5   5   94.46    2.95
   2  -5  -5   54.23    1.97
  -2   5   5   50.16    1.76
  -1   5   5   29.08    1.09
   0   5   5   44.45    1.76
   0   5   5   48.41    1.53
   0   5   5   44.95    1.44
   0   5   5   47.07    1.79
   1   5   5   58.25    1.97
   1   5   5   54.25    1.64
   1   5   5   56.69    1.69
   1   5   5   56.60    1.95
   2   5   5   17.71    0.81
   2   5   5   16.48    0.68
   2   5   5   17.81    0.69
   2   5   5   18.01    0.82
   3   5   5    9.86    0.51
   3   5   5    9.27    0.57
   3   5   5    9.83    0.48
   3   5   5    9.22    0.58
  -4  -5  -5   35.83    1.22
  -4  -5  -5   35.32    1.18
   4   5   5   34.95    1.38
   4   5   5   32.24    1.24
   4   5   5   36.87    1.45
  -5  -5  -5    0.76    0.20
  -5  -5  -5    0.34    0.13
   5   5   5    0.57    0.16
   5   5   5    0.25    0.17
   5   5   5    0.57    0.19
  -6  -5  -5    3.77    0.44
   6   5   5    3.12    0.44
   6   5   5    3.15    0.52
   6   5   5    3.68    0.42
  -7  -5  -5    3.51    0.48
   7   5   5    3.89    0.57
   7   5   5    3.25    0.60
   7   5   5    3.85    0.51
   8   5   5    0.26    0.25
   8   5   5    0.40    0.27
   8   5   5    0.18    0.30
   9   5   5   29.41    1.95
   9   5   5   33.49    1.69
   9   5   5   30.06    1.55
  10   5   5    7.26    0.95
  10   5   5    5.74    1.07
  10   5   5    7.79    0.92
   5  -6  -5    0.71    0.41
  -5   6   5    0.23    0.20
  -5   6   5    0.62    0.34
   4  -6  -5    7.11    0.90
  -4   6   5    6.20    0.72
   3  -6  -5   14.71    1.02
  -3   6   5   14.60    0.88
   2  -6  -5    4.08    0.35
   2  -6  -5    4.60    0.34
  -2   6   5    4.63    0.53
  -1   6   5    0.31    0.16
   1   6   5    7.08    0.46
   2   6   5   43.33    1.47
  -3  -6  -5   16.11    0.65
  -3  -6  -5   15.43    0.64
   3   6   5   13.97    0.73
  -4  -6  -5   23.71    0.98
  -4  -6  -5   25.99    1.04
   4   6   5   23.70    1.06
   4   6   5   24.41    0.89
  -5  -6  -5   98.69    3.14
  -5  -6  -5  100.21    3.24
   5   6   5   98.48    3.30
   5   6   5   95.88    3.03
   5   6   5  100.42    2.92
  -6  -6  -5   28.44    1.25
   6   6   5   27.51    1.43
   6   6   5   28.23    1.22
   6   6   5   26.13    1.27
  -7  -6  -5    4.70    0.58
   7   6   5    5.40    0.63
   7   6   5    5.91    0.70
   7   6   5    4.76    0.72
   8   6   5   21.34    1.20
   8   6   5   20.75    1.25
   8   6   5   19.38    1.43
   9   6   5   35.63    1.82
   9   6   5   33.51    1.70
   9   6   5   38.45    2.21
  10   6   5   14.66    1.14
  10   6   5   11.01    1.18
  10   6   5   11.66    1.51
   4  -7  -5   11.08    1.17
  -4   7   5    9.95    0.98
  -4   7   5   12.54    0.92
   3  -7  -5   22.18    1.36
  -3   7   5   22.35    1.28
  -3   7   5   22.22    1.19
  -2   7   5   16.59    0.95
   1  -7  -5   28.21    1.12
  -1   7   5   27.74    1.24
   0  -7  -5   39.07    1.36
   0  -7  -5   37.61    1.36
   0   7   5   36.35    1.44
  -1  -7  -5   58.19    1.91
  -1  -7  -5   58.10    1.88
   1   7   5   57.32    1.94
  -2  -7  -5   19.32    0.82
  -2  -7  -5   17.65    0.82
   2   7   5   17.72    0.87
  -3  -7  -5   44.07    1.61
  -3  -7  -5   44.75    1.61
   3   7   5   43.75    1.62
   3   7   5   44.87    1.49
  -4  -7  -5  116.11    3.69
   4   7   5  123.92    3.45
   4   7   5  115.10    3.52
  -5  -7  -5   33.31    1.41
   5   7   5   32.51    1.43
   5   7   5   35.53    1.38
  -6  -7  -5   39.47    1.65
   6   7   5   37.11    1.81
   6   7   5   41.44    1.72
   6   7   5   39.82    1.61
   7   7   5   18.86    1.10
   7   7   5   18.51    1.27
   7   7   5   17.51    1.11
   8   7   5    5.65    0.75
   8   7   5    6.79    0.85
   8   7   5    4.97    0.82
   9   7   5   -0.11    0.30
   9   7   5    0.38    0.31
   9   7   5   -0.02    0.32
  -3   8   5   22.44    1.31
  -3   8   5   21.50    1.24
  -2   8   5    5.43    0.68
  -2   8   5    5.76    0.69
  -1   8   5   24.02    1.20
  -1   8   5   21.20    1.15
   0  -8  -5   30.16    1.32
   0   8   5   30.77    1.41
   0   8   5   31.95    1.39
  -1  -8  -5    1.30    0.28
   1   8   5    1.12    0.27
   1   8   5    2.19    0.39
  -2  -8  -5    2.16    0.36
   2   8   5    2.07    0.37
   2   8   5    2.32    0.40
  -3  -8  -5    7.32    0.56
   3   8   5    6.09    0.62
   3   8   5    5.83    0.61
  -4  -8  -5   -0.01    0.12
   4   8   5    0.01    0.13
   4   8   5    0.00    0.17
  -5  -8  -5    7.46    0.64
   5   8   5    7.74    0.77
   5   8   5    8.73    0.70
   6   8   5    0.37    0.28
   6   8   5    0.23    0.24
   6   8   5    0.48    0.26
   7   8   5    1.07    0.37
   7   8   5    1.63    0.49
   7   8   5    1.27    0.44
   8   8   5   22.48    1.59
   8   8   5   24.86    1.44
   8   8   5   20.69    1.35
   9   8   5   18.39    1.32
   9   8   5   19.35    1.37
   9   8   5   19.49    1.58
  -2   9   5    3.73    0.63
  -2   9   5    4.30    0.63
  -1   9   5    1.14    0.35
  -1   9   5    0.99    0.36
   0   9   5   10.23    0.84
   0   9   5   10.70    0.82
   1   9   5   16.01    0.99
   1   9   5   16.81    1.04
   2   9   5    6.70    0.72
   2   9   5    5.60    0.69
   3   9   5   22.18    1.20
   3   9   5   24.38    1.25
   4   9   5   36.71    1.63
   4   9   5   35.35    1.62
   5   9   5   18.65    1.16
   5   9   5   20.78    1.18
   6   9   5   30.83    1.58
   6   9   5   34.84    1.68
   7   9   5   26.74    1.47
   7   9   5   23.79    1.44
   7   9   5   23.26    1.57
   8   9   5   45.73    2.46
   8   9   5   48.87    2.22
   8   9   5   49.74    2.27
  -1  10   5   44.89    2.03
  -1  10   5   42.81    2.04
   0  10   5   57.16    2.43
   0  10   5   60.77    2.42
   1  10   5   28.84    1.50
   1  10   5   27.98    1.53
   2  10   5   24.17    1.35
   2  10   5   22.20    1.36
   3  10   5   37.47    1.74
   3  10   5   35.86    1.74
   4  10   5    9.54    0.99
   4  10   5    9.54    0.97
   5  10   5    3.39    0.62
   5  10   5    3.85    0.63
   6  10   5   12.76    1.21
   6  10   5   11.52    1.13
   7  10   5    7.56    0.94
   7  10   5    7.16    0.94
   7  10   5    9.04    1.17
   2  11   5    1.56    0.51
   2  11   5    0.91    0.36
   3  11   5    0.16    0.34
   3  11   5   -0.10    0.21
   4  11   5    5.20    0.81
   4  11   5    5.51    0.78
   0  -6   6   14.14    0.96
   0  -6   6    9.69    1.07
   0  -6   6   12.87    1.37
   1  -6   6   22.80    1.55
   1  -6   6   22.95    1.30
   2  -6   6    0.32    0.31
   2  -6   6   -0.18    0.26
   2  -6   6    0.29    0.26
  -2  -5   6    8.27    0.89
  -2  -5   6    7.81    0.96
  -2  -5   6    7.53    0.72
  -1  -5   6    4.61    0.73
  -1  -5   6    4.98    0.59
  -1  -5   6    6.47    0.80
   0  -5   6    4.27    0.74
   0  -5   6    4.72    0.71
   0  -5   6    5.28    0.61
   1  -5   6   20.32    1.24
   1  -5   6   18.14    1.03
   1  -5   6   19.32    1.32
   2  -5   6   26.77    1.35
   2  -5   6   30.20    1.74
   2  -5   6   26.41    1.50
   3  -5   6    5.11    0.68
   3  -5   6    4.31    0.71
   3  -5   6    5.31    0.88
   4  -5   6   12.46    1.39
   4  -5   6   14.15    1.13
   4  -5   6   14.16    1.02
   4  -5   6   11.97    0.94
  -5   5  -6   19.42    0.71
   5  -5   6   19.40    1.40
   5  -5   6   20.39    1.63
   5  -5   6   20.48    1.30
  -3  -4   6   53.02    2.16
  -3  -4   6   56.44    1.99
  -3  -4   6   53.86    2.41
  -2  -4   6   27.55    1.39
  -2  -4   6   29.67    1.24
  -2  -4   6   27.82    1.55
  -1  -4   6   31.56    1.62
  -1  -4   6   30.24    1.45
  -1  -4   6   32.53    1.29
   0  -4   6   47.86    2.11
   0  -4   6   47.96    1.71
   0  -4   6   46.81    1.92
   1  -4   6   95.46    3.21
   1  -4   6   91.95    2.91
   1  -4   6   99.59    3.52
   2  -4   6   38.69    1.76
   2  -4   6   42.89    2.04
   2  -4   6   39.55    1.56
   3  -4   6   40.53    1.66
   3  -4   6   41.30    1.88
   3  -4   6   41.75    2.10
   4  -4   6   22.10    1.54
   4  -4   6   21.68    1.18
   4  -4   6   24.67    1.41
  -5   4  -6   20.92    0.65
   5  -4   6   19.11    1.17
   5  -4   6   19.76    1.54
   5  -4   6   20.36    1.34
   6  -4   6    0.24    0.28
   6  -4   6   -0.01    0.33
   6  -4   6   -0.13    0.22
  -4  -3   6   42.90    2.09
  -4  -3   6   41.80    1.82
  -4  -3   6   42.44    1.65
  -3  -3   6   36.43    1.79
  -3  -3   6   36.14    1.58
  -2  -3   6   16.71    0.96
  -2  -3   6   16.28    1.06
   1   3  -6   13.64    0.82
  -1  -3   6   13.74    0.93
  -1  -3   6   13.38    0.82
   0   3  -6   16.04    0.91
   0  -3   6   15.08    0.87
   0  -3   6   16.57    1.02
  -1   3  -6    0.77    0.24
   1  -3   6    0.51    0.25
   1  -3   6    0.90    0.19
  -2   3  -6    1.62    0.36
   2  -3   6    2.22    0.31
   2  -3   6    1.77    0.45
   2  -3   6    1.80    0.36
  -3   3  -6   10.11    0.79
   3  -3   6    9.33    0.61
   3  -3   6    8.79    0.98
   3  -3   6    9.06    0.73
   4  -3   6    3.43    0.70
   4  -3   6    3.27    0.54
   4  -3   6    3.10    0.43
   5  -3   6   17.12    1.00
   5  -3   6   17.90    1.36
   5  -3   6   17.08    0.99
   5  -3   6   15.61    1.10
   6  -3   6    1.68    0.58
   6  -3   6    1.48    0.41
   6  -3   6    1.80    0.46
   7  -3   6    4.97    0.74
   7  -3   6    5.62    1.07
   7  -3   6    4.47    0.80
  -5  -2   6    3.05    0.51
  -5  -2   6    2.98    0.52
  -5  -2   6    2.69    0.61
  -4  -2   6    0.46    0.22
  -4  -2   6    0.39    0.21
  -4  -2   6    0.11    0.19
  -3  -2   6    5.72    0.74
  -3  -2   6    3.98    0.51
  -2  -2   6    0.18    0.16
  -2  -2   6    0.26    0.16
  -1  -2   6    1.33    0.33
  -1  -2   6    1.45    0.28
   0  -2   6   11.29    0.76
   0  -2   6   11.88    0.68
  -1   2  -6   79.21    2.43
  -1   2  -6   79.44    2.49
   1  -2   6   82.35    2.80
   1  -2   6   77.46    2.47
  -2   2  -6    5.47    0.44
  -2   2  -6    4.71    0.35
   2  -2   6    5.29    0.66
   2  -2   6    5.50    0.55
  -3   2  -6   41.45    1.67
   3  -2   6   42.79    1.41
   3  -2   6   40.49    1.62
   3  -2   6   46.01    1.97
  -4   2  -6  103.46    3.50
   4  -2   6  102.06    3.73
   4  -2   6  102.31    3.31
   4  -2   6  101.73    3.04
  -5   2  -6   90.30    3.23
   5  -2   6   82.49    3.40
   5  -2   6   87.26    2.80
   5  -2   6   87.66    3.03
   6  -2   6   24.07    1.39
   6  -2   6   24.60    1.25
   6  -2   6   21.94    1.57
   7  -2   6   55.92    2.43
   7  -2   6   52.82    2.16
   7  -2   6   53.08    2.78
   8  -2   6   37.19    2.36
   8  -2   6   33.46    1.71
   8  -2   6   36.65    1.96
  -5  -1   6   24.00    1.49
  -5  -1   6   21.02    1.16
  -4  -1   6   65.24    2.27
  -4  -1   6   66.65    2.66
  -3  -1   6   56.80    2.24
  -3  -1   6   54.59    1.90
  -2  -1   6   29.71    1.37
  -2  -1   6   30.48    1.18
  -2  -1   6   30.28    1.20
  -1  -1   6   43.97    1.49
  -1  -1   6   44.02    1.68
  -1  -1   6   42.11    1.45
   0  -1   6  108.76    3.40
   0  -1   6  109.40    3.07
   1  -1   6   17.75    0.77
   1  -1   6   17.91    0.92
   2  -1   6   35.66    1.27
  -3   1  -6   34.83    1.12
  -3   1  -6   32.87    1.17
   3  -1   6   33.68    1.54
   3  -1   6   33.54    1.31
  -4   1  -6   36.31    1.26
  -4   1  -6   34.90    1.38
   4  -1   6   34.16    1.43
   4  -1   6   36.14    1.70
   4  -1   6   33.63    1.17
  -5   1  -6   33.44    1.46
   5  -1   6   35.03    1.29
   5  -1   6   31.71    1.46
   5  -1   6   30.93    1.71
  -6   1  -6   18.19    1.12
   6  -1   6   22.54    1.08
   6  -1   6   20.86    1.20
   6  -1   6   18.12    1.36
   7  -1   6    1.27    0.52
   7  -1   6    2.04    0.44
   7  -1   6    1.05    0.37
   8  -1   6    0.74    0.45
   8  -1   6    0.41    0.29
   8  -1   6    0.21    0.28
   9  -1   6    0.37    0.38
   9  -1   6    0.57    0.52
   9  -1   6    0.19    0.31
  -5   0   6   38.76    1.60
  -4   0   6   31.46    1.30
  -4   0   6   29.26    1.55
  -3   0   6    4.22    0.45
  -3   0   6    5.75    0.66
  -2   0   6   17.61    0.94
  -2   0   6   17.62    0.77
  -1   0   6   24.64    0.88
  -1   0   6   23.43    1.04
   0   0   6    3.09    0.25
   0   0   6    3.59    0.35
   0   0   6    3.10    0.35
   1   0   6    3.10    0.37
   1   0   6    3.23    0.29
   1   0   6    3.31    0.25
   1   0   6    3.26    0.25
   2   0   6   13.50    0.58
   2   0   6   12.50    0.72
   2   0   6   13.53    0.57
   2   0   6   14.10    0.68
   3   0   6   20.46    0.84
  -4   0  -6   16.78    0.65
  -4   0  -6   16.50    0.61
   4   0   6   17.50    0.86
   4   0   6   15.69    0.99
  -5   0  -6    0.24    0.12
  -5   0  -6    0.27    0.14
   5   0   6    0.12    0.16
   5   0   6    0.19    0.20
   5   0   6    0.27    0.10
  -6   0  -6    0.34    0.18
   6   0   6    0.53    0.31
   6   0   6    0.50    0.24
   6   0   6    0.59    0.22
   7   0   6   51.67    2.53
   7   0   6   54.72    2.19
   7   0   6   51.85    1.98
   8   0   6   52.26    2.65
   8   0   6   47.84    1.98
   8   0   6   45.22    2.11
   9   0   6   17.36    1.88
   9   0   6   14.34    1.07
   9   0   6   15.15    1.20
  -5   1   6    2.70    0.44
  -4   1   6   21.27    1.01
  -3   1   6   10.09    0.60
  -2   1   6   11.72    0.71
  -2   1   6   10.81    0.56
  -1   1   6   44.41    1.56
  -1   1   6   44.00    1.33
   0   1   6   94.24    2.88
   0   1   6   98.90    2.58
   0   1   6   98.65    2.55
   0   1   6  103.76    2.99
   1   1   6   17.44    0.72
   1   1   6   19.19    0.54
   1   1   6   19.30    0.70
   1   1   6   19.10    0.55
   2   1   6  112.98    2.84
   2   1   6  109.96    2.84
   2   1   6  115.48    3.28
   2   1   6  109.53    3.29
   3   1   6   89.23    2.86
   3   1   6   90.36    2.82
   3   1   6   89.78    2.45
   3   1   6   90.46    2.41
   4   1   6  126.16    3.52
   4   1   6  127.38    4.01
  -5  -1  -6   15.96    0.68
  -5  -1  -6   16.38    0.67
   5   1   6   15.36    0.84
   5   1   6   15.16    1.01
  -6  -1  -6   35.06    1.44
   6   1   6   38.79    1.86
   6   1   6   37.32    1.35
   6   1   6   35.04    1.52
  -7  -1  -6   45.91    1.89
   7   1   6   47.16    1.77
   7   1   6   45.02    2.25
   7   1   6   46.24    1.93
   8   1   6   11.73    1.13
   8   1   6   10.83    0.82
   8   1   6   10.87    1.34
   9   1   6   19.77    1.33
   9   1   6   22.07    1.28
   9   1   6   20.26    1.67
  10   1   6   12.08    1.58
  10   1   6   12.35    1.18
  10   1   6   12.65    1.28
  -5   2   6   36.34    1.54
  -4   2   6   37.06    1.44
  -3   2   6   15.90    0.78
  -2   2   6   69.68    2.05
  -1   2   6   90.29    2.38
  -1   2   6   83.62    2.61
  -1   2   6   82.08    2.62
  -1   2   6   85.03    2.30
   0   2   6   33.45    1.15
   0   2   6   38.03    1.23
   0   2   6   34.83    1.15
   1   2   6   34.80    1.03
   2   2   6   86.50    2.47
   3   2   6   16.08    0.53
   3   2   6   15.91    0.75
   3   2   6   16.56    0.51
   3   2   6   17.42    0.70
   4   2   6    8.35    0.41
   4   2   6    8.90    0.57
   4   2   6    8.95    0.48
   4   2   6    9.50    0.63
  -5  -2  -6   23.55    0.78
   5   2   6   24.01    1.04
  -6  -2  -6    4.83    0.41
  -6  -2  -6    5.36    0.40
   6   2   6    4.89    0.57
   6   2   6    5.96    0.79
   6   2   6    5.21    0.39
  -7  -2  -6    4.87    0.56
   7   2   6    5.81    0.83
   7   2   6    5.78    0.68
   7   2   6    5.60    0.58
   8   2   6   -0.17    0.12
   8   2   6   -0.03    0.25
   8   2   6    0.14    0.23
   9   2   6    0.06    0.26
   9   2   6    0.20    0.42
   9   2   6    0.48    0.30
  10   2   6   12.45    1.64
  10   2   6   13.88    1.08
  10   2   6   13.19    1.35
   5  -3  -6   21.79    1.22
  -5   3   6   20.57    1.09
   4  -3  -6    0.05    0.19
  -4   3   6    0.07    0.12
   3  -3  -6   13.72    0.78
  -3   3   6   13.65    0.72
   2  -3  -6    0.61    0.18
  -2   3   6    0.43    0.15
   1  -3  -6    1.61    0.22
  -1   3   6    1.59    0.20
  -1   3   6    1.15    0.19
  -1   3   6    1.24    0.26
   0   3   6    5.66    0.36
   0   3   6    5.38    0.37
   3   3   6   61.46    1.85
   3   3   6   57.21    1.82
  -4  -3  -6   59.19    1.90
   4   3   6   62.40    2.06
   4   3   6   60.20    1.80
   4   3   6   61.26    1.70
   4   3   6   59.50    2.04
  -5  -3  -6   17.03    0.86
   5   3   6   18.47    0.85
  -6  -3  -6  119.07    3.57
  -6  -3  -6  117.23    3.48
   6   3   6  116.07    3.50
   6   3   6  112.04    3.89
  -7  -3  -6   61.24    2.18
   7   3   6   61.47    2.26
   7   3   6   61.31    2.59
   7   3   6   64.70    2.12
   8   3   6   17.98    1.34
   8   3   6   17.71    1.01
   8   3   6   15.54    1.05
   9   3   6   38.32    2.24
   9   3   6   37.78    1.84
   9   3   6   36.08    1.69
  10   3   6   18.54    1.25
  10   3   6   20.73    1.77
  10   3   6   23.30    1.48
   5  -4  -6   24.92    1.35
  -5   4   6   23.25    1.21
   4  -4  -6   11.25    0.85
  -4   4   6   12.91    0.78
   3  -4  -6   21.50    1.07
  -3   4   6   20.50    0.97
   2  -4  -6   74.52    2.36
  -2   4   6   70.90    2.20
   1  -4  -6  104.34    3.01
  -1   4   6  100.91    2.81
   0  -4  -6   20.31    0.77
   0   4   6   21.12    0.92
   0   4   6   20.03    0.66
   0   4   6   21.03    0.91
   0   4   6   21.39    0.70
   1   4   6   37.98    1.29
   1   4   6   40.70    1.26
   2   4   6  108.56    2.98
   2   4   6   99.58    2.90
  -3  -4  -6   55.25    1.62
   3   4   6   54.94    1.70
   3   4   6   55.70    1.47
   3   4   6   56.77    1.76
   3   4   6   53.96    1.71
   3   4   6   53.50    1.50
  -4  -4  -6   49.63    1.60
   4   4   6   49.01    1.73
   4   4   6   48.52    1.65
   4   4   6   48.01    1.52
   4   4   6   47.90    1.69
   4   4   6   49.96    1.45
  -5  -4  -6   87.12    2.71
   5   4   6   85.75    2.59
  -6  -4  -6   68.65    2.20
  -6  -4  -6   65.94    2.10
   6   4   6   64.30    2.22
   6   4   6   65.72    2.51
  -7  -4  -6   26.30    1.13
   7   4   6   25.78    1.50
   7   4   6   24.95    1.25
   7   4   6   27.79    1.17
   8   4   6   29.82    1.41
   8   4   6   31.24    1.54
   8   4   6   38.36    1.98
   9   4   6   16.66    1.08
   9   4   6   16.14    1.41
   9   4   6   15.92    1.15
  10   4   6    1.42    0.50
  10   4   6    1.36    0.59
  10   4   6    1.06    0.46
   5  -5  -6   47.51    2.09
  -5   5   6   45.13    1.91
   4  -5  -6   16.81    1.09
  -4   5   6   19.49    1.03
   3  -5  -6   53.83    2.10
  -3   5   6   56.56    1.98
   2  -5  -6   71.66    2.44
  -2   5   6   72.07    2.27
   1  -5  -6   87.53    2.69
  -1   5   6   82.93    2.48
   0   5   6    6.00    0.36
   0   5   6    6.01    0.62
   1   5   6   60.79    2.01
   1   5   6   59.45    1.67
   1   5   6   60.47    2.01
   1   5   6   57.39    1.71
   2   5   6    8.28    0.49
   2   5   6    7.68    0.37
   2   5   6    7.51    0.37
   2   5   6    7.86    0.46
   3   5   6    1.24    0.23
   3   5   6    1.22    0.23
   3   5   6    1.39    0.18
   3   5   6    0.95    0.16
  -4  -5  -6    3.32    0.36
   4   5   6    2.01    0.32
   4   5   6    3.05    0.34
   4   5   6    3.60    0.42
   5   5   6    0.27    0.15
   5   5   6    0.15    0.14
  -6  -5  -6   20.22    0.92
  -6  -5  -6   19.44    0.82
   6   5   6   19.49    1.12
   6   5   6   17.79    0.96
  -7  -5  -6    3.73    0.43
   7   5   6    4.73    0.60
   7   5   6    4.02    0.48
   7   5   6    3.57    0.64
   8   5   6    1.63    0.39
   8   5   6    0.62    0.38
   8   5   6    1.22    0.37
   9   5   6   17.69    1.48
   9   5   6   20.34    1.27
   9   5   6   17.95    1.16
  10   5   6   30.87    1.74
  10   5   6   30.60    2.11
  10   5   6   29.83    1.63
   4  -6  -6    2.51    0.57
  -4   6   6    3.38    0.52
   3  -6  -6    0.69    0.30
  -3   6   6    0.64    0.24
   2  -6  -6    0.73    0.29
  -2   6   6    1.28    0.30
  -1   6   6    6.90    0.51
   0   6   6    2.90    0.33
   1   6   6   74.99    2.19
   2   6   6   49.28    1.57
   3   6   6   14.09    0.69
   4   6   6   28.41    1.14
  -5  -6  -6   88.32    2.60
  -5  -6  -6   89.11    2.63
   5   6   6   83.49    2.70
   5   6   6   86.06    2.93
  -6  -6  -6   84.35    2.76
   6   6   6   94.99    2.79
   6   6   6   84.61    2.81
   6   6   6   85.15    3.09
  -7  -6  -6   21.96    1.05
   7   6   6   21.80    1.17
   7   6   6   23.10    1.10
   7   6   6   19.37    1.28
   8   6   6   35.58    1.96
   8   6   6   37.68    1.64
   8   6   6   35.68    1.70
   9   6   6   48.05    2.53
   9   6   6   46.41    2.12
   9   6   6   46.50    2.02
  10   6   6   19.84    2.03
  10   6   6   20.24    1.35
  10   6   6   20.46    1.41
   3  -7  -6   34.49    1.71
  -3   7   6   32.15    1.50
   2  -7  -6   48.53    2.07
  -2   7   6   50.92    1.92
  -1   7   6   20.73    1.03
   0   7   6   45.36    1.63
   1   7   6  204.34    5.49
   2   7   6   90.45    2.72
   3   7   6   40.21    1.48
   4   7   6   45.71    1.68
  -5  -7  -6   60.24    1.97
   5   7   6   57.56    2.08
  -6  -7  -6   18.52    0.91
   6   7   6   19.49    1.16
   6   7   6   16.76    1.01
   6   7   6   19.78    0.98
   7   7   6   10.97    0.78
   7   7   6    9.28    1.00
   7   7   6    9.45    0.94
   8   7   6    9.52    1.12
   8   7   6    9.77    0.93
   8   7   6    8.98    0.97
   9   7   6    0.16    0.29
   9   7   6   -0.08    0.29
   9   7   6   -0.02    0.34
   3  -8  -6   26.35    1.59
  -3   8   6   27.56    1.44
  -2   8   6   15.43    0.98
  -1   8   6    2.92    0.47
   0   8   6   13.21    0.82
   1   8   6    8.41    0.63
   2   8   6   14.57    0.83
   3   8   6    0.05    0.14
  -4  -8  -6    0.81    0.20
   4   8   6    0.95    0.25
  -5  -8  -6   12.34    0.72
   5   8   6   11.57    0.84
   5   8   6   13.74    0.86
   6   8   6   10.09    1.06
   6   8   6    9.83    0.77
   6   8   6   11.60    0.83
   7   8   6    1.16    0.37
   7   8   6    1.85    0.48
   7   8   6    1.32    0.41
   8   8   6   54.25    2.60
   8   8   6   55.14    2.30
   8   8   6   57.27    2.39
   9   8   6   24.81    1.54
   9   8   6   27.52    1.86
   9   8   6   27.14    1.61
  -2   9   6    2.87    0.53
  -1   9   6    1.05    0.33
   0   9   6   17.45    1.05
   1   9   6   33.34    1.50
   2   9   6    7.25    0.74
   3   9   6   16.77    0.98
   4   9   6   72.16    2.56
   5   9   6   64.92    2.39
   5   9   6   62.37    2.38
   6   9   6   20.28    1.19
   6   9   6   19.20    1.19
   7   9   6   49.81    2.15
   7   9   6   49.00    2.35
   7   9   6   48.87    2.13
   8   9   6   67.63    2.77
   8   9   6   68.57    2.80
   8   9   6   71.32    3.14
   0  10   6   39.92    1.85
   1  10   6   26.92    1.42
   2  10   6    9.29    0.95
   3  10   6   22.18    1.27
   3  10   6   20.23    1.22
   4  10   6   29.89    1.53
   4  10   6   29.97    1.50
   5  10   6    4.50    0.68
   5  10   6    3.24    0.56
   6  10   6    3.20    0.58
   6  10   6    4.07    0.68
   7  10   6    4.99    0.78
   7  10   6    4.79    0.78
   7  10   6    4.20    0.78
   3  11   6    1.33    0.39
   3  11   6    1.66    0.53
   4  11   6    6.38    0.86
   4  11   6    5.77    0.81
   1  -5   7    9.64    0.77
   1  -5   7    6.12    0.85
   1  -5   7    9.51    1.10
   2  -5   7   28.48    1.46
   2  -5   7   28.71    1.77
   2  -5   7   33.11    1.74
   3  -5   7   16.06    1.07
  -2  -4   7   64.38    2.54
  -2  -4   7   68.79    2.81
  -1  -4   7   27.40    1.56
  -1  -4   7   26.52    1.41
   0  -4   7   30.05    1.65
   0  -4   7   33.36    1.59
   1  -4   7   44.31    1.95
   1  -4   7   44.02    2.08
   2  -4   7   19.93    1.04
   2  -4   7   19.17    1.21
   2  -4   7   17.85    1.29
   3  -4   7   11.86    0.83
   3  -4   7   13.80    1.17
   3  -4   7   11.88    1.13
   4  -4   7   20.66    1.49
   4  -4   7   16.18    1.20
   4  -4   7   18.62    1.10
   5  -4   7   11.25    1.37
   5  -4   7   11.73    0.93
   5  -4   7   11.03    0.90
   5  -4   7   13.71    1.35
  -3  -3   7   23.58    1.31
  -3  -3   7   28.15    1.57
  -2  -3   7    5.22    0.71
  -2  -3   7    5.88    0.69
  -1  -3   7    0.36    0.24
  -1  -3   7    0.09    0.15
   0  -3   7   13.34    0.95
   0  -3   7   12.12    0.83
   1  -3   7    1.79    0.37
   1  -3   7    1.80    0.42
   2  -3   7    5.13    0.75
   2  -3   7    4.74    0.63
   3  -3   7    2.40    0.56
   3  -3   7    2.56    0.49
   4  -3   7    2.09    0.47
   4  -3   7    1.70    0.35
   4  -3   7    1.34    0.47
   5  -3   7   24.92    1.28
   5  -3   7   26.00    1.72
   5  -3   7   25.74    1.48
   6  -3   7    4.96    0.93
   6  -3   7    5.15    0.82
   6  -3   7    6.18    0.78
  -3  -2   7   19.15    1.22
  -3  -2   7   17.95    1.04
  -2  -2   7   14.45    0.88
  -2  -2   7   14.83    1.00
  -1  -2   7    6.41    0.73
  -1  -2   7    7.40    0.69
   0  -2   7   47.50    1.92
   0  -2   7   47.70    1.76
   1  -2   7   58.47    2.24
   1  -2   7   58.06    2.03
   2  -2   7   57.04    2.03
   2  -2   7   55.87    2.26
  -3   2  -7   29.41    1.09
   3  -2   7   29.80    1.35
   3  -2   7   31.56    1.60
   4  -2   7   77.41    2.68
   4  -2   7   72.94    3.00
   5  -2   7   60.10    2.74
   5  -2   7   61.53    2.16
   5  -2   7   63.98    2.44
   6  -2   7   30.61    1.40
   6  -2   7   24.86    1.48
   6  -2   7   26.59    1.78
   7  -2   7   22.07    1.70
   7  -2   7   21.17    1.26
   7  -2   7   22.44    1.46
  -4  -1   7   60.14    2.24
  -4  -1   7   60.55    2.21
  -4  -1   7   60.68    2.59
  -3  -1   7   82.63    3.00
  -3  -1   7   76.66    2.63
  -3  -1   7   80.88    2.62
  -2  -1   7    7.27    0.57
  -2  -1   7    7.97    0.57
  -2  -1   7    7.84    0.67
  -1  -1   7   23.23    1.14
  -1  -1   7   21.16    0.98
   0  -1   7   83.93    2.79
   0  -1   7   84.65    2.56
   1  -1   7   22.59    1.11
   1  -1   7   25.54    1.02
   2  -1   7   16.17    0.96
   2  -1   7   15.40    0.78
   3  -1   7    7.86    0.58
   3  -1   7    8.05    0.84
   4  -1   7   15.92    1.09
   4  -1   7   15.69    0.91
  -5   1  -7    0.83    0.21
   5  -1   7    0.90    0.30
   5  -1   7    0.74    0.34
   6  -1   7    2.15    0.47
   6  -1   7    1.72    0.36
   6  -1   7    2.02    0.59
   6  -1   7    2.15    0.39
   7  -1   7    0.96    0.38
   7  -1   7    1.27    0.38
   7  -1   7    1.50    0.60
   8  -1   7    2.92    0.57
   8  -1   7    2.45    0.56
   8  -1   7    1.98    0.66
  -4   0   7   24.14    1.17
  -4   0   7   25.55    1.47
  -3   0   7    3.49    0.59
  -3   0   7    4.09    0.48
  -2   0   7    1.44    0.27
  -2   0   7    1.44    0.33
  -1   0   7    0.96    0.20
  -1   0   7    0.53    0.21
   0   0   7    1.74    0.30
   0   0   7    2.11    0.26
   0   0   7    2.12    0.27
   1   0   7    0.83    0.21
   1   0   7    1.56    0.24
   2   0   7   11.23    0.56
   2   0   7   11.78    0.71
   3   0   7    3.37    0.47
   3   0   7    2.63    0.34
   4   0   7   94.65    2.88
   4   0   7   93.18    3.27
   5   0   7   30.88    1.61
   5   0   7   29.57    1.34
  -6   0  -7   33.71    1.33
   6   0   7   32.93    1.54
   6   0   7   33.10    1.83
   7   0   7   61.99    2.21
   7   0   7   59.14    2.81
   7   0   7   57.69    2.38
   8   0   7   54.80    2.78
   8   0   7   53.53    2.14
   8   0   7   48.74    2.25
   9   0   7   25.84    1.63
   9   0   7   28.36    2.05
   9   0   7   29.04    1.56
  -4   1   7   25.35    1.17
  -3   1   7   28.81    1.18
  -2   1   7   33.21    1.44
  -2   1   7   32.85    1.20
  -1   1   7  110.86    3.45
  -1   1   7  113.78    3.06
   0   1   7  143.78    3.75
   0   1   7  147.09    4.18
   1   1   7   42.27    1.21
   1   1   7   43.58    1.24
   1   1   7   41.09    1.41
   2   1   7   35.57    1.10
   2   1   7   39.64    1.12
   2   1   7   37.02    1.35
   3   1   7   94.35    2.60
   3   1   7   94.20    3.00
   4   1   7   68.88    2.49
   4   1   7   70.54    2.16
   5   1   7    8.76    0.77
   5   1   7    9.46    0.65
  -6  -1  -7   28.11    1.03
  -6  -1  -7   29.26    1.02
   6   1   7   26.67    1.31
   6   1   7   27.36    1.56
   7   1   7   38.19    1.75
   7   1   7   40.01    1.59
   7   1   7   43.42    2.17
   8   1   7   12.60    1.45
   8   1   7    9.82    0.81
   8   1   7   11.67    1.13
   9   1   7    4.19    0.73
   9   1   7    4.59    0.92
   9   1   7    5.00    0.74
  -4   2   7   51.25    1.87
  -3   2   7   28.55    1.16
  -2   2   7   16.65    0.75
  -1   2   7  108.67    2.85
  -1   2   7  102.19    3.21
   0   2   7   47.85    1.54
   0   2   7   47.51    1.32
   0   2   7   48.20    1.31
   1   2   7    7.51    0.35
   2   2   7   10.45    0.48
   3   2   7   35.17    1.20
   3   2   7   32.97    0.93
   3   2   7   32.79    1.24
   3   2   7   32.27    0.95
   4   2   7    5.09    0.37
   4   2   7    4.67    0.52
   5   2   7    0.09    0.14
   5   2   7    0.18    0.19
   6   2   7   12.38    0.80
   6   2   7   12.62    0.97
  -7  -2  -7    5.97    0.44
   7   2   7    6.45    0.89
   7   2   7    5.59    0.67
   8   2   7   16.25    0.98
   8   2   7   14.97    1.05
   8   2   7   15.41    1.31
   9   2   7    8.09    1.17
   9   2   7    8.16    0.87
   9   2   7    8.11    0.96
  -4   3   7    1.56    0.34
  -3   3   7   -0.05    0.12
  -2   3   7    1.60    0.25
  -1   3   7    3.88    0.29
   0   3   7   20.30    0.79
   3   3   7   94.40    2.81
   3   3   7   98.39    2.83
   4   3   7   51.65    1.41
   4   3   7   49.75    1.75
   4   3   7   47.18    1.48
   5   3   7   39.28    1.63
   5   3   7   40.66    1.43
   6   3   7   80.26    2.98
   6   3   7   83.71    2.65
  -7  -3  -7   84.53    2.66
   7   3   7   89.87    3.35
   7   3   7   87.53    2.93
   8   3   7   17.49    0.98
   8   3   7   16.62    1.07
   8   3   7   15.07    1.26
   9   3   7   21.06    1.31
   9   3   7   19.51    1.57
   9   3   7   20.43    1.22
  10   3   7   42.80    1.97
  10   3   7   40.91    2.55
  10   3   7   40.54    2.06
   4  -4  -7   35.17    1.54
  -4   4   7   33.16    1.44
   3  -4  -7   13.25    0.78
  -3   4   7   13.54    0.77
   2  -4  -7   14.54    0.74
  -2   4   7   14.72    0.73
   1  -4  -7   95.75    2.73
  -1   4   7   92.32    2.61
   0   4   7   17.18    0.79
   0   4   7   17.11    0.60
   0   4   7   16.74    0.58
   1   4   7   60.76    1.82
   3   4   7  114.72    3.24
   3   4   7  114.99    3.22
  -4  -4  -7   27.98    1.01
   4   4   7   27.95    1.10
   4   4   7   27.29    0.95
   4   4   7   27.48    0.88
   4   4   7   27.91    1.05
  -5  -4  -7   55.75    1.85
   5   4   7   53.12    1.76
   5   4   7   51.76    1.97
   6   4   7   39.06    1.78
   6   4   7   42.72    1.59
  -7  -4  -7   16.45    0.68
   7   4   7   16.79    1.16
   7   4   7   14.68    0.92
   8   4   7    0.53    0.26
   8   4   7    0.51    0.25
   8   4   7   -0.04    0.26
   9   4   7    9.71    0.93
   9   4   7    9.24    1.00
   9   4   7    8.48    1.21
  10   4   7    1.23    0.45
  10   4   7    1.58    0.71
  10   4   7    1.16    0.47
   4  -5  -7   16.67    1.06
  -4   5   7   16.82    0.97
   3  -5  -7   20.22    1.07
  -3   5   7   22.32    1.07
   2  -5  -7   41.79    1.60
  -2   5   7   43.75    1.55
   1  -5  -7    5.08    0.42
  -1   5   7    5.40    0.41
   0  -5  -7    8.33    0.46
   0   5   7    8.54    0.44
  -1  -5  -7    2.43    0.24
   1   5   7    2.61    0.19
   1   5   7    2.75    0.20
   1   5   7    2.41    0.34
   2   5   7    9.85    0.53
  -3  -5  -7    3.47    0.24
   3   5   7    3.29    0.23
   3   5   7    3.41    0.34
   3   5   7    3.11    0.21
  -4  -5  -7    0.14    0.10
   4   5   7    0.10    0.11
   4   5   7   -0.08    0.09
   4   5   7    0.07    0.12
   5   5   7    0.41    0.19
   5   5   7    0.43    0.19
   6   5   7   18.23    1.09
   6   5   7   19.58    0.98
  -7  -5  -7   38.00    1.30
   7   5   7   37.49    1.85
   7   5   7   38.74    1.62
   8   5   7   10.58    1.16
   8   5   7   10.86    0.79
   8   5   7   12.11    0.89
   9   5   7   31.14    1.52
   9   5   7   30.25    1.61
   9   5   7   28.95    1.90
  10   5   7   31.86    2.11
  10   5   7   31.03    1.65
  10   5   7   28.55    1.68
   3  -6  -7    0.23    0.24
  -3   6   7    0.01    0.19
   2  -6  -7    4.53    0.57
  -2   6   7    5.72    0.59
   1  -6  -7   24.15    1.11
  -1   6   7   24.58    1.05
   0  -6  -7    5.59    0.44
   0   6   7    5.55    0.42
   1   6   7   22.83    0.85
   2   6   7   40.68    1.30
   3   6   7   62.58    1.88
   4   6   7    7.50    0.49
   5   6   7   27.84    1.26
   5   6   7   27.76    1.16
   6   6   7   47.76    1.75
   6   6   7   43.61    1.89
  -7  -6  -7   32.22    1.17
   7   6   7   30.23    1.63
   7   6   7   32.52    1.47
   8   6   7   34.38    1.89
   8   6   7   35.34    1.53
   8   6   7   32.36    1.60
   9   6   7   51.95    2.12
   9   6   7   50.37    2.22
   9   6   7   49.25    2.59
   3  -7  -7   27.79    1.49
  -3   7   7   28.18    1.38
   2  -7  -7   55.88    2.19
  -2   7   7   54.70    2.04
   1  -7  -7   28.37    1.31
  -1   7   7   25.45    1.19
   0   7   7   28.19    1.17
   1   7   7   32.49    1.23
   2   7   7   64.97    2.04
   3   7   7    5.35    0.50
   4   7   7   38.33    1.46
   5   7   7   11.40    0.76
   5   7   7    9.39    0.68
   6   7   7    0.13    0.16
   6   7   7    0.15    0.22
   7   7   7    2.63    0.56
   7   7   7    3.59    0.55
   8   7   7    4.11    0.64
   8   7   7    4.02    0.77
   9   7   7    0.53    0.32
   9   7   7   -0.08    0.30
   9   7   7    0.04    0.33
   2  -8  -7    6.88    0.86
  -2   8   7    6.56    0.72
  -1   8   7   -0.11    0.17
   0   8   7    1.47    0.34
   1   8   7    0.54    0.23
   2   8   7    6.89    0.56
   3   8   7    5.96    0.61
   4   8   7    0.37    0.21
   5   8   7   17.68    0.99
   6   8   7   26.03    1.41
   6   8   7   26.43    1.33
   7   8   7    2.90    0.53
   7   8   7    3.72    0.64
   8   8   7    3.75    0.77
   8   8   7    2.99    0.57
   8   8   7    2.95    0.57
   9   8   7   30.97    1.68
   9   8   7   27.61    1.56
   9   8   7   25.21    1.80
  -1   9   7    5.20    0.66
   0   9   7   16.19    0.99
   1   9   7   24.75    1.22
   2   9   7   24.66    1.21
   3   9   7   16.77    0.96
   4   9   7   59.15    2.19
   5   9   7   38.25    1.67
   6   9   7   35.08    1.75
   6   9   7   33.08    1.59
   7   9   7   15.45    1.18
   7   9   7   16.32    1.10
   7   9   7   16.49    1.11
   8   9   7    8.19    0.92
   8   9   7    8.41    0.97
   8   9   7    8.48    1.13
   1  10   7   13.03    0.95
   2  10   7    0.31    0.24
   3  10   7    2.69    0.50
   4  10   7    7.85    0.84
   5  10   7    0.19    0.25
   6  10   7    0.07    0.21
   6  10   7    0.04    0.31
   7  10   7    3.47    0.70
   7  10   7    2.00    0.56
  -1  -3   8    2.53    0.54
  -1  -3   8    1.94    0.42
   0  -3   8    0.70    0.32
   0  -3   8    0.48    0.24
   1  -3   8    0.03    0.18
   1  -3   8   -0.14    0.20
   2  -3   8   12.39    1.00
   2  -3   8   11.80    0.89
   3  -3   8    4.91    0.70
   3  -3   8    4.50    0.74
   4  -3   8    2.30    0.51
   4  -3   8    2.95    0.65
   5  -3   8   12.85    0.92
   5  -3   8   12.27    1.20
   5  -3   8   14.67    1.51
  -2  -2   8   24.25    1.27
  -2  -2   8   26.24    1.45
  -1  -2   8   26.78    1.40
  -1  -2   8   26.01    1.26
   0  -2   8   23.77    1.27
   0  -2   8   21.51    1.13
   1  -2   8   69.12    2.56
   1  -2   8   63.94    2.30
   2  -2   8   75.71    2.66
   2  -2   8   81.68    2.95
   3  -2   8   20.73    1.29
   3  -2   8   18.66    1.09
   4  -2   8   38.74    1.75
   4  -2   8   38.86    1.99
   5  -2   8   22.97    1.35
   5  -2   8   24.55    1.60
   6  -2   8   10.61    1.28
   6  -2   8   10.35    1.11
   6  -2   8   11.28    0.91
  -2  -1   8   34.35    1.48
  -2  -1   8   36.01    1.67
  -1  -1   8    9.63    0.75
  -1  -1   8    9.41    0.67
   0  -1   8   26.87    1.17
   0  -1   8   27.58    1.30
   1  -1   8   24.06    1.09
   1  -1   8   24.56    1.20
   2  -1   8    3.29    0.44
   2  -1   8    4.06    0.57
   3  -1   8   28.60    1.44
   3  -1   8   27.01    1.24
   4  -1   8    2.25    0.42
   4  -1   8    2.05    0.49
   5  -1   8    0.36    0.19
   5  -1   8    0.08    0.24
   6  -1   8    3.53    0.60
   6  -1   8    3.47    0.73
   7  -1   8    0.16    0.35
   7  -1   8    0.02    0.24
   7  -1   8    0.28    0.28
  -3   0   8    1.60    0.42
  -3   0   8    1.94    0.38
  -2   0   8    0.10    0.15
  -2   0   8    0.21    0.19
  -1   0   8    2.38    0.34
  -1   0   8    2.23    0.34
  -1   0   8    2.09    0.38
   0   0   8    0.29    0.16
   0   0   8    0.00    0.12
   1   0   8   26.78    1.17
   1   0   8   27.33    1.04
   2   0   8   12.29    0.75
   2   0   8   12.02    0.64
   3   0   8    1.79    0.31
   3   0   8    1.81    0.36
   4   0   8   49.16    2.01
   4   0   8   43.81    1.70
   5   0   8   61.49    2.29
   5   0   8   68.92    2.70
   6   0   8   30.89    1.79
   6   0   8   33.75    1.58
   7   0   8   19.68    1.27
   7   0   8   22.35    1.58
   8   0   8   53.77    2.36
   8   0   8   51.31    2.73
   8   0   8   49.31    2.11
  -3   1   8   45.01    1.67
  -2   1   8   15.95    0.97
  -2   1   8   16.49    0.80
  -1   1   8   12.89    0.77
  -1   1   8   13.78    0.65
   0   1   8   51.33    1.58
   0   1   8   54.01    1.83
   1   1   8   45.86    1.59
   1   1   8   48.17    1.43
   2   1   8   19.33    0.74
   2   1   8   20.59    0.90
   3   1   8   42.43    1.36
   3   1   8   39.55    1.58
   4   1   8   29.47    1.19
   4   1   8   31.79    1.43
   5   1   8   71.15    2.44
   5   1   8   78.21    2.84
   6   1   8   12.95    1.05
   6   1   8   11.71    0.85
   7   1   8   32.44    1.60
   7   1   8   32.74    1.89
   8   1   8    2.42    0.54
   8   1   8    2.40    0.71
   9   1   8    3.25    0.61
   9   1   8    3.80    0.71
   9   1   8    4.38    0.96
  -3   2   8   19.40    0.96
  -2   2   8   14.67    0.73
  -1   2   8   32.62    1.12
  -1   2   8   33.29    1.33
   0   2   8   22.49    0.76
   0   2   8   22.02    0.90
   1   2   8    1.62    0.13
   1   2   8    2.27    0.25
   2   2   8    5.87    0.35
   3   2   8    4.32    0.26
   3   2   8    4.07    0.24
   3   2   8    4.87    0.40
   4   2   8    3.09    0.34
   4   2   8    2.47    0.40
   5   2   8    0.23    0.19
   5   2   8    0.41    0.20
   6   2   8    8.50    0.78
   6   2   8    9.19    1.00
   7   2   8    9.67    0.91
   7   2   8   10.23    1.15
   8   2   8   35.37    2.08
   8   2   8   38.27    1.79
   9   2   8   10.99    1.42
   9   2   8   13.22    1.24
   9   2   8   11.61    0.94
  -3   3   8    4.75    0.52
  -2   3   8    0.11    0.14
  -1   3   8    5.19    0.36
   0   3   8   14.65    0.53
   3   3   8   53.28    1.67
   4   3   8   69.33    1.98
   4   3   8   70.42    2.32
   5   3   8   29.12    1.35
   5   3   8   27.83    1.12
   6   3   8    3.79    0.61
   6   3   8    3.91    0.50
   7   3   8   53.49    2.35
   7   3   8   46.49    1.91
   8   3   8   20.42    1.48
   8   3   8   19.20    1.19
   9   3   8   21.43    1.27
   9   3   8   25.33    1.45
   9   3   8   24.15    1.76
  -3   4   8   17.57    0.92
  -2   4   8   23.90    1.01
  -1   4   8   46.69    1.50
   0   4   8   54.88    1.54
   4   4   8   22.82    0.74
   4   4   8   22.52    0.96
   4   4   8   22.93    0.80
   4   4   8   23.75    0.89
   5   4   8   22.22    1.08
   5   4   8   22.21    0.94
   6   4   8   23.39    1.09
   6   4   8   22.51    1.23
   7   4   8    0.42    0.29
   7   4   8    0.49    0.26
   8   4   8    1.19    0.35
   8   4   8    1.76    0.51
   9   4   8    0.24    0.38
   9   4   8    1.14    0.41
   3  -5  -8    5.89    0.61
  -3   5   8    6.70    0.66
   2  -5  -8   10.96    0.64
  -2   5   8   10.57    0.66
   1  -5  -8   11.51    0.56
  -1   5   8   10.30    0.59
   0   5   8    1.22    0.20
   1   5   8    0.09    0.12
   2   5   8    8.48    0.43
   3   5   8   14.47    0.58
   3   5   8   13.40    0.58
  -4  -5  -8   14.51    0.60
   4   5   8   14.05    0.73
   4   5   8   14.51    0.70
   4   5   8   14.75    0.61
   5   5   8    4.23    0.50
   5   5   8    3.52    0.38
   6   5   8   12.53    0.87
   6   5   8   11.04    0.72
   7   5   8   46.16    1.82
   7   5   8   45.70    2.09
   8   5   8   12.26    0.91
   8   5   8   14.43    1.16
   9   5   8    9.65    1.02
   9   5   8   10.49    1.28
   2  -6  -8   10.16    0.68
  -2   6   8   10.48    0.71
   1  -6  -8   35.19    1.35
  -1   6   8   37.62    1.38
   0  -6  -8   22.55    0.88
   0   6   8   21.51    0.90
  -1  -6  -8    2.56    0.26
   1   6   8    2.65    0.28
   2   6   8   51.77    1.52
  -3  -6  -8   29.94    0.97
   3   6   8   29.73    1.01
  -4  -6  -8   54.37    1.65
   4   6   8   48.40    1.61
   4   6   8   51.58    1.78
   5   6   8   35.02    1.45
   5   6   8   34.67    1.31
   6   6   8   70.43    2.59
   6   6   8   70.16    2.34
   7   6   8   38.34    1.65
   7   6   8   42.01    1.93
   8   6   8   21.99    1.26
   8   6   8   23.80    1.52
   9   6   8   24.80    1.73
   9   6   8   24.39    1.42
   2  -7  -8   61.04    2.21
  -2   7   8   56.25    2.12
   1  -7  -8   69.20    2.34
  -1   7   8   65.24    2.25
   0  -7  -8   21.84    1.01
   0   7   8   22.93    1.02
   1   7   8   23.18    0.96
   2   7   8   31.56    1.16
   3   7   8    5.90    0.45
   4   7   8    5.93    0.55
   5   7   8    7.23    0.57
   5   7   8    6.86    0.59
   6   7   8    1.07    0.31
   6   7   8    0.45    0.24
   7   7   8    0.73    0.35
   7   7   8    1.01    0.30
   8   7   8    1.02    0.43
   8   7   8    1.95    0.46
   9   7   8   -0.43    0.31
   9   7   8    0.08    0.22
   1  -8  -8    1.35    0.36
  -1   8   8    1.27    0.34
   0   8   8    0.40    0.23
   1   8   8    0.72    0.24
   2   8   8   15.31    0.82
   3   8   8    3.18    0.44
   4   8   8    8.58    0.63
   5   8   8   10.07    0.73
   6   8   8   65.56    2.53
   6   8   8   63.53    2.34
   7   8   8   16.80    1.07
   7   8   8   18.46    1.25
   8   8   8   12.39    0.97
   8   8   8   10.90    1.24
   0   9   8   10.19    0.80
   1   9   8   61.66    2.21
   2   9   8   82.01    2.71
   3   9   8   27.37    1.27
   4   9   8   19.04    1.06
   5   9   8   50.74    1.98
   6   9   8   29.80    1.46
   6   9   8   29.85    1.58
   7   9   8   16.66    1.22
   7   9   8   15.54    1.06
   2  10   8   17.07    1.06
   3  10   8    7.63    0.79
   4  10   8    1.95    0.43
   5  10   8    0.02    0.17
   6  10   8    1.85    0.45
   1  -2   9   31.61    1.54
   1  -2   9   28.72    1.44
   2  -2   9   37.64    1.76
   2  -2   9   34.08    1.61
   3  -2   9   24.90    1.37
   3  -2   9   31.13    1.63
   4  -2   9   12.16    0.95
   4  -2   9   11.35    1.20
   0  -1   9   17.94    0.97
   0  -1   9   16.37    1.02
   1  -1   9    7.71    0.65
   1  -1   9    7.46    0.71
   2  -1   9    0.11    0.19
   2  -1   9    0.39    0.24
   3  -1   9    0.02    0.19
   3  -1   9    0.26    0.23
   4  -1   9    2.03    0.45
   4  -1   9    0.17    0.28
   5  -1   9    0.25    0.30
   5  -1   9    0.20    0.22
   6  -1   9    7.06    0.87
   6  -1   9    6.85    1.00
  -1   0   9    1.70    0.34
  -1   0   9    1.19    0.34
   0   0   9    7.93    0.63
   0   0   9    7.64    0.57
   1   0   9   18.93    0.89
   1   0   9   18.77    0.97
   2   0   9   46.97    1.66
   2   0   9   48.21    1.82
   3   0   9   24.99    1.13
   3   0   9   25.74    1.28
   4   0   9   22.73    1.32
   4   0   9   26.74    1.23
   5   0   9   87.23    2.97
   5   0   9   88.32    3.32
   6   0   9   22.21    1.28
   6   0   9   21.09    1.46
   7   0   9   29.62    1.88
   7   0   9   28.60    1.59
  -2   1   9   31.22    1.50
  -2   1   9   30.55    1.28
  -1   1   9    8.76    0.57
  -1   1   9    9.00    0.67
   0   1   9   46.58    1.50
   0   1   9   43.21    1.50
   0   1   9   45.08    1.68
   1   1   9   60.99    1.87
   1   1   9   61.18    2.05
   2   1   9   18.05    0.77
   2   1   9   19.35    0.88
   3   1   9   14.74    0.73
   3   1   9   16.13    0.88
   4   1   9   29.91    1.23
   4   1   9   29.30    1.40
   5   1   9   10.49    0.74
   5   1   9   11.97    0.93
   6   1   9    7.44    0.93
   6   1   9    6.29    0.75
   7   1   9   12.01    1.12
   7   1   9   11.38    1.28
   8   1   9    3.56    0.65
   8   1   9    3.82    0.85
  -2   2   9    1.51    0.29
  -1   2   9    0.26    0.14
   0   2   9    7.30    0.50
   0   2   9    7.32    0.41
   1   2   9    1.08    0.20
   1   2   9    1.35    0.17
   2   2   9    0.43    0.13
   2   2   9    0.36    0.11
   3   2   9    0.23    0.14
   3   2   9    0.14    0.10
   4   2   9    9.95    0.58
   4   2   9   10.86    0.72
   5   2   9   35.79    1.62
   5   2   9   33.83    1.38
   6   2   9    5.85    0.78
   6   2   9    5.75    0.64
   7   2   9   30.88    1.78
   7   2   9   31.00    1.52
   8   2   9   20.16    1.53
   8   2   9   19.72    1.26
  -2   3   9   12.71    0.71
  -1   3   9   26.22    0.98
   0   3   9   79.78    2.19
   3   3   9   35.78    1.16
   4   3   9   73.19    2.39
   4   3   9   73.36    2.09
   5   3   9   29.69    1.19
   5   3   9   31.85    1.42
   6   3   9   20.84    1.07
   6   3   9   22.26    1.28
   7   3   9   40.78    2.02
   7   3   9   39.08    1.71
   8   3   9   47.89    2.40
   8   3   9   45.43    2.01
   9   3   9    3.31    0.77
  -2   4   9    9.87    0.62
  -1   4   9   61.45    1.88
   0   4   9   94.84    2.56
   4   4   9   16.43    0.78
   4   4   9   18.54    0.72
   4   4   9   18.04    0.65
   5   4   9    0.07    0.15
   5   4   9    0.00    0.16
   6   4   9    0.03    0.19
   6   4   9    0.15    0.22
   7   4   9   -0.08    0.20
   7   4   9   -0.08    0.19
   8   4   9    0.69    0.29
   8   4   9    0.33    0.33
   9   4   9    5.31    0.74
   9   4   9    4.47    0.88
  -1   5   9    1.49    0.28
   0   5   9    0.00    0.11
   4   5   9   39.02    1.18
   4   5   9   37.04    1.33
   5   5   9   10.72    0.69
   5   5   9   10.58    0.60
   6   5   9   30.60    1.29
   6   5   9   32.54    1.50
   7   5   9   53.96    2.07
   7   5   9   59.27    2.40
   8   5   9   29.01    1.44
   8   5   9   26.74    1.63
   9   5   9    8.32    1.15
   9   5   9    7.40    0.89
  -1   6   9   24.75    1.07
   0   6   9   29.12    1.10
   1   6   9   19.62    0.74
   2   6   9   48.13    1.38
   3   6   9   79.41    2.37
   3   6   9   81.88    2.19
   4   6   9   48.43    1.62
   4   6   9   46.12    1.47
   5   6   9   23.14    1.07
   5   6   9   20.20    0.92
   6   6   9   54.25    2.15
   6   6   9   55.76    1.94
   7   6   9   40.96    1.89
   7   6   9   36.28    1.60
   8   6   9    9.09    1.11
   8   6   9    9.51    0.92
   9   6   9    7.14    0.88
   9   6   9    6.22    0.97
   0  -7  -9   10.31    0.54
   0   7   9   10.54    0.66
   1   7   9    5.26    0.42
   2   7   9   14.97    0.68
   3   7   9   12.31    0.63
   4   7   9    0.31    0.17
   4   7   9    0.07    0.15
   5   7   9   13.11    0.80
   5   7   9   11.18    0.70
   6   7   9    1.27    0.31
   6   7   9    1.03    0.33
   7   7   9    3.32    0.52
   7   7   9    3.53    0.62
   8   7   9    6.34    0.77
   8   7   9    7.16    0.95
  -1  -8  -9    1.74    0.30
   1   8   9    1.24    0.29
   2   8   9    8.60    0.59
   3   8   9   25.74    1.10
   4   8   9    6.04    0.60
   5   8   9    6.66    0.66
   5   8   9    6.75    0.69
   6   8   9   21.39    1.15
   6   8   9   22.10    1.24
   7   8   9   35.33    1.64
   7   8   9   36.35    1.82
   8   8   9   19.85    1.42
   8   8   9   19.52    1.22
   2   9   9   33.00    1.42
   3   9   9   22.10    1.10
   4   9   9   11.84    0.81
   5   9   9   20.63    1.11
   6   9   9    1.97    0.48
   6   9   9    1.87    0.42
   2   0  10   53.45    1.98
   2   0  10   48.97    1.84
   3   0  10   28.24    1.35
   3   0  10   27.01    1.27
   4   0  10   18.01    1.04
   4   0  10   16.77    1.11
   5   0  10   26.58    1.55
   5   0  10   27.21    1.41
   1   1  10   40.82    1.56
   1   1  10   41.12    1.46
   2   1  10   19.19    0.87
   2   1  10   18.36    0.90
   3   1  10   23.90    1.07
   3   1  10   26.47    1.16
   4   1  10   13.97    0.91
   4   1  10   13.80    0.82
   5   1  10    5.65    0.67
   5   1  10    5.82    0.76
   6   1  10    0.01    0.25
   6   1  10    0.31    0.30
   0   2  10    3.21    0.36
   0   2  10    3.43    0.42
   1   2  10    0.65    0.18
   1   2  10    0.64    0.17
   2   2  10    5.41    0.38
   2   2  10    5.39    0.37
   3   2  10    0.20    0.14
   3   2  10    0.21    0.14
   4   2  10    1.21    0.30
   4   2  10    1.22    0.27
   5   2  10   35.64    1.46
   5   2  10   36.15    1.64
   6   2  10   29.61    1.59
   6   2  10   28.81    1.39
   7   2  10    9.30    0.98
   7   2  10    9.49    1.09
   0   3  10    9.25    0.49
   1   3  10   36.41    1.09
   4   3  10   30.74    1.11
   4   3  10   32.74    1.23
   5   3  10   47.80    1.70
   5   3  10   49.68    1.91
   6   3  10   30.02    1.37
   6   3  10   30.82    1.56
   7   3  10   19.11    1.32
   7   3  10   19.80    1.16
   0   4  10   32.53    1.08
   4   4  10    2.15    0.24
   4   4  10    1.83    0.24
   5   4  10    0.74    0.23
   5   4  10    0.86    0.29
   6   4  10    6.51    0.76
   6   4  10    6.69    0.65
   7   4  10    1.92    0.44
   7   4  10    2.42    0.55
   8   4  10   10.45    1.02
   8   4  10   11.64    1.25
   0   5  10   -0.05    0.12
   4   5  10   33.38    1.04
   5   5  10   18.50    0.83
   5   5  10   19.24    0.94
   6   5  10    1.74    0.39
   6   5  10    1.31    0.31
   7   5  10    7.18    0.87
   7   5  10    8.92    0.82
   8   5  10   34.92    1.63
   8   5  10   31.33    1.80
   1   6  10   13.03    0.58
   4   6  10   23.26    0.88
   4   6  10   23.09    0.83
   5   6  10   34.87    1.38
   5   6  10   33.64    1.24
   6   6  10   10.05    0.77
   6   6  10   10.32    0.68
   7   6  10   15.22    1.07
   7   6  10   15.19    0.94
   8   6  10    1.91    0.47
   8   6  10    1.75    0.50
   1   7  10    1.57    0.28
   2   7  10    7.22    0.44
   3   7  10    1.89    0.27
   3   7  10    2.08    0.25
   4   7  10    1.76    0.29
   4   7  10    1.53    0.27
   5   7  10    0.47    0.20
   5   7  10    0.29    0.19
   6   7  10    0.28    0.21
   6   7  10    0.71    0.28
   7   7  10    7.18    0.74
   7   7  10    8.73    0.95
   3   8  10   16.00    0.80
   4   8  10   24.31    1.07
   4   8  10   24.83    1.11
   5   8  10   22.80    1.11
   5   8  10   23.98    1.16
   6   8  10   20.60    1.18
   6   8  10   19.95    1.08
   3   3  11   15.45    0.64
   4   3  11   26.04    0.97
   4   3  11   25.48    1.03
   5   3  11   30.01    1.32
   5   3  11   30.10    1.27
   4   4  11    0.05    0.13
   5   4  11    3.87    0.44
   5   4  11    4.46    0.47
   5   5  11   47.78    1.62
   5   5  11   48.47    1.59
   6   5  11   11.76    0.80
   6   5  11   10.80    0.72
   4   6  11   31.10    1.00
   5   6  11    7.29    0.50
   0   0   0    0.00    0.00
;
_shelx_hkl_checksum              58871
loop_
_space_group_symop_operation_xyz
'x, y, z'
'-x, -y, -z'
loop_
_atom_site_label
_atom_site_type_symbol
_atom_site_fract_x
_atom_site_fract_y
_atom_site_fract_z
_atom_site_U_iso_or_equiv
_atom_site_adp_type
_atom_site_occupancy
_atom_site_site_symmetry_order
_atom_site_calc_flag
_atom_site_refinement_flags_posn
_atom_site_refinement_flags_adp
Pd1 Pd 0.47565(2) 0.81845(2) 0.46227(2) 0.01113(8) Uani 1 1 d . .
Cl1 Cl 0.20627(9) 0.73613(9) 0.60660(9) 0.02439(17) Uani 1 1 d . .
N3 N 0.4033(3) 1.0159(3) 0.2607(3) 0.0127(4) Uani 1 1 d . .
O2 O 1.0324(2) 0.7250(2) 0.1382(2) 0.0144(4) Uani 1 1 d . .
N2 N 0.7066(3) 0.9074(3) 0.3135(3) 0.0117(4) Uani 1 1 d . .
C1 C 0.5632(3) 0.6290(3) 0.6485(3) 0.0114(5) Uani 1 1 d . .
H1A H 0.5999 0.5290 0.6184 0.017 Uiso 1 1 calc R U
H1B H 0.4695 0.6113 0.7590 0.017 Uiso 1 1 calc R U
H1C H 0.6616 0.6570 0.6563 0.017 Uiso 1 1 calc R U
C2 C 0.2496(3) 1.0676(3) 0.2372(3) 0.0147(5) Uani 1 1 d . .
H2 H 0.1520 1.0197 0.3248 0.018 Uiso 1 1 calc R U
C3 C 0.9623(3) 0.6926(3) 0.3186(3) 0.0145(5) Uani 1 1 d . .
H3A H 1.0564 0.6455 0.3693 0.017 Uiso 1 1 calc R U
H3B H 0.8797 0.6131 0.3721 0.017 Uiso 1 1 calc R U
C12 C 1.1123(4) 0.5775(3) 0.0992(4) 0.0173(6) Uani 1 1 d . .
H12A H 1.2078 0.5256 0.1456 0.026 Uiso 1 1 calc R U
H12B H 1.1573 0.6028 -0.0252 0.026 Uiso 1 1 calc R U
H12C H 1.0265 0.5029 0.1504 0.026 Uiso 1 1 calc R U
C5 C 0.8704(3) 0.8521(3) 0.3506(4) 0.0155(5) Uani 1 1 d . .
H5A H 0.8464 0.8379 0.4716 0.019 Uiso 1 1 calc R U
H5B H 0.9471 0.9370 0.2778 0.019 Uiso 1 1 calc R U
C6 C 0.5407(3) 1.0877(3) 0.1370(3) 0.0128(5) Uani 1 1 d . .
C7 C 0.7029(3) 1.0258(3) 0.1763(3) 0.0135(5) Uani 1 1 d . .
H7 H 0.8045 1.0736 0.1000 0.016 Uiso 1 1 calc R U
C8 C 0.5281(3) 1.2095(3) -0.0134(4) 0.0164(6) Uani 1 1 d . .
H8 H 0.6269 1.2577 -0.0981 0.020 Uiso 1 1 calc R U
C9 C 0.3670(4) 1.2602(3) -0.0383(4) 0.0180(6) Uani 1 1 d . .
H9 H 0.3543 1.3421 -0.1411 0.022 Uiso 1 1 calc R U
C10 C 0.2271(3) 1.1886(3) 0.0898(4) 0.0170(6) Uani 1 1 d . .
H10 H 0.1158 1.2221 0.0770 0.020 Uiso 1 1 calc R U
loop_
_atom_site_aniso_label
_atom_site_aniso_U_11
_atom_site_aniso_U_22
_atom_site_aniso_U_33
_atom_site_aniso_U_23
_atom_site_aniso_U_13
_atom_site_aniso_U_12
Pd1 0.00971(11) 0.01144(12) 0.01013(11) -0.00247(8) -0.00195(8) -0.00217(7)
Cl1 0.0168(3) 0.0274(4) 0.0236(4) -0.0051(3) -0.0013(3) -0.0087(3)
N3 0.0116(10) 0.0139(11) 0.0132(11) -0.0059(9) -0.0033(9) -0.0021(8)
O2 0.0147(9) 0.0122(9) 0.0121(9) -0.0023(7) -0.0034(7) 0.0000(7)
N2 0.0080(10) 0.0137(11) 0.0148(11) -0.0082(9) -0.0017(8) -0.0017(8)
C1 0.0107(12) 0.0054(11) 0.0173(13) -0.0012(10) -0.0088(10) 0.0019(9)
C2 0.0106(12) 0.0163(13) 0.0188(14) -0.0089(11) -0.0054(11) 0.0008(10)
C3 0.0129(12) 0.0155(13) 0.0119(13) -0.0017(10) -0.0055(10) 0.0003(10)
C12 0.0172(13) 0.0157(14) 0.0182(14) -0.0055(11) -0.0069(11) 0.0002(10)
C5 0.0143(13) 0.0164(13) 0.0180(14) -0.0068(11) -0.0063(11) -0.0021(10)
C6 0.0132(12) 0.0113(12) 0.0143(13) -0.0064(10) -0.0031(10) -0.0016(10)
C7 0.0104(12) 0.0131(13) 0.0159(13) -0.0057(10) -0.0014(10) -0.0033(10)
C8 0.0180(13) 0.0141(13) 0.0157(13) -0.0050(10) -0.0033(11) -0.0037(10)
C9 0.0249(15) 0.0123(13) 0.0182(14) -0.0057(11) -0.0109(12) 0.0020(11)
C10 0.0155(13) 0.0183(14) 0.0234(15) -0.0129(11) -0.0105(11) 0.0037(11)
loop_
_atom_type_symbol
_atom_type_description
_atom_type_scat_dispersion_real
_atom_type_scat_dispersion_imag
_atom_type_scat_source
C C 0.0033 0.0016 'International Tables Vol C Tables 4.2.6.8 and 6.1.1.4'
N N 0.0061 0.0033 'International Tables Vol C Tables 4.2.6.8 and 6.1.1.4'
O O 0.0106 0.0060 'International Tables Vol C Tables 4.2.6.8 and 6.1.1.4'
Cl Cl 0.1484 0.1585 'International Tables Vol C Tables 4.2.6.8 and 6.1.1.4'
Pd Pd -0.9988 1.0072 'International Tables Vol C Tables 4.2.6.8 and 6.1.1.4'
H H 0.0000 0.0000 'International Tables Vol C Tables 4.2.6.8 and 6.1.1.4'
loop_
_geom_angle_atom_site_label_1
_geom_angle_atom_site_label_2
_geom_angle_atom_site_label_3
_geom_angle
N2 Pd1 C1 97.37(9)
N2 Pd1 N3 78.80(8)
C1 Pd1 N3 176.12(9)
N2 Pd1 Cl1 174.18(6)
C1 Pd1 Cl1 88.36(7)
N3 Pd1 Cl1 95.46(6)
C2 N3 C6 118.3(2)
C2 N3 Pd1 129.40(18)
C6 N3 Pd1 112.12(17)
C3 O2 C12 111.06(19)
C7 N2 C5 117.8(2)
C7 N2 Pd1 114.94(17)
C5 N2 Pd1 127.27(17)
Pd1 C1 H1A 109.5
Pd1 C1 H1B 109.5
H1A C1 H1B 109.5
Pd1 C1 H1C 109.5
H1A C1 H1C 109.5
H1B C1 H1C 109.5
N3 C2 C10 122.4(2)
N3 C2 H2 118.8
C10 C2 H2 118.8
O2 C3 C5 108.2(2)
O2 C3 H3A 110.1
C5 C3 H3A 110.1
O2 C3 H3B 110.1
C5 C3 H3B 110.1
H3A C3 H3B 108.4
O2 C12 H12A 109.5
O2 C12 H12B 109.5
H12A C12 H12B 109.5
O2 C12 H12C 109.5
H12A C12 H12C 109.5
H12B C12 H12C 109.5
N2 C5 C3 111.9(2)
N2 C5 H5A 109.2
C3 C5 H5A 109.2
N2 C5 H5B 109.2
C3 C5 H5B 109.2
H5A C5 H5B 107.9
N3 C6 C8 122.6(2)
N3 C6 C7 114.4(2)
C8 C6 C7 123.1(2)
N2 C7 C6 119.5(2)
N2 C7 H7 120.3
C6 C7 H7 120.3
C6 C8 C9 118.6(3)
C6 C8 H8 120.7
C9 C8 H8 120.7
C10 C9 C8 118.5(3)
C10 C9 H9 120.8
C8 C9 H9 120.8
C9 C10 C2 119.6(2)
C9 C10 H10 120.2
C2 C10 H10 120.2
loop_
_geom_bond_atom_site_label_1
_geom_bond_atom_site_label_2
_geom_bond_distance
Pd1 N2 2.054(2)
Pd1 C1 2.067(2)
Pd1 N3 2.129(2)
Pd1 Cl1 2.3020(7)
N3 C2 1.333(3)
N3 C6 1.353(3)
O2 C3 1.426(3)
O2 C12 1.427(3)
N2 C7 1.274(3)
N2 C5 1.469(3)
C1 H1A 0.9800
C1 H1B 0.9800
C1 H1C 0.9800
C2 C10 1.384(4)
C2 H2 0.9500
C3 C5 1.512(4)
C3 H3A 0.9900
C3 H3B 0.9900
C12 H12A 0.9800
C12 H12B 0.9800
C12 H12C 0.9800
C5 H5A 0.9900
C5 H5B 0.9900
C6 C8 1.382(4)
C6 C7 1.466(4)
C7 H7 0.9500
C8 C9 1.399(4)
C8 H8 0.9500
C9 C10 1.378(4)
C9 H9 0.9500
C10 H10 0.9500
loop_
_geom_torsion_atom_site_label_1
_geom_torsion_atom_site_label_2
_geom_torsion_atom_site_label_3
_geom_torsion_atom_site_label_4
_geom_torsion
C6 N3 C2 C10 1.6(4)
Pd1 N3 C2 C10 -173.42(19)
C12 O2 C3 C5 -176.5(2)
C7 N2 C5 C3 -104.9(3)
Pd1 N2 C5 C3 76.7(3)
O2 C3 C5 N2 72.8(3)
C2 N3 C6 C8 -1.4(4)
Pd1 N3 C6 C8 174.4(2)
C2 N3 C6 C7 178.4(2)
Pd1 N3 C6 C7 -5.8(3)
C5 N2 C7 C6 -178.3(2)
Pd1 N2 C7 C6 0.3(3)
N3 C6 C7 N2 3.9(4)
C8 C6 C7 N2 -176.3(3)
N3 C6 C8 C9 0.0(4)
C7 C6 C8 C9 -179.8(2)
C6 C8 C9 C10 1.2(4)
C8 C9 C10 C2 -1.1(4)
N3 C2 C10 C9 -0.3(4)
