#------------------------------------------------------------------------------
#$Date: 2019-11-24 12:26:56 +0200 (Sun, 24 Nov 2019) $
#$Revision: 237902 $
#$URL: file:///home/coder/svn-repositories/cod/cif/4/08/89/4088973.cif $
#------------------------------------------------------------------------------
#
# This file is available in the Crystallography Open Database (COD),
# http://www.crystallography.net/
#
# All data on this site have been placed in the public domain by the
# contributors.
#
data_4088973
loop_
_publ_author_name
'Brown, Loren C.'
'Ressegue, Emily'
'Merola, Joseph S.'
_publ_section_title
;
 Rapid Access to Derivatized, Dimeric, Ring-Substituted
 Dichloro(cyclopentadienyl)rhodium(III) and Iridium(III) Complexes
;
_journal_issue                   24
_journal_name_full               Organometallics
_journal_page_first              4014
_journal_paper_doi               10.1021/acs.organomet.6b00580
_journal_volume                  35
_journal_year                    2016
_chemical_formula_moiety         'C28 H42 Cl4 Rh2'
_chemical_formula_sum            'C28 H42 Cl4 Rh2'
_chemical_formula_weight         726.23
_space_group_crystal_system      triclinic
_space_group_IT_number           2
_space_group_name_Hall           '-P 1'
_space_group_name_H-M_alt        'P -1'
_atom_sites_solution_hydrogens   geom
_atom_sites_solution_primary     direct
_audit_creation_date             2016-08-25
_audit_creation_method
;
Olex2 1.2
(compiled 2016.02.19 svn.r3266 for OlexSys, GUI svn.r5155)
;
_cell_angle_alpha                99.237(3)
_cell_angle_beta                 109.338(3)
_cell_angle_gamma                96.151(3)
_cell_formula_units_Z            1
_cell_length_a                   8.2629(3)
_cell_length_b                   8.7503(3)
_cell_length_c                   10.5777(3)
_cell_measurement_reflns_used    9286
_cell_measurement_temperature    100.15(10)
_cell_measurement_theta_max      32.1940
_cell_measurement_theta_min      4.1200
_cell_volume                     701.66(4)
_computing_cell_refinement       'CrysAlisPro 1.171.38.41 (Rigaku OD, 2015)'
_computing_data_collection       'CrysAlisPro 1.171.38.41 (Rigaku OD, 2015)'
_computing_data_reduction        'CrysAlisPro 1.171.38.41 (Rigaku OD, 2015)'
_computing_molecular_graphics    'Olex2 (Dolomanov et al., 2009)'
_computing_publication_material  'Olex2 (Dolomanov et al., 2009)'
_computing_structure_refinement  'ShelXL (Sheldrick, 2015)'
_computing_structure_solution    'ShelXT (Sheldrick, 2015)'
_diffrn_ambient_environment      N~2~
_diffrn_ambient_temperature      100.15(10)
_diffrn_detector                 'CCD plate'
_diffrn_detector_area_resol_mean 8.0061
_diffrn_detector_type            Eos
_diffrn_measured_fraction_theta_full 0.998
_diffrn_measured_fraction_theta_max 0.936
_diffrn_measurement_details
;
List of Runs (angles in degrees, time in seconds):

  # Type    Start    End  Width  t~exp~   \w     \q     \k     \f   Frames
--------------------------------------------------------------------------
  1  \w   -102.00   3.00   1.00    2.00    --  -29.69 -77.00  90.00  105
  2  \w    -71.00  33.00   1.00    2.00    --  -29.69  92.00-148.00  104
  3  \w   -102.00   3.00   1.00    2.00    --  -29.69 -77.00 -90.00  105
  4  \w   -102.00   3.00   1.00    2.00    --  -29.69 -77.00   0.00  105
  5  \w   -105.00  37.00   1.00    2.00    --  -29.69 -19.00  90.00  142
  6  \w   -109.00 -35.00   1.00    2.00    --  -29.69-178.00-120.00   74
  7  \w   -109.00 -35.00   1.00    2.00    --  -29.69-178.00 -60.00   74
  8  \w    -61.00  44.00   1.00    2.00    --  -29.69  38.00-150.00  105
  9  \w   -102.00   3.00   1.00    2.00    --  -29.69 -77.00-180.00  105
 10  \w   -109.00 -35.00   1.00    2.00    --  -29.69-178.00-180.00   74
 11  \w   -109.00 -35.00   1.00    2.00    --  -29.69-178.00   0.00   74
;
_diffrn_measurement_device       'four-circle diffractometer'
_diffrn_measurement_device_type  'Xcalibur, Eos, Gemini ultra'
_diffrn_measurement_method       '\w scans'
_diffrn_orient_matrix_type
'CrysAlisPro convention (1999,Acta A55,543-557)'
_diffrn_orient_matrix_UB_11      -0.0059148000
_diffrn_orient_matrix_UB_12      -0.0205774000
_diffrn_orient_matrix_UB_13      0.0607026000
_diffrn_orient_matrix_UB_21      -0.0051655000
_diffrn_orient_matrix_UB_22      -0.0803345000
_diffrn_orient_matrix_UB_23      -0.0282964000
_diffrn_orient_matrix_UB_31      0.0920180000
_diffrn_orient_matrix_UB_32      0.0085700000
_diffrn_orient_matrix_UB_33      0.0282025000
_diffrn_radiation_monochromator  graphite
_diffrn_radiation_probe          x-ray
_diffrn_radiation_type           MoK\a
_diffrn_radiation_wavelength     0.71073
_diffrn_reflns_av_R_equivalents  0.0481
_diffrn_reflns_av_unetI/netI     0.0462
_diffrn_reflns_Laue_measured_fraction_full 0.998
_diffrn_reflns_Laue_measured_fraction_max 0.936
_diffrn_reflns_limit_h_max       12
_diffrn_reflns_limit_h_min       -12
_diffrn_reflns_limit_k_max       12
_diffrn_reflns_limit_k_min       -13
_diffrn_reflns_limit_l_max       15
_diffrn_reflns_limit_l_min       -15
_diffrn_reflns_number            17873
_diffrn_reflns_point_group_measured_fraction_full 0.998
_diffrn_reflns_point_group_measured_fraction_max 0.936
_diffrn_reflns_theta_full        30.500
_diffrn_reflns_theta_max         32.380
_diffrn_reflns_theta_min         3.619
_diffrn_source                   'fine-focus sealed X-ray tube'
_diffrn_source_type              'Enhance (Mo) X-ray Source'
_exptl_absorpt_coefficient_mu    1.573
_exptl_absorpt_correction_T_max  0.884
_exptl_absorpt_correction_T_min  0.743
_exptl_absorpt_correction_type   analytical
_exptl_absorpt_process_details
;
CrysAlisPro 1.171.38.41 (Rigaku Oxford Diffraction, 2015)
Analytical numeric absorption correction using a multifaceted crystal
			model based on expressions derived by R.C. Clark & J.S. Reid.
(Clark, R. C. & Reid, J. S. (1995). Acta Cryst. A51, 887-897)
Empirical absorption correction using spherical harmonics,
 implemented in SCALE3 ABSPACK scaling algorithm.
;
_exptl_crystal_colour            red
_exptl_crystal_colour_primary    red
_exptl_crystal_density_diffrn    1.719
_exptl_crystal_description       block
_exptl_crystal_F_000             368
_exptl_crystal_size_max          0.246
_exptl_crystal_size_mid          0.18
_exptl_crystal_size_min          0.112
_refine_diff_density_max         1.501
_refine_diff_density_min         -0.600
_refine_diff_density_rms         0.125
_refine_ls_extinction_method     none
_refine_ls_goodness_of_fit_ref   1.026
_refine_ls_hydrogen_treatment    constr
_refine_ls_matrix_type           full
_refine_ls_number_parameters     158
_refine_ls_number_reflns         4707
_refine_ls_number_restraints     0
_refine_ls_restrained_S_all      1.026
_refine_ls_R_factor_all          0.0360
_refine_ls_R_factor_gt           0.0305
_refine_ls_shift/su_max          0.001
_refine_ls_shift/su_mean         0.000
_refine_ls_structure_factor_coef Fsqd
_refine_ls_weighting_details
'w=1/[\s^2^(Fo^2^)+(0.0226P)^2^+0.6652P] where P=(Fo^2^+2Fc^2^)/3'
_refine_ls_weighting_scheme      calc
_refine_ls_wR_factor_gt          0.0639
_refine_ls_wR_factor_ref         0.0668
_reflns_Friedel_coverage         0.000
_reflns_number_gt                4253
_reflns_number_total             4707
_reflns_threshold_expression     'I > 2\s(I)'
_cod_data_source_file            om6b00580_si_002.cif
_cod_data_source_block           3o_lbx-078abs
_cod_original_cell_volume        701.66(5)
_cod_database_code               4088973
_chemical_oxdiff_formula         'C28 H42 Cl4 Rh2'
_chemical_oxdiff_usercomment     LBI105
_shelx_space_group_comment
;
The symmetry employed for this shelxl refinement is uniquely defined
by the following loop, which should always be used as a source of
symmetry information in preference to the above space-group names.
They are only intended as comments.
;
_reflns_odcompleteness_completeness 99.76
_reflns_odcompleteness_iscentric 1
_reflns_odcompleteness_theta     26.32
_olex2_refinement_description
;
1. Fixed Uiso
 At 1.2 times of:
  All C(H) groups, All C(H,H) groups
 At 1.5 times of:
  All C(H,H,H) groups
2.a Ternary CH refined with riding coordinates:
 C10(H10)
2.b Secondary CH2 refined with riding coordinates:
 C11(H11A,H11B), C12(H12A,H12B), C13(H13A,H13B), C14(H14A,H14B)
2.c Idealised Me refined as rotating group:
 C6(H6A,H6B,H6C), C7(H7A,H7B,H7C), C8(H8A,H8B,H8C), C9(H9A,H9B,H9C)
;
_shelx_res_file
;
    lbx-078abs.res created by SHELXL-2014/7

TITL lbx-078abs_a.res in P-1
REM Old TITL LBX-078abs in P-1 #2
REM SHELXT solution in P-1
REM R1 0.051, Rweak 0.007, Alpha 0.043, Orientation as input
REM Formula found by SHELXT: C14 Cl2 Rh
CELL 0.71073 8.262925 8.750263 10.577678 99.2371 109.3384 96.1512
ZERR 1 0.000311 0.000346 0.000343 0.0031 0.0033 0.0032
LATT 1
SFAC C H Cl Rh
UNIT 28 42 4 2

L.S. 8
PLAN  1
TEMP -173
BOND $H
LIST 6
fmap 2 53
acta 61
MORE -1
CONF
REM <olex2.extras>
REM <HklSrc "%.\\LBX-078abs.hkl">
REM </olex2.extras>

WGHT    0.022600    0.665200
FVAR       0.69707
RH1   4    0.793731    0.411882    0.855803    11.00000    0.00798    0.00876 =
         0.00926    0.00069    0.00285    0.00173
CL1   3    0.742517    0.664059    0.802897    11.00000    0.01755    0.01086 =
         0.02435    0.00445    0.00392    0.00302
CL2   3    1.103783    0.483250    0.893485    11.00000    0.00970    0.01712 =
         0.01127   -0.00186    0.00472    0.00062
C1    1    0.783895    0.172564    0.759698    11.00000    0.01226    0.00879 =
         0.01095    0.00025    0.00330    0.00244
C2    1    0.728714    0.173906    0.874042    11.00000    0.01072    0.00954 =
         0.00974    0.00075    0.00188    0.00044
C3    1    0.577178    0.250222    0.850336    11.00000    0.00930    0.01058 =
         0.01553    0.00056    0.00426   -0.00059
C4    1    0.538250    0.293723    0.719966    11.00000    0.00912    0.01061 =
         0.01427    0.00166    0.00135   -0.00053
C5    1    0.670250    0.252601    0.664586    11.00000    0.01280    0.01058 =
         0.00977    0.00017    0.00053   -0.00009
C6    1    0.932431    0.096433    0.745292    11.00000    0.02065    0.01697 =
         0.01684    0.00312    0.00996    0.00893
AFIX 137
H6A   2    0.962480    0.127130    0.669643    11.00000   -1.50000
H6B   2    0.898633   -0.018068    0.726260    11.00000   -1.50000
H6C   2    1.033441    0.130386    0.830540    11.00000   -1.50000
AFIX   0
C7    1    0.809681    0.102017    0.994018    11.00000    0.01866    0.01428 =
         0.01619    0.00747    0.00767    0.00388
AFIX 137
H7A   2    0.936033    0.137389    1.030115    11.00000   -1.50000
H7B   2    0.784044   -0.012774    0.964977    11.00000   -1.50000
H7C   2    0.762004    0.134342    1.065556    11.00000   -1.50000
AFIX   0
C8    1    0.477914    0.272761    0.945597    11.00000    0.01323    0.01950 =
         0.02011    0.00231    0.00899    0.00253
AFIX 137
H8A   2    0.559415    0.316836    1.039045    11.00000   -1.50000
H8B   2    0.412814    0.171201    0.943100    11.00000   -1.50000
H8C   2    0.396593    0.344986    0.916950    11.00000   -1.50000
AFIX   0
C9    1    0.386764    0.367876    0.651834    11.00000    0.01351    0.02077 =
         0.02132    0.00616    0.00134    0.00495
AFIX 137
H9A   2    0.326378    0.396422    0.715516    11.00000   -1.50000
H9B   2    0.306310    0.293326    0.570090    11.00000   -1.50000
H9C   2    0.428279    0.462503    0.625223    11.00000   -1.50000
AFIX   0
C10   1    0.673013    0.272874    0.526529    11.00000    0.01818    0.01977 =
         0.01274    0.00381    0.00342    0.00113
AFIX  13
H10   2    0.588018    0.343382    0.492535    11.00000   -1.20000
AFIX   0
C11   1    0.855884    0.346747    0.519256    11.00000    0.02137    0.01635 =
         0.01082   -0.00044    0.00011    0.00600
AFIX  23
H11A  2    0.852237    0.453097    0.498795    11.00000   -1.20000
H11B  2    0.952143    0.353796    0.607003    11.00000   -1.20000
AFIX   0
C12   1    0.879534    0.233462    0.403587    11.00000    0.03216    0.03038 =
         0.02493   -0.00284    0.01699   -0.00469
AFIX  23
H12A  2    0.960359    0.162719    0.441356    11.00000   -1.20000
H12B  2    0.927783    0.292373    0.347930    11.00000   -1.20000
AFIX   0
C13   1    0.698671    0.138239    0.315570    11.00000    0.03246    0.04868 =
         0.00924   -0.00813    0.01064   -0.01454
AFIX  23
H13A  2    0.632071    0.196997    0.249247    11.00000   -1.20000
H13B  2    0.707898    0.036020    0.264988    11.00000   -1.20000
AFIX   0
C14   1    0.613727    0.115216    0.419906    11.00000    0.03313    0.02587 =
         0.01475   -0.00164    0.00920   -0.01035
AFIX  23
H14A  2    0.652923    0.027453    0.463967    11.00000   -1.20000
H14B  2    0.485323    0.092313    0.375808    11.00000   -1.20000
AFIX   0
HKLF 4

REM  lbx-078abs_a.res in P-1
REM R1 =  0.0305 for    4253 Fo > 4sig(Fo)  and  0.0360 for all    4707 data
REM    158 parameters refined using      0 restraints

END

WGHT      0.0226      0.6652

REM Highest difference peak  1.501,  deepest hole -0.600,  1-sigma level  0.125
Q1    1   0.7213  0.0590  0.3342  11.00000  0.05    1.50
;
_shelx_res_checksum              78446
_shelx_hkl_file
;
   0   0  -2  569.13   20.26
   0   0  -2  523.43   21.90
   0   0   2  536.83   22.20
   0   0   2  564.39   19.90
   0   0   2  536.13   20.88
   0   0   3 3342.95   83.40
   0   0   3 3181.82   90.91
   0   0   3 3297.64   86.15
   0   0   3 3327.46   88.46
   0   0  -3 3427.39   86.81
   0   0  -3 3265.36   91.29
   0   0  -4 1986.82   59.61
   0   0  -4 1838.07   64.47
   0   0   4 1873.97   64.42
   0   0   4 1872.40   61.11
   0   0   4 1913.77   59.05
   0   0   4 1922.52   55.58
   0   0   5  290.66   17.42
   0   0  -5  280.20   22.99
   0   0   5  296.86   21.43
   0   0   5  296.89   19.73
   0   0   5  284.15   23.03
   0   0  -5  313.92   20.17
   0   0  -6  734.13   35.45
   0   0   6  589.72   38.27
   0   0  -6  692.65   40.72
   0   0   6  666.12   40.59
   0   0   6  649.03   33.69
   0   0   6  698.32   37.26
   0   0   6  721.70   31.44
   0   0  -7  933.94   43.68
   0   0   7  886.28   52.08
   0   0   7  890.48   38.55
   0   0  -7  846.53   49.41
   0   0   7  932.04   46.95
   0   0   7  958.40   44.31
   0   0   7  859.34   50.17
   0   0  -8  459.67   37.73
   0   0  -8  520.28   32.72
   0   0   8  518.96   32.91
   0   0   8  426.02   36.70
   0   0   8  478.91   27.89
   0   0   8  477.55   39.77
   0   0   8  399.88   31.83
   0   0  -9   10.25    5.27
   0   0   9    5.51    8.14
   0   0   9    4.08    6.19
   0   0   9    9.31    4.20
   0   0  -9    3.24    6.50
   0   0   9    4.53    5.37
   0   0 -10  167.19   25.76
   0   0  10  137.88   24.55
   0   0  10  195.46   24.54
   0   0 -11  312.72   37.18
   0   0  11  376.72   36.14
   0   0  11  266.48   38.86
   0   0 -11  365.14   36.05
   0   0 -12    0.81    7.40
   0   0  12    4.07   10.42
   0   0 -12   20.14   10.80
   0   0  13    5.46    9.27
   0   0 -13    9.12    8.10
   0   0 -14  117.28   27.31
   0  -1  14  132.74   29.23
   0   1 -14   93.29   24.32
   0  -1  13   -6.90    9.87
   0   1 -13    1.71    5.86
   0  -1  12  490.91   50.51
   0  -1  12  469.57   42.35
   0   1 -12  529.72   51.13
   0   1 -11  462.09   45.05
   0  -1  11  341.70   40.48
   0  -1  11  392.67   36.60
   0   1 -10   26.71   11.70
   0  -1  10   36.80   11.85
   0  -1  10   32.24   11.82
   0  -1  10   51.05   12.84
   0  -1   9 1056.12   50.18
   0  -1   9 1054.27   63.59
   0  -1   9 1048.58   48.94
   0   1  -9  972.77   60.59
   0  -1   9  961.11   54.04
   0   1  -9 1056.54   53.03
   0  -1   9  966.99   59.44
   0  -1   8  764.18   38.29
   0   1  -8  726.34   41.00
   0  -1   8  705.29   42.88
   0  -1   8  715.25   48.73
   0  -1   8  674.27   45.73
   0   1  -8  702.87   47.19
   0  -1   8  763.38   39.78
   0  -1   7  248.58   26.09
   0   1  -7  240.71   24.94
   0  -1   7  235.18   22.29
   0   1  -7  240.44   21.26
   0  -1   7  250.50   24.80
   0  -1   7  231.37   19.82
   0  -1   7  256.35   19.93
   0  -1   6  102.44   11.47
   0  -1   6  107.36   12.77
   0   1  -6  130.27   16.99
   0  -1   6  105.33   15.70
   0  -1   6  108.84   15.09
   0  -1   6  131.01   15.25
   0   1  -6  142.87   15.15
   0  -1   5 1679.66   62.31
   0   1  -5 1463.97   59.11
   0   1  -5 1535.07   54.47
   0  -1   5 1494.84   53.33
   0  -1   5 1471.50   49.43
   0  -1   5 1479.19   55.51
   0  -1   5 1466.34   57.09
   0   1  -4 1970.64   61.36
   0  -1   4 1870.26   63.10
   0   1  -4 1963.09   49.21
   0   1  -4 1997.62   66.03
   0  -1   4 1918.33   62.15
   0  -1   4 1998.93   56.41
   0  -1   3 2013.76   59.76
   0   1  -3 2073.69   62.65
   0  -1   3 1982.04   60.10
   0   1  -3 1950.76   52.93
   0   1  -3 2149.82   59.91
   0  -1   3 2127.23   54.71
   0   1  -2  790.86   23.66
   0  -1   2  733.35   25.80
   0   1  -2  720.56   26.57
   0  -1   2  715.22   25.21
   0  -1  -2 1760.73   51.27
   0   1   2 1745.57   44.87
   0   1   2 1776.61   50.92
   0  -1  -2 1708.05   50.46
   0   1   2 1745.79   51.86
   0  -1  -2 1697.51   47.92
   0   1   2 1664.33   52.81
   0   1   3 5817.43  150.63
   0   1   3 6048.98  138.39
   0   1   3 5846.50  154.10
   0  -1  -3 5761.28  151.55
   0  -1  -3 6049.87  150.20
   0   1   3 6129.02  137.01
   0  -1  -3 6320.81  146.33
   0   1   3 5920.23  149.81
   0  -1  -4 3326.87   98.12
   0   1   4 3388.18   95.40
   0   1   4 3080.66   78.31
   0  -1  -4 3308.45   95.18
   0   1   4 3344.98   80.90
   0  -1  -4 3476.67   90.85
   0   1   4 3367.08   78.31
   0   1   4 3265.41   94.63
   0   1   4 3267.63  100.14
   0  -1  -5    5.52    3.47
   0   1   5    2.67    3.76
   0   1   5    0.71    5.30
   0   1   5    3.64    4.90
   0  -1  -5    0.48    4.35
   0   1   5    4.44    1.47
   0  -1  -5    2.23    4.36
   0   1   5    1.62    1.76
   0   1   6 2667.57   71.78
   0   1   6 2590.89   94.40
   0  -1  -6 2678.41   82.25
   0  -1  -6 2575.15   92.42
   0   1   6 2437.53   92.57
   0  -1  -6 2528.03   87.29
   0   1   6 2416.97   86.07
   0   1   6 2686.28   87.33
   0   1   7  308.48   26.61
   0  -1  -7  329.02   27.43
   0   1   7  388.83   33.24
   0  -1  -7  370.08   25.38
   0   1   7  345.94   27.17
   0   1   7  328.46   18.69
   0   1   7  355.60   31.66
   0  -1  -7  316.90   29.25
   0   1   8   48.64   14.72
   0  -1  -8   24.19    9.71
   0   1   8   35.84    9.20
   0  -1  -8   21.46    9.04
   0  -1  -8   39.45    8.90
   0   1   8   24.31    8.58
   0  -1  -9 1037.40   58.46
   0   1   9 1140.36   57.80
   0   1   9 1103.18   59.79
   0   1   9 1092.59   67.06
   0  -1  -9 1140.96   66.25
   0   1  10  113.81   19.52
   0  -1 -10  107.26   20.49
   0  -1 -10  141.38   21.59
   0   1  10  166.18   22.00
   0   1  10   96.74   21.88
   0   1  11    7.27    5.74
   0  -1 -11   -1.57    4.87
   0   1  11    0.20    9.00
   0  -1 -11    9.04    9.69
   0  -1 -12   51.72   14.96
   0   1  12   12.96   13.02
   0  -1 -12   42.59   15.64
   0   1  13  101.27   24.64
   0  -1 -13   80.84   21.68
   0  -2  14   13.95   11.17
   0   2 -14   30.46   15.22
   0   2 -13   40.50   15.91
   0  -2  13   17.94   13.14
   0  -2  12  500.17   43.36
   0   2 -12  507.46   50.31
   0  -2  12  417.42   45.67
   0  -2  11  243.39   32.92
   0  -2  11  226.05   27.60
   0   2 -11  224.16   31.48
   0  -2  11  186.25   28.27
   0  -2  10   20.69   11.04
   0   2 -10   12.80    8.46
   0  -2  10   16.00    8.24
   0  -2  10   12.80    7.34
   0  -2  10   15.20    9.18
   0   2 -10   20.10    8.15
   0  -2   9  999.66   55.28
   0  -2   9  899.52   55.94
   0   2  -9  942.51   59.30
   0  -2   9 1039.02   52.91
   0   2  -9 1063.81   54.52
   0  -2   9  887.15   57.90
   0  -2   8 1653.38   67.53
   0  -2   8 1497.95   70.89
   0   2  -8 1658.21   68.45
   0  -2   8 1582.86   57.72
   0   2  -8 1764.57   78.19
   0  -2   8 1470.28   72.80
   0  -2   8 1541.82   68.85
   0  -2   7  451.74   30.77
   0   2  -7  453.02   31.21
   0  -2   7  469.46   33.33
   0   2  -7  480.04   35.41
   0  -2   7  459.62   31.86
   0   2  -7  471.02   18.34
   0  -2   7  469.50   35.36
   0   2  -6 1598.48   61.49
   0  -2   6 1660.43   66.83
   0   2  -6 1644.05   47.06
   0  -2   6 1564.84   62.33
   0   2  -6 1549.55   65.93
   0  -2   6 1594.75   63.34
   0   2  -5 2662.64   90.10
   0  -2   5 2674.64   86.20
   0   2  -5 3011.70   75.40
   0  -2   5 2697.10   86.59
   0   2  -5 2880.52   87.47
   0  -2   5 2761.26   89.80
   0   2  -4  881.71   31.91
   0  -2   4  805.22   35.51
   0  -2   4  817.62   34.56
   0  -2   4  802.84   36.02
   0   2  -4  832.05   37.51
   0  -2   3  781.23   31.85
   0   2  -3  725.14   31.53
   0   2  -3  802.51   29.98
   0  -2   3  756.19   29.44
   0  -2   3  787.31   31.29
   0  -2   3  819.38   22.75
   0  -2   2  363.90   15.05
   0  -2   2  304.05   16.91
   0   2  -2  342.75   17.41
   0   2  -2  347.99   16.73
   0   2  -1 4164.12  104.69
   0  -2   1 4030.66  103.20
   0  -2   1 4144.15   96.85
   0   2   0  101.08    9.18
   0   2   0  108.10    9.18
   0  -2   0   93.27    8.42
   0   2   1    4.27    3.34
   0   2   1   -0.64    3.13
   0  -2  -1    8.51    2.45
   0  -2  -1    2.30    2.91
   0  -2  -2   83.47    9.40
   0  -2  -2   82.47    8.34
   0   2   2   56.83    7.93
   0  -2  -2   74.95    7.93
   0   2   2   79.51    8.02
   0   2   3 3271.34   92.60
   0  -2  -3 3265.56   92.45
   0  -2  -3 3360.03   88.44
   0   2   3 3308.88   95.49
   0  -2  -3 3487.58   92.58
   0  -2  -4  584.43   31.11
   0  -2  -4  529.32   30.08
   0   2   4  520.77   22.86
   0   2   4  561.25   31.55
   0   2   4  579.44   23.59
   0   2   4  536.33   29.94
   0  -2  -4  550.44   27.19
   0   2   5  437.46   19.31
   0   2   5  422.72   19.05
   0  -2  -5  422.51   24.99
   0  -2  -5  384.55   27.19
   0   2   5  392.01   27.44
   0   2   5  379.43   28.19
   0  -2  -5  458.08   30.18
   0  -2  -6 1186.49   56.79
   0  -2  -6 1240.81   49.35
   0  -2  -6 1119.55   53.15
   0   2   6 1177.97   54.08
   0   2   6 1180.22   55.25
   0   2   6 1263.76   36.68
   0   2   6 1184.91   36.03
   0   2   6 1236.23   59.66
   0   2   6 1023.73   32.04
   0   2   7  213.89   25.19
   0   2   7  182.64   21.09
   0   2   7  196.71   22.19
   0  -2  -7  202.13   22.28
   0  -2  -7  201.39   19.09
   0  -2  -7  207.26   23.75
   0   2   8   43.56   11.85
   0  -2  -8   25.47    9.40
   0  -2  -8   42.99   11.84
   0  -2  -8   26.63    7.69
   0   2   8   25.42    9.59
   0   2   8   49.64   14.11
   0   2   9  265.44   28.60
   0  -2  -9  313.61   31.22
   0   2   9  237.86   27.03
   0   2   9  245.72   31.49
   0  -2  -9  272.16   31.27
   0   2  10   61.42   18.12
   0  -2 -10  108.53   20.84
   0   2  10   75.43   16.24
   0  -2 -10   75.07   16.26
   0   2  10   93.62   17.94
   0  -2 -11  115.37   21.54
   0  -2 -11   71.50   18.97
   0   2  11   94.72   22.21
   0   2  11   83.51   17.93
   0   2  12  379.71   45.50
   0  -2 -12  362.52   42.43
   0  -2 -12  355.87   39.08
   0  -2 -13  128.80   27.12
   0   2  13  109.01   27.09
   0   3 -14   20.59   12.52
   0  -3  14   15.77   13.67
   0   3 -13   80.28   20.75
   0  -3  13  125.54   27.18
   0   3 -12  122.41   24.72
   0  -3  12   96.88   21.54
   0  -3  12  102.14   21.29
   0  -3  12  128.72   22.21
   0   3 -11  104.21   21.52
   0   3 -11  130.13   20.46
   0  -3  11   94.84   19.95
   0  -3  11  122.97   20.74
   0  -3  11  149.67   25.41
   0  -3  11  128.03   20.43
   0  -3  10  152.06   24.53
   0   3 -10  143.20   20.34
   0   3 -10  118.26   22.25
   0  -3  10  163.10   22.17
   0  -3  10  131.56   21.48
   0  -3  10  154.67   22.27
   0   3  -9 1676.21   73.39
   0  -3   9 1481.16   70.98
   0  -3   9 1605.99   74.80
   0  -3   9 1586.12   71.71
   0   3  -9 1531.85   77.45
   0   3  -8 1194.97   63.39
   0  -3   8 1161.64   58.65
   0  -3   8 1177.03   62.71
   0  -3   8 1181.86   59.48
   0  -3   8 1222.37   59.97
   0   3  -8 1305.95   60.89
   0   3  -7    3.48    2.79
   0   3  -7    4.70    5.02
   0  -3   7    4.37    4.99
   0  -3   7    3.62    5.64
   0   3  -7    2.67    3.79
   0  -3   7   -4.65    6.67
   0  -3   6 1847.94   70.36
   0   3  -6 1864.76   73.66
   0  -3   6 1886.83   68.80
   0   3  -6 1958.08   72.06
   0   3  -6 2049.04   63.69
   0   3  -6 1930.83   60.11
   0  -3   5 2985.66   74.74
   0  -3   5 3096.87   80.06
   0   3  -5 3063.73   82.16
   0   3  -5 3187.06   72.97
   0  -3   4 1378.30   50.95
   0  -3   4 1453.04   49.68
   0  -3   4 1403.85   53.53
   0  -3   4 1533.34   41.24
   0   3  -4 1408.92   53.57
   0   3  -4 1572.67   52.86
   0   3  -3  748.96   31.98
   0  -3   3  678.25   29.82
   0  -3   3  779.05   28.77
   0  -3   3  739.39   33.46
   0   3  -3  767.11   33.43
   0   3  -2 3277.63   91.61
   0  -3   2 3303.97   78.62
   0  -3   2 3099.05   80.99
   0   3  -2 3101.44   84.25
   0  -3   2 3176.96   90.04
   0  -3   1 2259.29   68.77
   0   3  -1 2377.31   71.73
   0   3   0   18.12    5.77
   0   3   0   10.57    4.57
   0  -3   0   10.32    4.50
   0   3   1  286.00   19.21
   0  -3  -1  302.29   19.31
   0   3   1  270.52   18.67
   0   3   2 1242.98   47.37
   0   3   2 1332.36   50.38
   0  -3  -2 1388.96   44.73
   0  -3  -2 1393.73   50.35
   0  -3  -3   36.08    7.80
   0   3   3   32.62    7.34
   0  -3  -3   37.84    7.16
   0  -3  -3   39.43    7.07
   0   3   3   37.95    8.43
   0   3   4   10.80    5.06
   0   3   4   13.39    4.32
   0  -3  -4   17.60    5.72
   0  -3  -4    3.89    3.89
   0  -3  -4   12.32    5.26
   0   3   4   12.98    7.07
   0   3   5  381.42   30.15
   0  -3  -5  359.90   27.28
   0   3   5  372.21   21.50
   0  -3  -5  381.11   25.06
   0   3   5  350.27   20.94
   0   3   5  321.11   26.20
   0  -3  -5  367.39   27.92
   0   3   6   23.41    9.17
   0  -3  -6   35.73   10.03
   0   3   6   27.27    5.40
   0   3   6   25.79    9.05
   0   3   6   25.35    5.15
   0  -3  -6   18.53    6.83
   0   3   6   28.28    8.97
   0  -3  -6   23.87    6.67
   0  -3  -7  287.96   27.78
   0   3   7  261.82   26.84
   0   3   7  319.13   30.21
   0   3   7  322.05   31.93
   0  -3  -7  328.69   25.39
   0  -3  -7  295.51   29.01
   0   3   8   61.90   14.71
   0  -3  -8   55.41   13.71
   0   3   8   74.15   16.46
   0   3   8   70.10   14.50
   0  -3  -8   70.65   15.00
   0   3   9  127.32   20.49
   0   3   9  141.25   24.60
   0  -3  -9  148.35   23.34
   0  -3  -9  128.19   20.50
   0   3   9  106.46   19.41
   0  -3 -10   21.91    9.83
   0   3  10   17.92    9.88
   0   3  10    3.50    5.34
   0   3  10   -5.51    8.72
   0  -3 -10   14.11    7.80
   0   3  11   39.06   13.17
   0  -3 -11   24.33   10.38
   0  -3 -11   35.33   13.32
   0   3  11   16.12   12.13
   0  -3 -12  369.08   43.45
   0   3  12  278.94   39.99
   0  -3 -13   94.73   24.34
   0   3  13   90.15   23.99
   0   4 -14  231.78   37.33
   0  -4  14  212.51   35.68
   0   4 -13  440.19   48.94
   0  -4  13  399.84   46.16
   0  -4  12  134.50   22.51
   0  -4  12  157.82   26.49
   0   4 -12  152.30   27.57
   0  -4  12   83.94   21.09
   0  -4  12  106.96   20.48
   0  -4  11   21.80   10.06
   0   4 -11   56.93   16.39
   0  -4  11   20.92    9.95
   0  -4  11   69.27   18.37
   0  -4  11   42.78   13.29
   0   4 -11   54.50   14.50
   0  -4  10  731.30   53.26
   0   4 -10  598.78   49.90
   0  -4  10  715.94   50.03
   0  -4  10  740.03   50.88
   0  -4  10  746.08   50.79
   0   4 -10  713.10   49.36
   0  -4   9  373.98   32.72
   0   4  -9  300.18   32.82
   0  -4   9  377.40   34.37
   0  -4   9  331.64   34.44
   0  -4   9  310.94   30.80
   0   4  -9  369.23   33.14
   0  -4   8   43.17   11.01
   0  -4   8   55.02   12.70
   0  -4   8   41.30   11.68
   0  -4   8   59.73   13.40
   0   4  -8   43.50   11.02
   0   4  -8   40.87   11.64
   0  -4   7  262.18   27.08
   0   4  -7  302.02   27.03
   0  -4   7  336.23   26.54
   0   4  -7  355.48   23.27
   0  -4   7  266.52   25.49
   0   4  -7  299.77   28.41
   0   4  -6 1293.35   56.69
   0  -4   6 1345.28   51.38
   0  -4   6 1478.33   56.05
   0  -4   6 1240.14   54.71
   0   4  -6 1311.56   50.89
   0  -4   5 2644.90   82.15
   0   4  -5 2763.94   89.88
   0  -4   5 2536.54   88.46
   0  -4   5 2502.12   84.37
   0  -4   5 2812.47   71.33
   0   4  -5 2668.51   86.38
   0  -4   4  522.73   31.34
   0   4  -4  498.71   28.63
   0  -4   4  537.90   26.40
   0   4  -4  556.50   31.63
   0  -4   4  532.24   25.69
   0  -4   3 1062.55   34.75
   0  -4   3 1017.15   44.58
   0  -4   3 1007.08   36.20
   0   4  -3 1053.56   45.71
   0   4  -3 1004.45   40.05
   0  -4   2 4827.83  115.23
   0  -4   2 5146.80  130.14
   0   4  -2 4979.67  118.44
   0   4  -2 5021.33  131.47
   0  -4   1 1248.23   48.94
   0   4  -1 1206.64   50.28
   0   4   0  733.89   36.72
   0   4   0  734.32   36.12
   0  -4   0  746.45   35.63
   0  -4  -1 2239.37   73.27
   0   4   1 2114.92   73.22
   0   4   1 2094.85   72.94
   0   4   2 1243.44   52.86
   0  -4  -2 1261.07   52.15
   0   4   2 1233.52   50.87
   0  -4  -3   55.67    8.68
   0   4   3   41.40    8.50
   0  -4  -3   21.23    7.19
   0   4   3   46.08    9.96
   0  -4  -4  670.78   39.19
   0   4   4  683.18   41.92
   0   4   4  641.65   34.28
   0   4   4  674.15   39.90
   0  -4  -4  692.64   35.81
   0   4   5  445.60   31.90
   0  -4  -5  459.39   33.47
   0   4   5  384.32   31.19
   0   4   5  443.36   26.81
   0  -4  -5  426.61   28.53
   0   4   5  417.57   33.90
   0   4   5  396.81   26.15
   0  -4  -5  408.83   29.66
   0   4   6   30.78   10.84
   0  -4  -6   24.58    9.11
   0   4   6   33.17    7.24
   0  -4  -6   51.01   11.55
   0   4   6   40.91   11.09
   0   4   6   64.26   13.28
   0   4   6   28.44    7.11
   0  -4  -6   44.48    9.74
   0  -4  -7  114.81   18.76
   0   4   7  166.61   23.40
   0   4   7  148.75   21.11
   0  -4  -7  144.13   20.36
   0  -4  -7  178.78   19.29
   0   4   7  127.86   20.86
   0   4   8  149.11   22.34
   0  -4  -8  186.19   24.93
   0   4   8  196.58   26.83
   0   4   8  163.60   24.34
   0  -4  -8  144.11   21.73
   0   4   9   35.18   11.97
   0  -4  -9   38.06   12.62
   0   4   9   17.75    9.78
   0  -4  -9   46.06   13.44
   0   4   9   44.35   13.50
   0  -4 -10   15.75    9.84
   0   4  10   -3.56    7.16
   0  -4 -10    4.95    7.04
   0   4  10  -15.80   10.79
   0   4  10    7.26    7.87
   0   4  11  242.56   32.63
   0  -4 -11  230.13   32.83
   0   4  11  228.17   31.90
   0  -4 -11  212.55   30.58
   0   4  11  187.89   31.97
   0   4  12   50.94   18.12
   0  -4 -12   71.96   19.68
   0  -4 -13    8.91   10.26
   0  -5  14  416.00   48.76
   0   5 -14  350.07   45.51
   0   5 -13  452.75   49.88
   0  -5  13  452.90   49.01
   0  -5  13  477.57   46.64
   0   5 -12    1.65    6.08
   0   5 -12    5.02    7.01
   0  -5  12   -0.21    6.89
   0  -5  12   15.02    7.84
   0  -5  12   12.84    8.69
   0  -5  11  609.34   49.99
   0  -5  11  570.68   49.22
   0   5 -11  564.68   51.09
   0  -5  11  614.94   49.32
   0  -5  11  610.94   47.96
   0   5 -11  672.87   51.18
   0  -5  10 1198.25   65.18
   0  -5  10 1091.96   67.00
   0  -5  10 1107.94   65.17
   0   5 -10 1210.07   68.34
   0  -5  10 1165.44   68.76
   0   5 -10 1083.38   68.60
   0   5  -9  102.92   18.61
   0  -5   9  126.75   20.94
   0  -5   9  102.22   16.93
   0  -5   9  132.59   20.40
   0  -5   9   99.19   18.60
   0   5  -9  123.64   21.30
   0  -5   8   99.63   17.02
   0  -5   8  132.45   17.64
   0   5  -8  103.95   17.85
   0  -5   8   92.58   16.19
   0   5  -8  114.20   18.64
   0   5  -8  129.12   15.56
   0  -5   7  326.88   28.42
   0   5  -7  362.62   26.92
   0  -5   7  315.83   29.06
   0   5  -7  390.43   28.94
   0   5  -7  352.34   30.72
   0  -5   7  345.79   26.68
   0   5  -6  841.42   44.96
   0  -5   6  878.57   41.40
   0  -5   6  806.06   46.58
   0  -5   6  894.73   32.11
   0   5  -6  861.44   46.87
   0  -5   6  926.36   44.26
   0   5  -5  189.20   20.24
   0  -5   5  215.95   17.21
   0  -5   5  189.46   20.44
   0   5  -5  201.82   19.76
   0  -5   5  191.90   16.52
   0  -5   5  211.57   15.09
   0  -5   4  549.01   25.27
   0   5  -4  571.72   35.45
   0  -5   4  520.55   33.80
   0   5  -4  538.44   30.54
   0  -5   4  538.58   26.59
   0   5  -3 1243.01   47.15
   0  -5   3 1278.55   43.81
   0   5  -3 1379.05   58.43
   0  -5   3 1196.02   54.45
   0  -5   3 1248.34   37.57
   0  -5   2 1425.27   59.35
   0   5  -2 1442.74   61.60
   0   5  -2 1506.28   49.87
   0  -5   2 1486.61   48.44
   0   5  -1  167.61   19.09
   0  -5   1  207.00   19.69
   0   5   0  100.49   14.46
   0  -5   0   84.77   12.70
   0   5   0   89.77    5.57
   0   5   1 1427.66   62.08
   0  -5  -1 1424.22   60.95
   0   5   1 1443.77   61.94
   0   5   2  200.63   20.93
   0   5   2  227.19   21.86
   0   5   2  276.73   17.73
   0  -5  -2  251.53   23.15
   0   5   3  425.27   30.36
   0  -5  -3  445.49   32.43
   0   5   3  499.63   28.42
   0   5   3  431.71   32.53
   0   5   4 1193.83   60.32
   0   5   4 1352.98   56.21
   0   5   4 1156.12   54.63
   0   5   4 1276.88   65.68
   0  -5  -4 1342.22   53.86
   0  -5  -4 1140.62   58.23
   0   5   5  253.40   24.71
   0   5   5  216.85   20.90
   0  -5  -5  247.48   22.81
   0   5   5  261.40   23.00
   0  -5  -5  192.50   23.28
   0   5   5  172.07   23.69
   0   5   5  211.26   25.03
   0   5   6  225.11   25.54
   0   5   6  226.15   26.33
   0   5   6  197.84   26.32
   0   5   6  204.83   20.35
   0   5   6  254.72   22.22
   0  -5  -6  227.62   23.97
   0  -5  -6  177.74   23.11
   0   5   7  976.47   57.78
   0   5   7  911.99   57.13
   0  -5  -7  863.40   52.53
   0  -5  -7  789.00   53.45
   0   5   7  844.04   58.64
   0  -5  -8  280.10   31.40
   0   5   8  243.17   32.16
   0   5   8  173.11   26.26
   0   5   8  259.37   30.73
   0  -5  -8  222.79   27.60
   0  -5  -9  123.26   22.54
   0   5   9   93.27   19.54
   0   5   9   92.73   20.84
   0   5   9   97.10   21.02
   0  -5  -9  109.86   20.65
   0  -5 -10  444.28   44.29
   0   5  10  516.56   49.66
   0   5  10  412.33   42.75
   0   5  10  529.14   50.08
   0  -5 -10  456.43   44.69
   0   5  11  349.87   42.45
   0   5  11  468.15   50.38
   0   5  12   63.18   20.33
   0  -6  14  493.75   52.72
   0  -6  13  201.99   31.87
   0   6 -13  193.73   32.60
   0  -6  13  260.56   36.08
   0  -6  12   25.71   10.63
   0   6 -12   -3.09    8.71
   0  -6  12    7.26    8.37
   0  -6  12   13.68    9.40
   0   6 -12   -3.93    6.96
   0  -6  11  910.53   62.23
   0   6 -11  910.45   62.90
   0   6 -11  763.41   60.39
   0  -6  11  933.11   62.45
   0  -6  11  794.50   60.89
   0  -6  10  798.79   59.00
   0   6 -10  787.42   57.92
   0  -6  10  787.04   54.16
   0  -6  10  792.55   56.04
   0   6 -10  868.92   58.96
   0   6  -9  119.14   20.79
   0  -6   9  122.28   19.04
   0  -6   9  116.72   19.97
   0  -6   9   92.95   19.09
   0   6  -9   80.52   17.73
   0   6  -8  418.91   32.15
   0  -6   8  454.81   32.90
   0  -6   8  399.72   35.82
   0  -6   8  409.47   32.57
   0   6  -8  409.15   33.08
   0   6  -8  384.26   35.33
   0  -6   7 1808.79   70.67
   0   6  -7 1735.41   75.03
   0   6  -7 1711.50   73.09
   0  -6   7 1701.08   78.14
   0  -6   7 1776.00   68.28
   0   6  -7 1728.57   76.67
   0  -6   6  497.27   29.48
   0   6  -6  535.20   36.04
   0   6  -6  471.85   35.55
   0  -6   6  500.39   29.73
   0  -6   6  447.44   35.61
   0  -6   5  228.68   18.06
   0  -6   5  172.97   21.27
   0   6  -5  196.01   20.03
   0  -6   5  243.52   17.30
   0   6  -5  209.48   23.11
   0   6  -4  974.05   52.64
   0  -6   4 1049.02   35.54
   0   6  -4 1036.63   45.83
   0  -6   4 1002.67   52.96
   0  -6   4 1008.34   40.36
   0   6  -3  137.61   18.29
   0  -6   3  153.80   13.20
   0   6  -3  154.87   14.73
   0  -6   3  143.43   18.52
   0   6  -2    6.66    5.37
   0  -6   2    3.55    2.49
   0  -6   2    4.55    5.48
   0   6  -2   14.41    4.44
   0   6  -1   90.08   15.56
   0  -6   1  108.00   15.59
   0  -6   0  347.88   28.70
   0   6   0  420.75   32.57
   0   6   1  152.33   19.46
   0  -6  -1  146.23   18.58
   0   6   1  103.87    9.32
   0   6   1  107.63   16.39
   0  -6  -2   13.75    6.12
   0   6   2   12.66    7.59
   0   6   2    4.64    5.30
   0   6   2   11.17    4.16
   0   6   3  112.66   17.22
   0  -6  -3  170.78   21.29
   0   6   3  126.20   19.00
   0   6   3  179.40   16.46
   0   6   4  330.98   29.04
   0   6   4  286.39   32.10
   0   6   4  335.06   29.36
   0  -6  -4  294.84   29.51
   0   6   4  290.41   29.76
   0   6   4  398.46   27.78
   0   6   5   46.69   13.19
   0  -6  -5   59.07   14.20
   0   6   5   51.83   11.28
   0   6   5   55.65   11.64
   0   6   5   48.53   11.64
   0   6   5   47.52   12.77
   0   6   6  392.17   39.65
   0  -6  -6  382.03   36.56
   0   6   6  395.71   34.07
   0   6   6  351.55   35.47
   0  -6  -7  658.06   50.50
   0   6   7  651.75   50.52
   0   6   7  630.54   53.07
   0   6   7  630.48   47.08
   0   6   8   55.14   14.69
   0   6   8   53.59   16.08
   0  -6  -8   48.26   15.45
   0   6   8   56.03   15.99
   0   6   9  317.62   36.81
   0  -6  -9  305.73   36.87
   0   6   9  300.06   36.47
   0   6   9  277.20   37.98
   0   6  10 1005.84   71.07
   0   6  10  939.42   72.47
   0  -6 -10  929.00   68.32
   0   6  11  192.71   32.92
   0  -7  14  158.65   30.18
   0   7 -13   22.37   12.95
   0  -7  13   11.29    9.51
   0  -7  12  223.55   32.35
   0  -7  12  210.47   32.98
   0   7 -12  171.37   29.11
   0   7 -12  160.44   28.00
   0   7 -11  789.48   60.53
   0  -7  11  580.82   53.90
   0  -7  11  715.49   56.70
   0   7 -11  783.08   60.63
   0  -7  10  476.67   47.25
   0   7 -10  460.84   44.27
   0   7 -10  422.75   41.86
   0  -7  10  447.64   42.67
   0  -7   9   -0.91    7.43
   0   7  -9   21.41   10.34
   0  -7   9    4.06    6.87
   0   7  -8  409.66   36.46
   0  -7   8  380.38   36.97
   0   7  -8  433.29   35.79
   0   7  -8  395.91   35.53
   0   7  -7 1645.92   78.05
   0   7  -7 1663.72   75.82
   0  -7   7 1661.51   80.48
   0   7  -7 1802.47   79.28
   0  -7   6  135.08   20.74
   0   7  -6   95.11   17.34
   0   7  -6  134.77   17.80
   0   7  -5  814.69   50.87
   0  -7   5  712.55   47.67
   0   7  -5  723.54   41.11
   0   7  -4  789.95   40.37
   0  -7   4  844.14   36.89
   0  -7   4  790.15   49.61
   0   7  -4  882.23   53.09
   0  -7   3  233.64   17.82
   0   7  -3  209.94   18.02
   0   7  -3  191.01   24.04
   0  -7   3  214.28   24.96
   0   7  -2  200.31   25.18
   0  -7   2  233.61   25.39
   0   7  -2  253.25   18.55
   0  -7   2  243.66   18.69
   0  -7   1  996.80   55.14
   0   7  -1  985.38   56.93
   0   7   0  201.42   24.43
   0  -7   0  219.05   24.75
   0  -7  -1   97.07   16.99
   0   7   1  100.74   17.48
   0   7   2  513.39   40.31
   0  -7  -2  420.88   36.29
   0   7   2  487.11   38.37
   0  -7  -3   67.24   14.44
   0   7   3   39.43   11.85
   0   7   3   89.01   17.09
   0   7   3   86.01   17.49
   0   7   4    2.75    4.66
   0   7   4    0.17    4.46
   0  -7  -4   -3.53    7.04
   0   7   4    1.34    5.78
   0   7   4    1.72    7.36
   0   7   5  193.72   24.22
   0  -7  -5  189.76   25.89
   0   7   5  194.75   23.75
   0   7   5  178.98   27.64
   0   7   5  175.48   25.64
   0  -7  -6  200.74   27.56
   0   7   6  193.55   27.64
   0   7   6  185.23   28.97
   0  -7  -7   25.41   10.96
   0   7   7   42.72   13.42
   0   7   7   34.24   13.91
   0   7   8   47.97   15.50
   0   7   8   46.31   16.15
   0  -7  -8   27.97   11.31
   0   7   9  511.90   53.59
   0   7   9  386.85   44.17
   0  -7  -9  484.28   49.12
   0   7  10  356.43   46.30
   0  -7 -10  297.81   39.46
   0   7  10  330.65   41.25
   0   8 -13  120.19   26.74
   0  -8  13  178.46   32.67
   0   8 -13  147.53   28.47
   0  -8  12  525.14   52.09
   0   8 -12  503.62   51.83
   0  -8  12  669.01   61.42
   0   8 -12  513.41   52.09
   0   8 -11  146.29   26.45
   0   8 -11  105.23   22.90
   0  -8  11  117.79   23.88
   0  -8  11  138.73   27.05
   0   8 -10    3.46    6.75
   0  -8  10    4.77    6.98
   0   8 -10    0.08    6.17
   0  -8  10   -2.24    9.33
   0  -8   9   72.44   17.13
   0   8  -9   59.04   15.35
   0  -8   9   76.18   19.91
   0   8  -8  448.96   38.99
   0   8  -8  464.53   41.36
   0   8  -8  538.37   43.19
   0  -8   8  469.79   43.38
   0  -8   8  443.86   45.18
   0  -8   7  211.50   28.20
   0   8  -7  205.86   26.80
   0   8  -7  234.32   26.37
   0   8  -7  177.26   25.39
   0   8  -6   28.06   11.84
   0   8  -6   16.54    7.32
   0   8  -6   25.81    9.84
   0  -8   6   28.48   11.35
   0   8  -5  310.09   33.21
   0  -8   5  271.77   30.81
   0   8  -5  283.42   25.14
   0  -8   4  412.74   37.26
   0   8  -4  485.10   31.04
   0   8  -4  418.19   38.81
   0   8  -3   33.06   11.10
   0  -8   3   71.10   15.57
   0   8  -2  306.38   32.43
   0  -8   2  255.38   28.72
   0   8  -1  966.35   60.36
   0  -8   1  985.43   59.22
   0   8   0   -9.04   12.00
   0  -8   0    9.46    8.15
   0   8   1  462.35   40.85
   0  -8  -1  444.43   39.28
   0   8   2 1071.41   64.78
   0   8   2 1046.04   63.51
   0  -8  -2 1172.77   66.73
   0   8   3  216.57   28.63
   0  -8  -3  171.60   25.17
   0   8   3  223.00   27.74
   0   8   3  139.22   22.55
   0  -8  -4  515.70   44.97
   0   8   4  421.49   41.90
   0   8   4  482.03   47.39
   0   8   4  498.76   42.50
   0   8   4  498.56   41.91
   0   8   5  590.88   53.58
   0   8   5  498.05   46.59
   0   8   5  530.75   43.37
   0  -8  -5  561.89   48.49
   0   8   5  438.40   40.75
   0  -8  -6   69.65   18.12
   0   8   6   69.20   18.21
   0   8   6   87.46   21.34
   0  -8  -7    3.20    6.25
   0   8   7   10.40    9.65
   0   8   7    5.79    7.17
   0  -8  -8  258.91   36.29
   0   8   8  335.61   41.64
   0   8   8  236.70   37.04
   0   8   9  333.70   42.69
   0  -8  -9  348.59   43.41
   0   8   9  373.92   48.08
   0   9 -12  193.18   33.10
   0  -9  12  201.87   33.09
   0  -9  12  138.55   28.97
   0   9 -11   -4.59    7.24
   0  -9  11    8.67    8.95
   0  -9  11   -1.54   11.28
   0  -9  10  298.10   40.49
   0  -9  10  284.79   36.93
   0   9 -10  249.53   36.09
   0  -9   9  255.78   37.00
   0   9  -9  298.42   36.22
   0   9  -9  292.67   33.96
   0  -9   9  243.14   33.48
   0   9  -8  170.57   26.70
   0   9  -8  169.32   26.30
   0  -9   8  149.77   26.73
   0  -9   8  162.86   26.58
   0  -9   7   50.23   15.87
   0   9  -7   47.93   15.14
   0  -9   7   26.49   10.65
   0   9  -7   60.16   16.10
   0   9  -6  104.46   20.96
   0  -9   6  103.95   21.07
   0   9  -6  125.92   23.06
   0   9  -5    7.15    8.07
   0   9  -5    8.14    8.74
   0  -9   5    1.12    7.09
   0  -9   4    4.21    7.53
   0   9  -4    9.08    8.22
   0   9  -4   -2.25    7.23
   0  -9   3   13.93    9.04
   0   9  -3   14.34    9.50
   0  -9   2  195.80   27.13
   0   9  -2  215.22   29.39
   0  -9   1  137.87   23.12
   0   9  -1  116.01   21.98
   0   9   0   16.16    8.62
   0   9   0   21.04   11.10
   0  -9   0   21.58   10.73
   0   9   1  560.54   48.45
   0   9   1  546.39   47.55
   0  -9  -1  609.71   49.63
   0  -9  -2  328.37   36.43
   0   9   2  321.51   36.14
   0   9   2  364.56   38.85
   0   9   3    3.28    7.03
   0  -9  -3    9.89    7.92
   0   9   3   14.96   11.19
   0   9   3    5.38    6.99
   0   9   4  551.44   48.37
   0  -9  -4  486.44   46.94
   0   9   4  494.54   47.98
   0   9   4  577.50   54.41
   0   9   4  514.40   46.04
   0   9   5  835.67   60.56
   0   9   5  905.80   70.89
   0  -9  -5  830.95   64.14
   0   9   5  966.73   69.35
   0  -9  -6  103.86   22.73
   0   9   6  112.10   25.28
   0   9   6  128.06   25.81
   0   9   7   46.02   15.63
   0   9   7   48.65   17.76
   0  -9  -7   83.27   22.93
   0  -9  -8  702.99   63.86
   0   9   8  748.34   65.63
   0 -10  11   24.99   12.60
   0  10 -11    6.32    7.70
   0 -10  10  154.02   28.71
   0 -10  10  153.42   30.24
   0  10  -9  246.90   33.87
   0 -10   9  314.47   39.54
   0 -10   9  201.46   35.16
   0 -10   8   -7.83    8.43
   0  10  -8   -1.37    6.53
   0 -10   8    0.12    5.57
   0  10  -8    7.33    7.62
   0  10  -7  368.32   41.79
   0  10  -7  337.19   39.53
   0 -10   7  327.40   39.02
   0 -10   7  322.90   41.04
   0 -10   6  123.53   23.57
   0 -10   6  172.32   28.84
   0  10  -6  172.17   28.79
   0  10  -6  161.34   27.20
   0 -10   5   36.24   13.73
   0  10  -5   59.63   16.75
   0  10  -5   63.87   17.96
   0  10  -4   54.92   16.22
   0 -10   4   53.55   15.80
   0  10  -4   73.05   18.45
   0 -10   3  147.39   25.32
   0  10  -3  140.54   25.65
   0  10  -3  132.71   25.22
   0 -10   2   51.79   15.92
   0  10  -2   36.88   14.12
   0  10  -2   68.53   18.46
   0  10  -1  333.38   38.89
   0 -10   1  285.62   31.12
   0  10  -1  257.44   34.18
   0 -10   1  242.11   32.71
   0  10   0  117.79   23.60
   0  10   0  140.99   25.32
   0 -10   0  131.95   24.88
   0 -10  -1  145.28   25.36
   0  10   1  118.90   23.69
   0  10   1  116.96   23.58
   0  10   2   65.23   18.29
   0 -10  -2   43.65   14.40
   0  10   2   24.61   11.63
   0  10   3   75.86   21.38
   0  10   3   65.09   18.30
   0 -10  -3   73.50   19.38
   0  10   3   57.09   17.09
   0  10   4  243.57   33.85
   0 -10  -4  232.72   34.42
   0  10   4  266.82   35.32
   0  10   4  242.07   37.18
   0  10   5  398.46   49.23
   0 -10  -5  322.10   41.74
   0 -10  -6   37.11   16.05
   0 -11  10  122.43   26.41
   0 -11   9  196.33   32.73
   0 -11   9  204.95   35.63
   0  11  -9  210.00   32.75
   0 -11   8    6.51    8.11
   0  11  -8  -25.32   12.85
   0  11  -8   -8.12    8.74
   0 -11   8  -22.37   13.45
   0 -11   7  262.99   38.68
   0 -11   7  301.92   39.69
   0  11  -7  267.75   37.84
   0  11  -7  205.75   33.19
   0  11  -6  285.53   38.97
   0 -11   6  289.82   39.05
   0  11  -6  289.35   39.26
   0 -11   5    7.07    8.54
   0 -11   5   15.31   11.98
   0  11  -5   25.68   13.15
   0  11  -5   -3.77    7.33
   0 -11   4  454.70   46.65
   0 -11   4  386.09   44.41
   0  11  -4  442.14   49.02
   0  11  -4  454.81   48.96
   0 -11   3  539.88   52.12
   0 -11   3  579.01   51.40
   0  11  -3  592.76   56.58
   0  11  -3  511.23   52.57
   0 -11   2   31.84   14.33
   0  11  -2    5.97    8.86
   0  11  -2   21.81   12.25
   0  11  -1  257.25   37.06
   0  11  -1  286.33   38.67
   0 -11   1  318.00   39.73
   0 -11   0  279.25   37.87
   0  11   0  220.38   34.71
   0  11   0  300.49   39.60
   0  11   1   44.88   16.33
   0  11   1   38.96   14.20
   0  11   2   54.64   19.17
   0 -11  -2   80.89   20.87
   0  11   2   71.91   20.58
   0  11   2   35.10   14.29
   0 -11  -3  200.36   33.58
   0  11   3  241.07   36.17
   0  11   3  214.48   36.92
   0  11   3  288.50   38.96
   0  11   4  484.87   51.14
   0 -11  -4  446.38   51.12
   0  12  -8  136.03   28.17
   0  12  -7   43.28   17.52
   0 -12   7   72.08   20.39
   0  12  -7   57.26   18.82
   0 -12   7   42.45   17.68
   0  12  -6   33.95   14.58
   0 -12   6   66.88   20.28
   0  12  -6   75.71   22.49
   0 -12   6   51.01   18.23
   0 -12   5   43.97   16.75
   0 -12   5   64.16   19.27
   0  12  -5   59.73   18.17
   0  12  -5   73.58   21.34
   0  12  -4  300.19   42.41
   0 -12   4  342.06   42.47
   0  12  -4  409.79   49.16
   0 -12   4  302.95   41.94
   0  12  -3  338.69   45.10
   0  12  -3  380.48   47.37
   0 -12   3  309.24   41.88
   0  12  -2   -0.54    7.02
   0  12  -2   11.58   10.66
   0 -12   2    7.09    9.19
   0  12  -1  349.64   46.50
   0  12  -1  421.63   49.75
   0 -12   1  350.82   44.73
   0  12   0  719.21   66.13
   0 -12   0  767.89   67.51
   0  12   0  714.49   66.41
   0  12   0  612.01   61.71
   0  12   1   91.77   22.98
   0  12   1   94.01   24.06
   0  12   1   43.72   17.89
   0 -12  -1  135.53   28.10
   0  12   2  424.10   50.19
   0  12   2  371.76   47.51
   0  12   3  583.34   58.53
   0 -13   5  177.23   32.92
  -1  12   3   48.07   16.96
  -1  12   3   34.42   16.29
  -1  12   2   21.74   12.18
  -1  12   2   20.06    9.94
   1 -12  -2   31.96   14.28
  -1  12   1  424.72   50.17
   1 -12  -1  467.56   52.20
  -1  12   1  514.93   55.44
  -1  12   0   64.59   20.20
   1 -12   0   63.82   20.59
  -1  12   0  103.86   24.70
  -1  12  -1  173.59   32.00
   1 -12   1  160.22   30.31
   1 -12   2  421.52   49.17
  -1  12  -2  369.07   47.02
  -1  12  -2  360.47   45.79
   1 -12   3   20.93   11.18
  -1  12  -3   25.72   14.06
  -1  12  -3   37.70   16.56
  -1  12  -4   65.20   19.60
   1 -12   4   60.93   17.61
   1 -12   4   34.29   14.60
  -1  12  -4   54.69   18.16
  -1  12  -5  132.23   27.96
   1 -12   5  131.72   27.64
   1 -12   6  101.26   23.43
  -1  12  -6  106.52   24.91
  -1  12  -6   70.69   20.72
   1 -12   6   96.98   23.79
  -1  12  -7    2.19    7.33
   1 -12   7   30.24   14.13
  -1  12  -7   22.32   12.71
   1 -12   7   21.82   12.47
  -1  12  -8   58.97   17.71
   1 -11  -5   99.80   24.18
  -1  11   4   83.51   21.17
  -1  11   4  100.96   23.40
  -1  11   4  103.01   26.37
   1 -11  -4   64.72   19.23
  -1  11   3   10.43    8.03
   1 -11  -3   11.92    9.94
  -1  11   2  181.85   30.53
   1 -11  -2  217.72   33.29
  -1  11   2  181.43   31.26
  -1  11   1  187.54   31.78
   1 -11  -1  186.29   30.75
  -1  11   1  212.16   33.70
  -1  11   0   10.29    8.18
   1 -11   0   20.86   11.02
   1 -11   1   67.21   19.53
  -1  11  -1   69.24   18.74
   1 -11   2  269.92   36.68
   1 -11   2  274.77   33.68
  -1  11  -2  227.82   35.08
   1 -11   3   10.16   10.02
  -1  11  -3   -0.13   10.02
   1 -11   3   17.80    8.48
   1 -11   4  105.49   23.44
   1 -11   4   87.00   20.82
  -1  11  -4  123.67   25.46
   1 -11   4  116.69   20.52
  -1  11  -5  713.07   62.00
  -1  11  -5  777.56   64.40
   1 -11   5  708.08   60.49
  -1  11  -6   90.77   22.68
   1 -11   6   76.83   20.72
  -1  11  -6   93.72   21.79
  -1  11  -7   94.42   22.98
  -1  11  -7   89.86   22.20
   1 -11   7   63.16   18.69
   1 -11   7   92.39   23.54
  -1  11  -8  460.63   49.50
   1 -11   8  413.82   46.66
   1 -11   8  504.27   54.56
  -1  11  -8  564.81   53.66
  -1  11  -9  215.82   33.83
   1 -11   9  218.15   34.04
   1 -11  10   21.60   12.24
   1 -10  -7   36.02   13.15
   1 -10  -6  211.59   33.73
  -1  10   6  165.15   30.60
  -1  10   6  174.28   32.85
  -1  10   5   92.08   22.86
  -1  10   5  100.99   24.38
  -1  10   5   80.85   19.49
   1 -10  -5   53.94   16.45
   1 -10  -4   32.49   14.50
  -1  10   4   22.41   10.94
  -1  10   4   17.19   10.87
  -1  10   3   37.71   15.34
  -1  10   3   49.22   15.38
   1 -10  -3   59.77   17.77
  -1  10   2   18.89    8.76
   1 -10  -2    8.22    7.34
   1 -10  -1   57.43   16.31
  -1  10   1   46.32   15.93
  -1  10   0   -6.31    9.76
   1 -10   0   -2.16    5.65
  -1  10  -1  104.86   22.60
   1 -10   1  151.38   22.46
   1 -10   1   96.55   20.42
   1 -10   2  263.32   31.44
   1 -10   2  238.68   31.61
  -1  10  -2  234.83   32.89
   1 -10   3   13.16    7.82
   1 -10   3    9.17    8.93
  -1  10  -3   21.30   12.09
   1 -10   4  217.71   30.45
  -1  10  -4  216.41   31.47
   1 -10   4  213.02   31.09
   1 -10   5  483.23   47.62
  -1  10  -5  526.41   49.55
  -1  10  -6  111.46   22.50
   1 -10   6  118.01   24.02
   1 -10   7  303.42   36.77
   1 -10   7  252.04   36.30
  -1  10  -7  320.44   38.27
  -1  10  -7  304.89   37.83
   1 -10   8  727.15   62.80
   1 -10   8  593.11   53.57
  -1  10  -8  662.65   55.26
  -1  10  -8  692.56   57.25
  -1  10  -9  130.89   25.20
   1 -10   9  160.93   31.38
   1 -10   9  168.43   28.41
   1 -10  10  -31.34   15.87
   1 -10  10   22.20   12.00
  -1  10 -11  305.66   42.43
   1  -9  -8    0.77    7.55
  -1   9   8   -2.00    6.61
  -1   9   8   14.55    9.99
   1  -9  -7  206.32   32.13
  -1   9   7  236.42   37.16
  -1   9   7  250.91   36.13
  -1   9   6  260.84   37.82
   1  -9  -6  289.64   36.71
  -1   9   6  286.35   38.15
  -1   9   5   47.90   15.86
   1  -9  -5   42.45   14.12
  -1   9   5   36.70   14.90
  -1   9   5    6.87    7.44
  -1   9   5   65.75   16.44
   1  -9  -4   89.69   19.62
  -1   9   4   39.74   13.61
  -1   9   4   84.58   19.67
   1  -9  -3  466.09   43.36
  -1   9   3  445.77   43.27
  -1   9   3  372.29   40.66
  -1   9   2   65.78   16.89
   1  -9  -2   47.80   14.39
  -1   9   1  200.25   28.70
   1  -9  -1  138.48   23.79
   1  -9   0  711.23   45.66
   1  -9   0  662.09   50.80
  -1   9   0  715.18   54.77
   1  -9   1  403.10   35.84
   1  -9   1  442.98   40.81
  -1   9  -1  487.38   44.37
  -1   9  -2   14.15   10.23
   1  -9   2    4.20    6.35
   1  -9   2   11.49    8.11
  -1   9  -3  129.13   23.05
   1  -9   3  171.19   25.20
   1  -9   3  155.81   24.63
   1  -9   4  291.56   33.99
   1  -9   4  309.39   34.63
  -1   9  -4  308.49   35.36
  -1   9  -5  256.01   32.43
   1  -9   5  201.72   29.03
  -1   9  -5  189.53   22.72
   1  -9   6    1.46    6.80
  -1   9  -6   -1.25    6.70
  -1   9  -6    8.87    6.52
   1  -9   6   -4.84    7.43
  -1   9  -7  284.34   31.32
   1  -9   7  302.66   37.40
   1  -9   7  243.25   31.46
  -1   9  -7  314.14   35.81
  -1   9  -8  887.66   60.07
  -1   9  -8  760.76   57.29
  -1   9  -8  731.79   54.57
   1  -9   8  822.70   65.07
   1  -9   8  809.88   59.35
   1  -9   9  168.75   29.84
   1  -9   9  155.08   25.82
  -1   9  -9  192.20   28.35
   1  -9  10   41.41   16.56
  -1   9 -10   64.76   17.98
   1  -9  10   51.71   15.76
  -1   9 -11  633.62   57.19
   1  -9  11  552.68   57.69
  -1   9 -11  593.84   56.30
  -1   9 -12  357.82   45.18
  -1   9 -12  415.66   48.02
  -1   8  10  195.45   33.84
  -1   8   9   13.53   12.44
  -1   8   9    6.78    8.73
   1  -8  -8   12.16   11.09
  -1   8   8  -15.74   10.19
  -1   8   8  -10.06    9.84
  -1   8   7   64.62   18.43
  -1   8   7   59.32   17.10
   1  -8  -7   64.75   17.43
   1  -8  -6  164.77   26.06
  -1   8   6  182.20   28.45
  -1   8   6  232.26   33.62
  -1   8   5   14.09    8.63
   1  -8  -5   11.37    7.61
  -1   8   5    1.74    6.34
  -1   8   4  537.79   44.36
  -1   8   4  455.37   43.17
  -1   8   3  683.37   49.99
   1  -8  -3  641.40   47.83
  -1   8   3  602.13   48.76
   1  -8  -2   13.28    7.72
  -1   8   2   25.72   10.09
  -1   8   2   34.34   12.22
  -1   8   1  940.35   60.60
   1  -8  -1 1003.02   59.93
  -1   8   0 1411.21   75.48
   1  -8   0 1448.91   73.33
   1  -8   0 1496.30   66.90
   1  -8   1   22.70    8.87
  -1   8  -1   13.84    8.94
   1  -8   1   25.11    9.30
  -1   8  -2  889.10   57.19
   1  -8   2  786.66   50.31
  -1   8  -2  903.27   44.28
   1  -8   2  783.87   52.31
  -1   8  -3 1481.59   62.19
   1  -8   3 1365.64   71.56
   1  -8   3 1427.06   73.39
  -1   8  -3 1567.18   78.46
   1  -8   4  705.97   51.06
  -1   8  -4  790.41   44.57
  -1   8  -4  765.23   52.92
   1  -8   4  716.41   50.63
   1  -8   5   25.35    8.13
  -1   8  -5    7.55    6.48
  -1   8  -5   15.59    6.92
   1  -8   5   15.58    9.57
  -1   8  -6  675.90   45.54
   1  -8   6  645.34   48.02
   1  -8   6  667.00   52.36
  -1   8  -6  774.57   52.90
   1  -8   7  528.04   47.85
  -1   8  -7  518.13   41.58
  -1   8  -7  490.69   41.66
   1  -8   7  470.07   41.46
  -1   8  -8   59.79   14.84
   1  -8   8   69.93   18.84
   1  -8   8   77.41   16.94
  -1   8  -8  104.86   19.36
  -1   8  -8   70.11   16.50
  -1   8  -9   10.11    8.53
   1  -8   9    6.96    6.42
   1  -8   9   -9.10    7.90
   1  -8  10  454.91   48.34
  -1   8 -10  447.41   44.72
   1  -8  10  410.50   41.71
  -1   8 -10  298.66   37.44
  -1   8 -11  531.50   51.86
   1  -8  11  566.73   56.07
  -1   8 -11  567.80   52.68
  -1   8 -12  112.52   25.22
   1  -8  12   90.84   23.32
  -1   7  11  125.44   25.76
  -1   7  11  158.06   31.60
  -1   7  10   24.63   13.65
  -1   7  10   64.89   18.74
  -1   7   9  124.44   24.56
   1  -7  -9  145.65   26.34
  -1   7   9  109.66   24.00
  -1   7   8   41.54   15.03
   1  -7  -8   47.51   15.25
  -1   7   8   49.22   16.51
   1  -7  -7   75.60   17.17
  -1   7   7  122.17   22.79
  -1   7   7  100.73   21.67
  -1   7   6   29.73   10.41
  -1   7   6   19.27   10.32
   1  -7  -6   21.16    9.51
  -1   7   6   29.57   10.76
  -1   7   6   27.98   13.85
  -1   7   5  101.26   19.70
  -1   7   5   90.37   16.93
   1  -7  -5  109.72   19.09
  -1   7   4  429.56   36.97
  -1   7   4  437.85   39.32
   1  -7  -4  435.39   36.79
   1  -7  -3   -2.52    5.74
  -1   7   3    6.91    6.98
  -1   7   3   13.57    7.92
  -1   7   2  104.37   18.44
  -1   7   2  120.07   19.53
   1  -7  -2  149.20   14.91
   1  -7  -2   94.81   16.53
  -1   7   1  947.58   57.03
   1  -7  -1 1036.40   47.83
  -1   7   1 1047.20   58.10
   1  -7  -1 1052.46   56.41
  -1   7   0  750.63   49.70
   1  -7   0  827.73   49.06
   1  -7   0  821.40   44.12
   1  -7   1    5.75    6.08
   1  -7   1    5.98    6.58
  -1   7  -1   17.33   11.06
   1  -7   2 1125.47   58.75
  -1   7  -2 1109.06   48.44
   1  -7   2 1044.03   55.64
  -1   7  -2 1115.53   60.93
   1  -7   3 2009.00   85.72
   1  -7   3 2086.95   87.36
  -1   7  -3 2084.81   75.68
  -1   7  -3 2092.08   88.53
   1  -7   4  565.03   42.48
  -1   7  -4  603.91   43.09
   1  -7   4  503.37   39.54
  -1   7  -4  521.78   34.74
   1  -7   4  613.64   36.51
   1  -7   5  879.57   56.36
  -1   7  -5  907.87   49.75
   1  -7   5 1029.48   46.97
  -1   7  -5  843.85   52.59
   1  -7   6 1875.19   89.67
  -1   7  -6 2004.18   86.00
  -1   7  -6 1928.53   82.32
   1  -7   6 1935.24   84.42
   1  -7   7  525.21   45.46
   1  -7   7  500.70   40.20
  -1   7  -7  517.09   39.84
  -1   7  -7  500.66   40.27
   1  -7   8   -0.93    5.99
   1  -7   8    9.78    9.61
  -1   7  -8    4.04    4.47
  -1   7  -8   -0.55    5.59
   1  -7   9  348.59   35.45
  -1   7  -9  317.45   35.38
   1  -7   9  356.99   39.51
  -1   7 -10  331.83   38.54
   1  -7  10  385.37   38.53
  -1   7 -10  335.47   37.39
   1  -7  10  386.45   42.93
   1  -7  11   28.24   12.38
  -1   7 -11   51.39   16.51
  -1   7 -11   30.18   12.95
   1  -7  12   82.38   21.18
  -1   7 -12   79.93   21.60
  -1   7 -13  150.44   29.51
   1  -7  13  139.81   27.92
  -1   6  12  128.70   26.93
  -1   6  11  225.41   35.71
  -1   6  11  312.80   40.56
  -1   6  11  283.95   38.87
  -1   6  10   20.02   10.59
  -1   6  10    0.47    9.76
  -1   6  10   18.51   11.31
  -1   6   9  207.89   31.62
   1  -6  -9  170.75   26.19
   1  -6  -9  179.36   27.01
  -1   6   9  201.01   30.31
  -1   6   9  187.59   29.13
  -1   6   8  511.32   46.63
  -1   6   8  433.96   43.97
  -1   6   8  501.75   43.86
   1  -6  -8  482.55   42.49
  -1   6   7    7.27    6.38
   1  -6  -7   15.22    7.44
  -1   6   7   10.30    7.22
  -1   6   7   16.82    8.34
  -1   6   6  589.32   46.35
  -1   6   6  610.47   40.53
   1  -6  -6  640.03   45.16
  -1   6   6  601.82   48.15
  -1   6   5 1039.11   54.72
  -1   6   5  864.73   55.78
   1  -6  -5 1017.19   56.24
   1  -6  -4   51.25   12.61
  -1   6   4   54.07   13.03
  -1   6   4   66.58   14.17
   1  -6  -3  202.58   22.38
  -1   6   3  151.68   21.15
   1  -6  -3  203.48   14.13
  -1   6   3  191.94   23.22
  -1   6   2  308.64   29.04
  -1   6   2  338.98   30.06
   1  -6  -2  401.62   23.24
   1  -6  -2  347.73   28.86
  -1   6   1  667.93   43.50
   1  -6  -1  719.72   42.35
  -1   6   1  790.72   45.85
   1  -6  -1  794.80   37.61
   1  -6   0   10.30    6.12
   1  -6   0    6.92    5.12
  -1   6   0    6.14    5.13
  -1   6  -1  122.27   17.88
   1  -6   1  127.99   17.02
  -1   6  -2 1086.99   56.73
   1  -6   2 1181.68   37.39
   1  -6   2 1147.45   55.51
  -1   6  -3 1667.48   63.97
   1  -6   3 1744.98   49.54
   1  -6   3 1683.98   71.80
   1  -6   3 1724.23   52.67
  -1   6  -3 1538.48   70.75
   1  -6   4  145.11   15.83
   1  -6   4  136.20   19.52
  -1   6  -4  177.16   20.96
  -1   6  -4  141.58   16.94
   1  -6   4  155.57   13.84
   1  -6   4  163.16   11.76
  -1   6  -5 1496.23   66.01
  -1   6  -5 1328.21   61.43
   1  -6   5 1375.49   47.93
   1  -6   5 1371.56   53.76
   1  -6   5 1470.59   54.08
  -1   6  -6 1235.16   61.86
  -1   6  -6 1221.74   60.05
   1  -6   6 1289.10   68.32
   1  -6   6 1309.21   56.34
   1  -6   6 1272.96   62.07
   1  -6   7  436.63   39.40
  -1   6  -7  446.45   33.86
  -1   6  -7  437.16   36.67
   1  -6   7  464.72   36.12
   1  -6   7  430.57   32.65
   1  -6   8   59.11   13.24
  -1   6  -8   36.22    9.77
   1  -6   8   44.96   11.46
  -1   6  -8   26.35    9.72
   1  -6   8   33.28   11.90
   1  -6   9  889.46   60.80
   1  -6   9  759.42   52.19
  -1   6  -9  864.97   56.43
  -1   6  -9  768.48   56.23
   1  -6   9  875.18   55.19
  -1   6 -10  569.90   46.12
   1  -6  10  448.41   40.35
   1  -6  10  488.03   43.41
   1  -6  10  404.74   42.23
  -1   6 -10  479.89   45.69
   1  -6  11   27.74   13.34
  -1   6 -11   10.44    8.56
  -1   6 -11   36.45   13.90
   1  -6  11   22.85    9.29
   1  -6  12  118.50   23.65
   1  -6  12  114.45   23.70
  -1   6 -12  102.26   24.55
  -1   6 -13   60.09   19.21
   1  -6  13   50.39   17.99
   1  -6  13   56.07   17.43
   1  -6  14    0.85    9.82
   1  -5 -12  144.00   27.74
  -1   5  12   96.08   25.01
  -1   5  12   90.62   21.94
  -1   5  11  150.49   28.73
  -1   5  11  155.27   27.24
   1  -5 -11  167.51   28.48
  -1   5  11  170.22   28.70
  -1   5  10  167.19   27.32
  -1   5  10  152.51   26.01
  -1   5  10  184.91   30.10
   1  -5 -10  156.37   26.16
   1  -5 -10  150.42   24.17
   1  -5  -9  164.17   25.50
  -1   5   9  243.32   31.71
  -1   5   9  207.85   29.33
   1  -5  -9  278.69   31.55
  -1   5   9  233.51   31.12
  -1   5   8  210.76   27.71
   1  -5  -8  205.63   25.68
  -1   5   8  172.51   25.92
   1  -5  -8  202.75   24.25
   1  -5  -8  157.64   23.40
  -1   5   8  213.22   28.50
   1  -5  -7   90.50   16.51
  -1   5   7   75.11   15.91
   1  -5  -7   72.49   14.80
   1  -5  -7   72.69   14.39
  -1   5   7   67.50   16.17
   1  -5  -6 1395.03   66.03
   1  -5  -6 1583.16   69.43
  -1   5   6 1456.03   73.76
  -1   5   6 1439.28   72.37
   1  -5  -6 1561.20   69.80
  -1   5   6 1396.29   61.63
   1  -5  -5 1646.65   70.02
  -1   5   5 1446.83   64.22
  -1   5   5 1720.51   76.11
   1  -5  -5 1676.18   70.62
  -1   5   4    4.10    6.27
  -1   5   4    5.40    5.44
   1  -5  -4    1.46    3.61
  -1   5   3 1075.98   54.29
   1  -5  -3 1155.73   52.47
   1  -5  -3 1148.33   36.30
   1  -5  -2 3122.28  100.09
  -1   5   2 3166.63  104.02
   1  -5  -2 3167.85   86.19
  -1   5   1  308.70   25.27
  -1   5   1  266.67   23.95
   1  -5  -1  308.71   20.13
   1  -5  -1  289.28   23.28
   1  -5   0  213.91   19.97
  -1   5   0  229.75   22.16
   1  -5   0  246.59   19.46
  -1   5   0  233.82   21.47
   1  -5   1 1199.70   51.67
  -1   5  -1 1084.76   52.17
   1  -5   2 1360.22   38.60
   1  -5   2 1373.98   57.48
  -1   5  -3  210.36   20.72
   1  -5   3  216.79   14.82
   1  -5   3  201.46   20.96
   1  -5   3  206.82   11.85
  -1   5  -3  201.37   18.31
   1  -5   4  191.34   15.97
  -1   5  -4  204.16   20.51
   1  -5   4  213.20   16.65
  -1   5  -4  180.07   18.52
   1  -5   4  219.08   14.02
   1  -5   4  202.23   22.34
   1  -5   5  856.74   44.90
   1  -5   5  912.30   36.82
   1  -5   5  854.20   41.18
  -1   5  -5  913.10   46.01
   1  -5   5  951.73   52.06
   1  -5   5  885.10   36.57
  -1   5  -5  840.92   45.90
   1  -5   6  478.65   28.81
   1  -5   6  492.73   38.17
  -1   5  -6  486.14   36.02
  -1   5  -6  517.47   33.27
   1  -5   6  520.87   35.04
   1  -5   6  583.24   25.63
   1  -5   6  502.13   33.32
   1  -5   7  316.64   28.57
  -1   5  -7  355.92   27.37
   1  -5   7  412.45   28.38
  -1   5  -7  316.20   30.58
   1  -5   7  390.29   31.06
   1  -5   7  326.54   32.22
   1  -5   8  270.30   29.85
  -1   5  -8  232.98   27.86
   1  -5   8  273.21   27.33
   1  -5   8  205.11   25.24
   1  -5   8  268.02   25.52
  -1   5  -9  840.10   57.86
   1  -5   9  882.44   51.45
   1  -5   9  929.84   58.04
   1  -5   9  827.36   56.36
  -1   5  -9  932.91   55.49
   1  -5   9  840.60   52.52
  -1   5 -10  322.22   32.90
   1  -5  10  274.60   29.95
   1  -5  10  261.23   32.02
   1  -5  10  255.95   31.76
  -1   5 -10  320.21   36.67
  -1   5 -11   20.86    9.21
   1  -5  11   26.07   11.33
   1  -5  11    1.47    7.73
   1  -5  12  157.74   27.80
  -1   5 -12  103.89   23.30
   1  -5  12  149.67   24.94
  -1   5 -13  243.30   37.56
   1  -5  13  216.08   34.56
   1  -5  14    6.01    8.57
  -1   4  13   73.11   23.48
   1  -4 -13  134.46   27.89
  -1   4  12    3.44    8.72
  -1   4  12    6.20   11.62
   1  -4 -12   27.38   13.35
   1  -4 -11  185.70   29.62
  -1   4  11  159.57   26.39
  -1   4  10   45.30   13.59
  -1   4  10   90.82   19.52
   1  -4 -10   65.09   15.14
  -1   4  10   55.32   17.02
   1  -4 -10   75.44   17.83
   1  -4  -9  120.82   21.27
  -1   4   9  102.38   19.47
  -1   4   9  114.95   20.87
  -1   4   9  110.50   21.52
   1  -4  -9   96.76   17.63
  -1   4   8   34.01   11.00
   1  -4  -8   54.52   12.46
  -1   4   8   54.49   13.49
   1  -4  -8   47.43   12.64
   1  -4  -8   50.10   12.10
   1  -4  -7  441.41   33.85
   1  -4  -7  553.52   40.11
  -1   4   7  502.71   39.04
  -1   4   7  403.70   35.65
   1  -4  -7  449.67   34.50
  -1   4   6  663.43   43.87
  -1   4   6  605.38   34.08
   1  -4  -6  644.16   39.74
  -1   4   6  619.13   44.16
   1  -4  -6  679.99   40.71
   1  -4  -6  662.56   41.57
  -1   4   5  628.94   35.33
   1  -4  -5  740.73   40.99
   1  -4  -5  699.13   40.04
  -1   4   5  700.12   43.07
   1  -4  -5  720.07   39.89
  -1   4   4  428.42   27.68
   1  -4  -4  436.16   29.43
   1  -4  -4  435.08   28.54
   1  -4  -4  432.96   28.17
  -1   4   4  389.41   29.90
  -1   4   3 2023.07   71.44
   1  -4  -3 2000.77   70.44
  -1   4   3 1975.80   74.83
   1  -4  -3 2078.43   53.20
   1  -4  -3 2015.87   72.64
  -1   4   2 5607.85  154.59
   1  -4  -2 5556.56  149.88
   1  -4  -2 5724.66  136.89
  -1   4   2 5523.41  152.44
   1  -4  -1  239.77   15.77
  -1   4   1  283.81   22.00
  -1   4   1  228.94   19.40
   1  -4  -1  231.53   18.44
  -1   4   0 1392.31   53.04
   1  -4   0 1371.47   49.06
   1  -4   0 1376.67   51.80
  -1   4   0 1349.57   54.14
   1  -4   1 3794.12   89.10
   1  -4   1 3768.71  108.12
   1  -4   2 1290.72   34.36
   1  -4   2 1179.03   49.72
   1  -4   2 1253.75   40.29
  -1   4  -3  312.32   22.00
   1  -4   3  339.72   19.74
  -1   4  -3  275.83   21.96
   1  -4   3  332.16   19.36
   1  -4   3  311.68   24.54
   1  -4   3  332.81   15.31
   1  -4   4 2929.61   81.91
   1  -4   4 2834.09   90.92
   1  -4   4 3004.46   99.40
   1  -4   4 2923.92   88.36
  -1   4  -4 3195.90   93.86
  -1   4  -4 2920.09   94.06
   1  -4   4 2908.98   81.01
   1  -4   5  340.95   25.02
   1  -4   5  346.64   28.59
   1  -4   5  400.01   19.46
   1  -4   5  381.11   26.22
  -1   4  -5  364.77   24.75
  -1   4  -5  327.79   26.61
   1  -4   5  349.28   22.03
   1  -4   6  205.40   21.13
   1  -4   6  180.56   19.00
   1  -4   6  147.53   15.90
  -1   4  -6  224.75   18.52
  -1   4  -6  107.12   16.70
   1  -4   6  163.40   11.25
   1  -4   6  195.10   22.03
   1  -4   7   21.42    7.41
  -1   4  -7   22.02    8.47
   1  -4   7   15.67    6.65
   1  -4   7   28.07   10.08
  -1   4  -7   16.63    5.36
   1  -4   7   12.89    6.05
   1  -4   8  353.16   29.48
   1  -4   8  274.69   29.33
  -1   4  -8  352.76   29.78
   1  -4   8  322.02   28.71
   1  -4   8  273.93   28.78
  -1   4  -8  341.10   33.32
  -1   4  -9  346.80   35.80
   1  -4   9  333.73   34.63
   1  -4   9  336.93   33.51
   1  -4   9  340.32   31.20
  -1   4  -9  414.52   34.10
   1  -4   9  401.54   34.56
   1  -4  10    4.40    5.82
   1  -4  10    5.34    8.49
  -1   4 -10   17.76    8.91
  -1   4 -10    0.68    6.87
   1  -4  10    4.82    4.28
   1  -4  10    4.68    5.75
  -1   4 -11   80.02   19.97
   1  -4  11   46.49   14.28
   1  -4  12  187.83   27.47
   1  -4  12  203.97   31.88
  -1   4 -12  187.47   31.52
  -1   4 -13   82.06   21.46
   1  -4  13  125.18   27.11
   1  -4  14   71.12   21.21
  -1   3  13   22.76   14.75
  -1   3  13   57.28   16.94
   1  -3 -13   61.83   18.81
   1  -3 -12    1.50    7.80
  -1   3  12  -10.41    8.28
  -1   3  12   -7.51   12.74
  -1   3  11  341.75   41.32
   1  -3 -11  392.72   42.10
  -1   3  11  332.18   37.41
  -1   3  10  285.19   32.82
   1  -3 -10  259.74   29.18
   1  -3 -10  315.48   35.70
  -1   3  10  308.14   37.79
  -1   3  10  258.92   29.83
   1  -3  -9   -2.24    6.55
  -1   3   9    2.10    5.70
   1  -3  -9   -1.01    4.03
  -1   3   9    4.71    8.83
   1  -3  -9    4.27    6.12
  -1   3   9  -13.21    8.11
   1  -3  -8  182.19   21.91
   1  -3  -8  202.52   22.40
   1  -3  -8  222.10   26.54
  -1   3   8  221.96   26.32
  -1   3   8  206.68   24.91
   1  -3  -7  778.41   43.32
   1  -3  -7  650.51   39.98
  -1   3   7  764.93   45.46
  -1   3   7  637.35   43.44
   1  -3  -7  684.49   44.69
  -1   3   7  652.08   31.67
   1  -3  -6  582.34   35.23
  -1   3   6  576.16   37.38
  -1   3   6  639.40   30.58
  -1   3   6  569.72   38.67
   1  -3  -6  642.60   37.44
   1  -3  -6  590.38   38.69
  -1   3   5   -1.02    3.89
   1  -3  -5    1.41    3.78
  -1   3   5    1.81    2.64
   1  -3  -5    0.99    5.30
   1  -3  -5    0.90    3.45
   1  -3  -4  247.62   20.18
  -1   3   4  240.10   17.78
   1  -3  -4  232.06   18.57
  -1   3   4  218.54   20.16
   1  -3  -4  258.16   20.98
  -1   3   3 2376.25   80.18
   1  -3  -3 2427.02   75.22
  -1   3   3 2517.04   76.07
   1  -3  -3 2521.10   79.26
   1  -3  -3 2521.04   77.01
  -1   3   2 1073.80   44.99
   1  -3  -2 1192.85   34.06
   1  -3  -2 1134.88   42.37
  -1   3   2 1146.10   43.91
   1  -3  -2 1174.14   45.52
  -1   3   1   35.59    7.17
  -1   3   1   32.87    6.75
   1  -3  -1   40.12    6.91
   1  -3  -1   37.95    5.44
   1  -3   0 3584.74   97.66
  -1   3   0 3649.63   98.60
  -1   3   0 3636.39  100.04
   1  -3   0 3518.76   95.10
   1  -3   1 9938.88  235.56
   1  -3   1 9800.11  225.31
   1  -3   1 9629.98  234.91
  -1   3  -1 9999.00  237.06
   1  -3   2  512.80   22.82
  -1   3  -2  482.42   24.67
   1  -3   2  479.79   21.74
   1  -3   2  487.32   16.41
   1  -3   2  425.97   25.48
  -1   3  -2  469.41   25.22
  -1   3  -3  247.15   18.64
   1  -3   3  254.36   17.19
   1  -3   3  268.77   14.39
  -1   3  -3  268.30   18.46
   1  -3   3  262.53   20.53
   1  -3   3  251.17   14.77
  -1   3  -4 2088.10   66.12
   1  -3   4 2188.59   59.30
   1  -3   4 2177.99   68.51
   1  -3   4 2060.82   63.82
   1  -3   4 1990.66   73.16
  -1   3  -4 2019.17   72.06
   1  -3   4 2128.08   70.37
   1  -3   5  356.73   23.89
  -1   3  -5  364.06   21.45
   1  -3   5  364.16   26.15
  -1   3  -5  347.69   26.77
   1  -3   5  342.93   26.49
   1  -3   5  347.88   16.60
   1  -3   5  338.72   22.52
   1  -3   6    8.97    5.70
   1  -3   6   17.78    6.59
  -1   3  -6    8.23    3.65
  -1   3  -6    3.93    5.04
   1  -3   6   13.10    6.67
   1  -3   6   14.59    6.38
  -1   3  -7 1473.44   61.17
   1  -3   7 1408.02   60.46
  -1   3  -7 1409.16   67.88
   1  -3   7 1353.92   66.14
   1  -3   7 1465.64   65.56
   1  -3   7 1411.99   62.14
   1  -3   8  552.67   38.97
   1  -3   8  546.06   41.60
   1  -3   8  564.61   39.49
   1  -3   8  577.54   37.64
  -1   3  -8  602.53   37.96
  -1   3  -8  481.45   40.12
   1  -3   9   41.76   12.11
   1  -3   9   22.83    9.93
  -1   3  -9   30.04   10.65
   1  -3   9   38.76   10.96
   1  -3   9   45.91   13.84
  -1   3  -9   32.91    9.58
   1  -3  10  223.55   30.41
   1  -3  10  233.55   26.14
  -1   3 -10  215.43   30.08
   1  -3  10  309.40   31.02
   1  -3  11   26.70   12.43
   1  -3  11   42.36   12.24
  -1   3 -11   59.75   17.48
  -1   3 -12   51.04   16.77
   1  -3  12   11.26    8.01
  -1   3 -13  134.65   27.80
   1  -3  13   69.48   20.56
   1  -2 -14  286.84   41.14
   1  -2 -13   54.43   16.90
  -1   2  13   46.03   15.45
  -1   2  13    4.85   10.01
  -1   2  12  124.10   24.93
   1  -2 -12  137.32   25.97
  -1   2  12  116.86   22.82
   1  -2 -11  756.47   58.88
  -1   2  11  804.30   57.62
   1  -2 -11  763.15   51.87
  -1   2  11  841.43   64.03
   1  -2 -10  651.93   45.62
  -1   2  10  718.48   55.97
   1  -2 -10  681.50   52.88
  -1   2  10  643.71   49.29
  -1   2  10  752.08   47.66
   1  -2  -9   50.54   13.90
   1  -2  -9   46.26   11.39
  -1   2   9   39.40   10.69
   1  -2  -9   37.00   10.58
  -1   2   9   36.66   11.64
   1  -2  -8 1823.95   82.41
   1  -2  -8 1767.24   73.45
  -1   2   8 1809.82   84.76
  -1   2   8 1828.23   74.76
  -1   2   8 1701.38   78.02
   1  -2  -8 1824.44   74.01
   1  -2  -7 1180.11   60.88
  -1   2   7 1157.32   59.40
   1  -2  -7 1301.47   57.86
   1  -2  -7 1177.54   54.71
  -1   2   7 1277.41   57.32
  -1   2   7 1410.65   44.14
  -1   2   7 1283.35   65.01
  -1   2   6  551.33   35.72
   1  -2  -6  534.66   35.78
  -1   2   6  470.19   32.05
   1  -2  -6  488.34   30.24
   1  -2  -6  534.77   32.53
  -1   2   6  551.78   24.76
  -1   2   6  603.83   39.03
  -1   2   5 1362.34   45.78
   1  -2  -5 1388.99   57.72
   1  -2  -5 1393.16   52.19
   1  -2  -5 1472.82   55.74
  -1   2   5 1383.35   59.53
  -1   2   5 1315.60   56.82
   1  -2  -4 1495.29   54.99
  -1   2   4 1411.29   55.54
   1  -2  -4 1375.26   48.79
   1  -2  -4 1444.88   52.78
  -1   2   4 1323.02   53.85
  -1   2   4 1396.06   45.93
   1  -2  -3 2937.36   85.66
  -1   2   3 2896.32   87.25
  -1   2   3 2930.04   80.49
   1  -2  -3 2855.49   84.77
   1  -2  -3 3152.28   81.87
  -1   2   3 2866.83   86.34
   1  -2  -2  170.08   11.57
   1  -2  -2  158.55    7.48
  -1   2   2  158.54   12.29
  -1   2   2  152.34   11.85
   1  -2  -2  160.97   13.27
  -1   2   2  169.98   13.62
   1  -2  -2  159.58   12.24
  -1   2   1 1596.78   44.23
  -1   2   1 1512.48   48.07
   1  -2  -1 1575.82   42.55
   1  -2  -1 1522.22   48.61
   1  -2  -1 1502.14   45.21
  -1   2   1 1504.50   47.74
  -1   2   0 1676.87   49.90
  -1   2   0 1679.90   48.33
   1  -2   0 1609.53   47.48
   1  -2   0 1571.54   47.88
   1  -2   1 1794.00   54.08
   1  -2   1 1753.43   54.24
   1  -2   1 1791.33   50.16
  -1   2  -1 1858.58   53.86
   1  -2   1 1881.70   51.83
  -1   2  -2  966.37   36.70
   1  -2   2 1013.32   35.38
   1  -2   2 1018.19   32.39
   1  -2   2  934.94   37.33
  -1   2  -2 1049.86   35.15
   1  -2   2  994.71   29.87
   1  -2   3 1725.19   56.10
   1  -2   3 1615.15   56.62
   1  -2   3 1667.63   50.61
  -1   2  -3 1707.08   57.44
  -1   2  -3 1545.86   49.39
   1  -2   3 1685.99   51.37
   1  -2   3 1709.75   47.62
  -1   2  -4 2326.74   75.95
   1  -2   4 2157.75   60.74
   1  -2   4 2208.27   73.35
  -1   2  -4 2364.01   63.77
   1  -2   4 2289.50   75.01
   1  -2   4 2275.67   68.38
   1  -2   4 2184.96   69.56
   1  -2   5 1264.06   48.90
  -1   2  -5 1316.49   48.91
  -1   2  -5 1241.93   55.15
  -1   2  -5 1359.69   41.30
   1  -2   5 1263.58   51.11
   1  -2   5 1150.08   55.12
   1  -2   5 1327.04   53.50
   1  -2   6  286.16   23.91
  -1   2  -6  313.60   22.08
   1  -2   6  269.94   21.58
  -1   2  -6  256.51   24.69
   1  -2   6  282.19   21.04
   1  -2   6  276.91   25.79
   1  -2   6  280.96   23.59
  -1   2  -7 1249.00   52.27
   1  -2   7 1174.51   54.43
   1  -2   7 1203.69   57.38
   1  -2   7 1190.09   52.76
   1  -2   7 1131.75   60.24
   1  -2   7 1154.98   50.70
  -1   2  -7 1076.90   58.44
   1  -2   8   31.07   10.56
   1  -2   8   39.10   11.40
   1  -2   8   28.31    8.15
   1  -2   8   44.03   11.01
  -1   2  -8   34.31   11.24
   1  -2   8   34.67    8.23
  -1   2  -8   45.77   10.06
  -1   2  -9  268.06   31.69
   1  -2   9  303.06   27.71
   1  -2   9  319.97   26.73
   1  -2   9  291.65   33.07
   1  -2   9  365.50   30.77
  -1   2  -9  335.13   27.78
  -1   2 -10  735.06   56.18
   1  -2  10  760.14   47.64
   1  -2  10  670.71   55.17
   1  -2  10  789.36   48.81
   1  -2  11   -1.20    8.73
  -1   2 -11   19.44    9.55
   1  -2  12    6.18    8.97
  -1   2 -12   13.24   10.98
  -1   2 -13  342.09   43.90
   1  -2  13  281.32   40.50
   1  -1 -14   11.01    9.85
  -1   1  14   -1.00    7.91
   1  -1 -13   12.01    9.53
  -1   1  13   -6.24   11.42
  -1   1  13   -7.17    7.19
  -1   1  12  265.97   37.02
  -1   1  12  325.14   36.95
   1  -1 -12  384.72   43.03
  -1   1  11  903.81   60.64
   1  -1 -11  958.51   57.33
  -1   1  11  974.43   68.89
   1  -1 -11  968.22   66.38
  -1   1  10  173.78   27.39
   1  -1 -10  176.05   22.32
   1  -1 -10  190.15   27.37
  -1   1  10  194.77   28.26
   1  -1 -10  188.58   22.92
  -1   1  10  145.43   22.45
  -1   1   9  239.16   29.83
   1  -1  -9  213.02   23.29
   1  -1  -9  282.53   26.70
  -1   1   9  244.22   27.17
  -1   1   9  280.10   25.03
   1  -1  -9  250.50   29.48
   1  -1  -8 2411.05   87.56
  -1   1   8 2339.12   93.09
   1  -1  -8 2487.75   98.56
   1  -1  -8 2562.28   90.66
  -1   1   8 2252.47   97.44
  -1   1   8 2511.41   86.30
  -1   1   7 3026.21   76.50
  -1   1   7 3062.92   79.98
  -1   1   7 2756.74   92.14
   1  -1  -7 2817.13  103.75
   1  -1  -7 2734.32   93.32
  -1   1   7 2747.48  100.32
  -1   1   7 2828.50  105.27
   1  -1  -7 3083.43   98.78
   1  -1  -6    7.47    6.51
  -1   1   6    0.22    5.40
  -1   1   6    4.47    1.95
  -1   1   6   -2.67    4.64
   1  -1  -6    6.29    4.36
  -1   1   6    4.88    2.57
   1  -1  -6   11.27    4.88
  -1   1   6    9.82    4.81
  -1   1   5 3769.92  112.65
   1  -1  -5 3750.48  109.29
  -1   1   5 3792.98  115.11
   1  -1  -5 3856.45  114.72
  -1   1   5 3907.78   95.99
   1  -1  -5 3756.98  104.47
  -1   1   5 3572.20  105.01
  -1   1   4 4133.90  103.31
   1  -1  -4 4250.09  113.66
  -1   1   4 4237.35  117.65
   1  -1  -4 4159.76  116.48
  -1   1   4 4118.25  115.68
   1  -1  -4 4044.53  107.24
  -1   1   3  627.86   23.62
   1  -1  -3  670.67   29.36
   1  -1  -3  626.50   27.88
  -1   1   3  646.91   29.03
   1  -1  -3  602.83   23.55
  -1   1   3  622.46   29.00
  -1   1   2 1603.49   48.71
   1  -1  -2 1648.14   43.20
  -1   1   2 1586.10   49.32
   1  -1  -2 1684.45   49.20
  -1   1   2 1592.90   45.87
   1  -1  -2 1646.10   49.18
   1  -1  -1 3148.76   74.41
   1  -1  -1 3101.05   73.71
  -1   1   1 3088.63   78.30
   1  -1  -1 3061.64   78.02
  -1   1   1 3225.65   78.42
   1  -1   1  806.93   27.83
   1  -1   1  789.31   28.44
  -1   1  -1  854.47   26.25
   1  -1   2   33.95    4.18
   1  -1   2   28.08    5.24
  -1   1  -2   25.76    3.50
   1  -1   2   34.90    6.15
   1  -1   2   24.67    4.85
  -1   1  -2   28.62    5.52
   1  -1   2   26.95    4.35
  -1   1  -3 2364.46   71.98
   1  -1   3 2382.49   64.91
   1  -1   3 2268.61   72.45
  -1   1  -3 2411.49   58.80
   1  -1   3 2246.30   68.89
   1  -1   3 2238.79   68.30
   1  -1   3 2351.39   68.78
  -1   1  -4  441.82   15.22
   1  -1   4  412.14   24.97
  -1   1  -4  448.80   21.61
   1  -1   4  415.58   24.00
   1  -1   4  438.11   22.57
   1  -1   4  435.69   24.25
   1  -1   4  429.21   28.16
  -1   1  -4  459.70   27.54
  -1   1  -5    1.54    4.71
   1  -1   5   17.39    5.54
   1  -1   5    7.78    6.44
  -1   1  -5    9.50    3.69
   1  -1   5    4.24    4.82
   1  -1   5    5.89    3.54
   1  -1   5    5.90    5.83
   1  -1   6  552.61   35.80
   1  -1   6  505.66   35.86
  -1   1  -6  550.89   28.77
  -1   1  -6  452.39   33.60
   1  -1   6  542.75   31.99
   1  -1   6  523.55   30.44
   1  -1   6  556.99   31.14
  -1   1  -7  203.09   23.88
   1  -1   7  163.66   23.21
   1  -1   7  225.00   21.15
   1  -1   7  225.22   20.38
   1  -1   7  213.10   20.01
  -1   1  -7  243.83   19.93
  -1   1  -8   -0.66    5.29
  -1   1  -8    9.25    5.31
   1  -1   8   11.14    5.89
   1  -1   8    7.22    5.01
   1  -1   8    6.14    5.34
   1  -1   8    5.11    7.58
  -1   1  -9  110.76   20.17
   1  -1   9  100.63   15.74
   1  -1   9  127.48   16.77
   1  -1   9  104.23   20.10
   1  -1   9  139.05   18.34
  -1   1 -10  205.82   29.19
   1  -1  10  187.51   28.18
   1  -1  10  188.07   23.19
  -1   1 -11  121.80   23.92
   1  -1  11  103.28   22.82
  -1   1 -12  377.77   44.44
   1  -1  12  444.06   48.63
   1  -1  13  629.77   61.25
  -1   1 -13  624.46   54.67
  -1   1 -13  504.22   53.99
  -1   0  14   39.31   18.51
   1   0 -14   42.46   16.35
   1   0 -13  204.96   33.58
  -1   0  13  160.24   30.46
  -1   0  13  148.70   26.24
  -1   0  12  458.62   43.05
   1   0 -12  467.82   47.05
  -1   0  12  478.53   49.66
  -1   0  12  448.00   46.91
   1   0 -11   98.69   18.04
  -1   0  11   82.17   20.04
   1   0 -11   87.41   19.35
  -1   0  11  105.63   19.96
  -1   0  11   96.66   20.83
  -1   0  10   55.49   14.36
  -1   0  10   51.78   16.93
   1   0 -10   59.88   13.73
  -1   0  10   44.47   14.25
   1   0 -10   41.46   13.53
  -1   0   9 1315.08   72.92
  -1   0   9 1587.14   61.15
  -1   0   9 1448.65   71.11
   1   0  -9 1464.26   75.33
   1   0  -9 1592.26   69.68
  -1   0   8 1566.01   70.22
  -1   0   8 1524.61   57.93
  -1   0   8 1572.21   56.61
   1   0  -8 1545.63   73.07
  -1   0   8 1380.07   69.92
   1   0  -8 1602.61   67.45
   1   0  -7  534.35   37.60
  -1   0   7  546.93   36.30
  -1   0   7  570.03   38.51
  -1   0   7  560.99   21.83
   1   0  -7  556.72   34.83
  -1   0   7  558.14   29.30
  -1   0   6  524.97   34.13
   1   0  -6  515.46   31.01
   1   0  -6  471.37   32.56
  -1   0   6  452.35   30.91
  -1   0   6  519.59   25.75
   1   0  -5 1967.21   66.96
   1   0  -5 1883.11   68.90
  -1   0   5 1853.70   67.58
  -1   0   5 2005.77   69.89
  -1   0   5 1897.22   57.15
   1   0  -4 3690.26  105.12
   1   0  -4 3727.04  103.55
  -1   0   4 3591.13  104.09
  -1   0   4 3615.65   93.44
  -1   0   4 3553.99  103.87
   1   0  -4 3828.36   88.38
   1   0  -3 1317.38   35.58
   1   0  -3 1251.46   43.52
   1   0  -3 1265.54   35.15
  -1   0   3 1251.11   44.06
  -1   0   3 1239.98   43.72
   1   0  -3 1237.88   43.61
   1   0  -2 6015.04  135.60
  -1   0   2 5795.56  139.73
   1   0  -2 5808.92  139.41
  -1   0   2 5904.73  141.02
   1   0  -2 5758.61  133.59
   1   0  -2 5765.10  140.80
   1   0   1 1955.21   54.09
   1   0   1 1898.06   50.29
   1   0   1 1993.04   53.46
   1   0   1 1915.04   51.63
  -1   0  -1 1936.12   51.65
   1   0   2 4384.34  101.69
  -1   0  -2 4378.25   98.92
  -1   0  -2 4342.80  109.32
   1   0   2 4263.32  105.89
   1   0   2 4120.71  110.88
   1   0   2 4345.00  101.94
   1   0   2 4002.05  109.75
   1   0   3  303.26   12.42
   1   0   3  297.70   15.82
   1   0   3  279.67   18.84
   1   0   3  311.99   20.73
  -1   0  -3  323.22   14.14
  -1   0  -3  289.47   19.15
   1   0   3  333.26   17.42
   1   0   4  839.71   24.92
  -1   0  -4  855.04   40.03
   1   0   4  907.42   35.09
   1   0   4  927.90   35.15
   1   0   4  955.91   43.14
  -1   0  -4  939.76   32.03
   1   0   4  877.20   38.98
   1   0   5  736.28   37.83
  -1   0  -5  782.93   31.68
   1   0   5  722.06   32.77
   1   0   5  809.05   43.31
  -1   0  -5  737.97   39.95
   1   0   5  764.03   34.67
   1   0   6  182.92   17.31
   1   0   6  158.51   22.36
  -1   0  -6  180.29   14.93
  -1   0  -6  210.19   22.24
   1   0   6  164.04   17.85
   1   0   6  214.52   16.99
  -1   0  -7   34.92   10.70
   1   0   7   19.71   10.32
   1   0   7   18.67    6.74
  -1   0  -7   40.48    7.73
   1   0   7   35.22    8.37
   1   0   7   38.51    7.80
   1   0   8   14.94    5.21
   1   0   8    5.29    8.18
  -1   0  -8   20.13    9.48
   1   0   8   19.25    7.89
   1   0   8   17.18    8.17
  -1   0  -9  538.18   45.04
   1   0   9  596.91   39.93
   1   0   9  588.14   48.77
   1   0   9  609.92   41.70
  -1   0 -10    8.99    8.77
   1   0  10    3.04    7.17
   1   0  10    2.56    5.61
   1   0  10   16.93   12.27
  -1   0 -11   61.69   15.63
  -1   0 -11   24.88   12.01
   1   0  11   71.44   19.37
  -1   0 -12  449.06   47.97
  -1   0 -12  436.46   44.33
   1   0  12  530.37   53.91
  -1   0 -13  242.72   34.36
  -1   0 -13  260.51   38.41
   1   0  13  294.59   42.20
  -1  -1  14   18.69   11.59
   1   1 -14   36.43   17.02
  -1  -1  13  692.89   61.06
  -1  -1  13  552.41   49.52
   1   1 -13  567.53   55.21
  -1  -1  13  551.74   55.44
  -1  -1  12  781.60   63.19
   1   1 -12  800.05   62.98
  -1  -1  12  945.45   62.34
  -1  -1  12  864.47   65.18
   1   1 -11    3.05    5.44
  -1  -1  11    2.13    5.05
  -1  -1  11   12.69    9.37
   1   1 -11   14.03    9.03
  -1  -1  11   21.37   11.09
   1   1 -10  866.94   51.32
   1   1 -10  754.43   54.27
  -1  -1  10  729.28   50.19
  -1  -1  10  786.37   56.55
  -1  -1  10  680.68   51.75
   1   1  -9  758.36   51.11
  -1  -1   9  719.17   40.08
  -1  -1   9  679.73   45.90
   1   1  -9  748.84   45.63
  -1  -1   9  767.58   52.19
  -1  -1   9  691.04   48.69
  -1  -1   8   90.12   16.33
   1   1  -8   99.59   17.25
  -1  -1   8  119.79   12.12
   1   1  -8  137.76   17.91
  -1  -1   8  113.06   16.86
   1   1  -7   45.05    3.83
  -1  -1   7   67.43   12.19
   1   1  -7   41.32   10.22
   1   1  -7   34.83    3.18
   1   1  -7   51.22   11.18
  -1  -1   7   55.19    7.45
  -1  -1   7   43.46   10.54
  -1  -1   6 1198.07   37.45
  -1  -1   6 1205.40   52.60
  -1  -1   6 1171.43   51.79
   1   1  -6 1201.79   33.61
   1   1  -6 1181.69   50.57
   1   1  -6 1246.58   54.48
   1   1  -5  797.47   26.48
  -1  -1   5  755.65   25.41
  -1  -1   5  726.04   36.89
   1   1  -5  751.03   37.17
  -1  -1   5  740.32   37.43
   1   1  -5  757.68   38.29
   1   1  -4 2886.41   83.50
  -1  -1   4 2993.78   84.35
   1   1  -4 2927.50   83.58
   1   1  -4 3151.31   72.58
  -1  -1   4 2910.78   82.70
   1   1  -3  167.93   13.02
   1   1  -3  171.56   13.67
  -1  -1   3  177.08   13.78
   1   1  -3  178.53   10.91
  -1  -1   3  161.15   12.77
   1   1  -2 1725.59   51.73
   1   1  -2 1829.49   49.89
  -1  -1   2 1739.00   50.36
  -1  -1   2 1737.49   46.05
   1   1  -2 1740.76   48.94
  -1  -1   2 1796.00   51.76
   1   1  -1 2062.64   48.15
  -1  -1   1 1907.17   53.22
   1   1  -1 1980.12   50.93
  -1  -1   0 1668.52   46.78
   1   1   0 1656.02   47.86
   1   1   0 1722.91   43.86
   1   1   0 1657.03   48.19
   1   1   1  219.00   11.20
   1   1   1  224.74   12.78
  -1  -1  -1  227.19   14.05
   1   1   1  227.99   12.93
  -1  -1  -1  254.13   11.73
   1   1   1  216.33   14.56
  -1  -1  -2 1203.31   39.36
   1   1   2 1062.22   35.88
  -1  -1  -2 1203.83   31.68
  -1  -1  -2 1125.40   41.79
   1   1   2 1125.18   42.74
   1   1   2 1169.72   35.49
   1   1   2 1242.46   42.10
   1   1   2 1134.17   36.55
  -1  -1  -3   85.89   11.12
   1   1   3   86.66    8.94
   1   1   3  116.46   12.81
  -1  -1  -3   92.38   10.69
   1   1   3  101.59    8.02
   1   1   3   95.40    8.21
  -1  -1  -3   88.97    6.95
   1   1   3   79.88   11.18
   1   1   4  981.69   36.95
   1   1   4  977.93   43.06
  -1  -1  -4 1047.36   31.66
   1   1   4 1073.99   33.43
  -1  -1  -4 1010.99   42.41
   1   1   5 1285.69   50.38
   1   1   5 1325.89   59.25
  -1  -1  -5 1263.00   56.41
   1   1   5 1359.99   57.23
   1   1   5 1301.66   37.19
  -1  -1  -5 1348.45   44.70
   1   1   5 1337.91   45.03
  -1  -1  -6   41.42    6.80
  -1  -1  -6   40.76   11.01
   1   1   6   61.60   12.20
  -1  -1  -6   31.31    9.16
   1   1   6   12.66    6.69
   1   1   6   35.33    8.41
   1   1   6   38.81    6.73
   1   1   7  812.46   43.20
  -1  -1  -7  824.00   36.77
  -1  -1  -7  782.76   47.60
  -1  -1  -7  805.16   49.29
   1   1   7  786.07   35.10
   1   1   7  778.56   50.87
   1   1   7  778.33   46.42
  -1  -1  -8 1116.57   60.79
  -1  -1  -8 1165.29   64.17
   1   1   8  984.58   52.41
   1   1   8 1093.21   64.57
   1   1   8 1104.22   58.82
   1   1   9   60.53   15.31
  -1  -1  -9   62.92   14.59
  -1  -1  -9   71.95   16.07
   1   1   9   89.53   16.42
   1   1   9  110.25   16.81
   1   1  10  138.26   21.23
  -1  -1 -10   82.22   17.59
  -1  -1 -10  179.52   27.09
   1   1  10  171.10   22.76
   1   1  10  109.02   23.42
   1   1  11  438.39   47.26
  -1  -1 -11  557.84   50.70
  -1  -1 -11  523.11   46.67
  -1  -1 -12  296.66   38.53
   1   1  12  185.30   32.70
  -1  -1 -12  224.35   32.05
  -1  -1 -13   12.06    9.20
  -1  -1 -13   -5.24    6.36
   1   1  13   -7.99    9.92
   1   2 -14  107.09   25.11
  -1  -2  14   73.69   21.55
  -1  -2  13  838.89   66.66
  -1  -2  13  935.40   64.44
  -1  -2  13  670.23   62.04
   1   2 -13  871.23   68.11
   1   2 -12  365.15   36.23
   1   2 -12  348.53   40.52
  -1  -2  12  355.17   40.15
  -1  -2  12  418.65   40.67
  -1  -2  12  328.67   39.84
  -1  -2  11   85.78   18.20
   1   2 -11   87.77   19.43
   1   2 -11  101.37   18.53
  -1  -2  11   91.21   19.95
  -1  -2  11  104.26   19.31
  -1  -2  10  874.77   57.13
   1   2 -10  900.94   54.17
   1   2 -10  843.07   57.90
  -1  -2  10  889.34   49.87
  -1  -2  10  825.63   57.73
  -1  -2  10  878.10   55.75
  -1  -2   9 1310.43   67.98
   1   2  -9 1295.86   69.27
  -1  -2   9 1324.78   67.14
   1   2  -9 1418.55   67.32
  -1  -2   9 1294.24   69.83
   1   2  -8  156.48   19.64
   1   2  -8  130.07   19.10
  -1  -2   8  160.16   20.41
  -1  -2   8  129.87   18.60
  -1  -2   7  566.81   37.26
  -1  -2   7  584.29   37.31
   1   2  -7  572.02   36.73
   1   2  -7  613.53   25.13
   1   2  -7  576.83   38.65
   1   2  -6 1034.18   50.52
   1   2  -6 1140.07   51.26
   1   2  -6 1162.03   39.30
  -1  -2   6 1130.70   50.52
  -1  -2   6 1049.38   50.24
   1   2  -5  585.55   32.78
  -1  -2   5  617.41   32.34
  -1  -2   5  607.39   33.52
   1   2  -5  654.55   27.13
   1   2  -5  555.25   32.27
  -1  -2   4   79.51   10.45
   1   2  -4   87.73   11.07
  -1  -2   4   81.89   10.88
   1   2  -4   81.01   10.45
   1   2  -4  108.31   10.11
  -1  -2   3 2339.68   71.95
   1   2  -3 2528.35   70.10
  -1  -2   3 2306.85   68.98
  -1  -2   3 2438.82   68.00
   1   2  -3 2464.84   69.09
   1   2  -2  166.92   12.74
   1   2  -2  175.10   13.51
  -1  -2   2  170.20   11.68
   1   2  -2  181.25   10.44
  -1  -2   2  176.63   12.12
   1   2  -1    3.84    3.75
   1   2  -1    7.76    4.09
  -1  -2   1    1.81    2.51
   1   2   0 1963.73   49.35
   1   2   0 1908.80   58.28
   1   2   0 1945.57   57.93
   1   2   0 1904.68   58.89
  -1  -2   0 1907.84   57.59
   1   2   1  693.53   32.00
  -1  -2  -1  636.99   28.95
  -1  -2  -1  683.70   22.67
   1   2   1  624.70   24.85
   1   2   1  663.86   26.99
   1   2   1  662.81   27.11
   1   2   1  648.15   27.83
   1   2   2 1513.77   46.77
  -1  -2  -2 1472.91   52.91
  -1  -2  -2 1491.69   47.30
   1   2   2 1437.55   54.69
   1   2   2 1474.11   48.21
   1   2   2 1566.96   50.61
   1   2   2 1393.13   48.14
   1   2   3   94.19   12.99
   1   2   3  119.00    9.87
  -1  -2  -3  132.65    9.97
   1   2   3  110.97   10.50
  -1  -2  -3  114.53   12.00
   1   2   3   98.04   11.60
  -1  -2  -3  133.81   14.66
   1   2   3  128.87   12.56
   1   2   4 1015.62   49.30
   1   2   4 1079.06   37.83
  -1  -2  -4  958.37   44.04
  -1  -2  -4 1035.36   36.56
  -1  -2  -4 1030.10   47.83
   1   2   4  952.54   41.89
   1   2   4  973.29   46.21
  -1  -2  -5  603.98   27.22
  -1  -2  -5  583.36   35.28
   1   2   5  595.73   25.14
  -1  -2  -5  525.41   35.12
   1   2   5  496.26   30.65
   1   2   5  570.28   36.94
   1   2   5  492.96   35.15
   1   2   6   46.18   11.37
   1   2   6   43.99    5.66
  -1  -2  -6   54.27   11.85
   1   2   6   49.47   10.46
   1   2   6   43.44   11.48
  -1  -2  -6   36.90    9.63
  -1  -2  -6   35.77    6.73
   1   2   7  602.26   44.41
  -1  -2  -7  547.34   40.15
   1   2   7  531.03   35.77
  -1  -2  -7  510.84   39.09
   1   2   7  561.40   40.73
  -1  -2  -8 1057.15   61.42
   1   2   8 1100.05   57.13
  -1  -2  -8 1181.40   64.93
   1   2   8 1116.01   67.04
   1   2   8 1119.00   62.33
   1   2   9    2.05    4.06
   1   2   9    6.90    9.75
  -1  -2  -9    2.57    6.35
   1   2   9   16.20    9.60
  -1  -2  -9   13.56    8.30
  -1  -2 -10  340.17   36.68
   1   2  10  394.51   42.97
  -1  -2 -10  365.48   39.22
   1   2  10  307.72   34.12
   1   2  11  581.59   55.12
  -1  -2 -11  569.88   49.95
  -1  -2 -11  580.85   52.57
  -1  -2 -12  280.26   36.38
   1   2  12  319.44   42.40
  -1  -2 -12  259.46   36.61
  -1  -2 -13   34.76   14.17
  -1  -3  14  410.31   47.26
   1   3 -14  458.53   51.08
  -1  -3  14  403.48   48.86
  -1  -3  13  436.93   44.20
  -1  -3  13  384.69   48.62
  -1  -3  13  557.99   52.43
   1   3 -13  546.39   53.48
   1   3 -12  140.39   25.68
  -1  -3  12  118.45   22.18
  -1  -3  12  100.73   22.68
   1   3 -12   96.45   19.69
  -1  -3  12  112.74   22.41
  -1  -3  11   86.34   16.33
  -1  -3  11   95.85   21.01
   1   3 -11  131.46   23.57
  -1  -3  11  113.07   21.46
   1   3 -11   79.32   17.21
  -1  -3  11   91.89   19.09
   1   3 -10  877.67   59.59
  -1  -3  10  923.97   57.80
  -1  -3  10  964.99   60.87
  -1  -3  10  861.55   56.56
   1   3 -10  950.29   57.38
  -1  -3  10  993.32   56.02
  -1  -3   9 1055.41   59.17
   1   3  -9 1139.28   60.79
   1   3  -9 1026.75   60.86
  -1  -3   9 1160.65   64.10
  -1  -3   9 1029.75   59.22
  -1  -3   8   14.69   10.64
  -1  -3   8   12.11    6.35
   1   3  -8    8.64    6.48
  -1  -3   8   12.20    6.86
   1   3  -8    9.17    4.03
   1   3  -8    2.20    5.05
   1   3  -7 2073.83   84.45
   1   3  -7 2363.45   87.15
   1   3  -7 2404.89   72.08
  -1  -3   7 2261.97   86.18
  -1  -3   7 2148.29   82.29
  -1  -3   6 1800.51   67.20
   1   3  -6 1683.42   68.04
   1   3  -6 1859.21   60.63
  -1  -3   6 1722.36   69.32
   1   3  -6 1756.16   69.98
  -1  -3   5  135.71   15.77
   1   3  -5  132.18   13.31
  -1  -3   5  147.67   14.99
   1   3  -5  115.75   13.91
  -1  -3   4  763.95   33.86
  -1  -3   4  711.01   36.22
   1   3  -4  777.06   34.45
   1   3  -4  782.61   36.16
  -1  -3   4  764.55   34.36
   1   3  -4  772.91   34.80
   1   3  -3 2000.88   65.95
  -1  -3   3 1990.20   61.81
   1   3  -3 2111.03   60.51
   1   3  -3 2086.72   67.84
  -1  -3   3 1972.05   63.93
  -1  -3   2   12.75    4.27
   1   3  -2   22.96    3.76
  -1  -3   2   14.91    5.19
   1   3  -2   12.64    5.45
   1   3  -2   20.45    6.10
   1   3  -1   81.49   10.57
   1   3  -1   99.60   11.56
  -1  -3   1  113.39   11.74
   1   3  -1   85.94    4.99
   1   3   0  325.93   21.04
   1   3   0  289.96   20.36
   1   3   0  354.06   13.37
  -1  -3   0  344.60   21.28
   1   3   1  871.55   37.08
   1   3   1  884.60   31.21
   1   3   1  845.96   36.53
   1   3   1  922.24   41.50
   1   3   1  883.37   38.44
  -1  -3  -1  873.91   38.74
  -1  -3  -1  897.11   28.09
   1   3   2   20.97    6.07
  -1  -3  -2   30.85    5.45
  -1  -3  -2   23.15    6.53
   1   3   2   34.10    8.35
   1   3   2    5.07    4.08
   1   3   2   13.32    4.58
   1   3   2   18.86    5.71
   1   3   3  567.43   29.90
   1   3   3  549.27   35.50
  -1  -3  -3  623.54   30.06
   1   3   3  598.41   28.78
   1   3   3  658.52   33.20
  -1  -3  -3  633.86   35.68
   1   3   3  558.19   31.28
   1   3   4  142.33   13.77
  -1  -3  -4  165.88   16.49
  -1  -3  -4  126.55   16.75
   1   3   4  140.73   15.64
   1   3   4  145.04   13.01
   1   3   4  177.19   18.58
   1   3   4  149.21   18.61
  -1  -3  -5   21.80    7.12
   1   3   5    0.45    5.23
   1   3   5    9.56    3.58
  -1  -3  -5    6.69    3.60
   1   3   5   25.33    9.19
   1   3   5   15.95    6.27
   1   3   5   14.51    4.60
  -1  -3  -5    5.32    5.86
   1   3   6  279.21   28.15
  -1  -3  -6  259.58   26.82
   1   3   6  235.85   25.90
   1   3   6  207.02   21.90
  -1  -3  -6  206.09   22.49
  -1  -3  -6  236.15   18.53
  -1  -3  -7  582.56   41.46
   1   3   7  574.70   43.81
  -1  -3  -7  501.96   40.28
   1   3   7  573.26   38.94
   1   3   7  586.42   44.53
  -1  -3  -8  550.61   43.07
  -1  -3  -8  487.17   41.58
   1   3   8  526.62   43.47
   1   3   8  499.53   43.60
   1   3   8  497.96   38.40
  -1  -3  -9   26.25   11.19
   1   3   9   -0.08    5.02
   1   3   9   17.30   10.72
   1   3   9    6.35    8.74
  -1  -3  -9   17.46    9.08
  -1  -3 -10  349.90   38.09
  -1  -3 -10  302.96   35.84
   1   3  10  322.00   36.93
   1   3  10  326.03   39.27
   1   3  11  995.51   69.07
  -1  -3 -11 1046.99   71.99
   1   3  11 1039.53   76.00
  -1  -3 -11 1014.22   70.83
  -1  -3 -12   65.30   18.05
  -1  -3 -12   87.62   20.96
   1   3  12   34.44   14.75
  -1  -3 -13  154.56   29.55
   1   4 -14  352.69   44.48
  -1  -4  14  314.37   42.95
  -1  -4  14  358.48   43.84
  -1  -4  14  412.67   45.02
  -1  -4  13  142.24   25.26
  -1  -4  13  142.23   26.44
   1   4 -13  148.13   27.82
  -1  -4  13  117.16   25.48
  -1  -4  12   81.20   18.39
  -1  -4  12   99.04   20.37
  -1  -4  12   89.13   19.51
   1   4 -12   97.42   22.23
   1   4 -12   83.96   18.98
  -1  -4  12   68.10   19.50
  -1  -4  11  340.35   36.16
  -1  -4  11  405.22   37.90
  -1  -4  11  397.81   38.94
  -1  -4  11  294.23   36.95
   1   4 -11  381.80   40.08
   1   4 -11  374.46   37.22
   1   4 -10  623.15   46.62
  -1  -4  10  649.39   46.97
   1   4 -10  591.67   47.34
  -1  -4  10  549.74   44.62
  -1  -4   9   44.17   11.87
   1   4  -9   73.89   15.78
  -1  -4   9   43.30   11.76
   1   4  -9   34.88   11.43
  -1  -4   9   69.23   15.33
  -1  -4   8  219.79   23.61
   1   4  -8  214.69   24.84
  -1  -4   8  268.87   26.61
  -1  -4   8  206.68   24.35
   1   4  -8  247.85   26.55
   1   4  -8  243.04   20.11
   1   4  -7  287.36   26.58
  -1  -4   7  386.47   28.68
  -1  -4   7  337.14   29.29
  -1  -4   7  319.34   26.92
   1   4  -7  330.54   23.83
   1   4  -7  312.07   28.44
  -1  -4   6  793.50   40.05
   1   4  -6  851.95   40.75
  -1  -4   6  802.52   24.65
   1   4  -6  780.87   42.12
  -1  -4   6  839.88   41.36
  -1  -4   6  722.87   43.01
  -1  -4   5    3.06    3.63
  -1  -4   5    2.16    3.62
  -1  -4   5   -1.14    4.13
   1   4  -5    2.07    4.26
   1   4  -5    0.04    3.71
   1   4  -5    0.16    3.96
   1   4  -4 1724.45   58.41
  -1  -4   4 1807.62   64.24
  -1  -4   4 1753.52   54.31
  -1  -4   4 1688.74   58.43
  -1  -4   4 1580.54   63.82
   1   4  -4 1795.79   66.23
   1   4  -4 1711.06   64.08
  -1  -4   3 1725.64   46.44
   1   4  -3 1619.53   51.57
  -1  -4   3 1669.61   55.59
   1   4  -3 1621.55   61.84
   1   4  -3 1622.40   62.79
  -1  -4   3 1558.70   59.32
  -1  -4   2    0.82    3.09
   1   4  -2    3.92    2.19
   1   4  -2    1.68    4.31
   1   4  -2    4.68    5.98
  -1  -4   2    1.12    3.71
   1   4  -1 1964.50   70.50
   1   4  -1 2001.65   70.44
   1   4  -1 1917.28   49.80
  -1  -4   1 2119.97   69.45
  -1  -4   0 2505.36   79.76
   1   4   0 2335.52   58.14
   1   4   0 2336.32   79.08
   1   4   0 2277.69   78.94
  -1  -4  -1  205.16   19.34
   1   4   1  224.29   19.53
   1   4   1  250.22   14.32
   1   4   1  187.55   18.30
   1   4   1  203.17   18.75
  -1  -4  -2 2855.65   76.88
   1   4   2 2666.31   89.00
   1   4   2 2687.77   88.78
   1   4   2 2691.61   80.83
  -1  -4  -2 2706.19   91.94
   1   4   2 2667.26   87.11
   1   4   2 2778.00   95.89
   1   4   3 1932.25   68.00
   1   4   3 1908.22   69.79
   1   4   3 1971.23   79.27
  -1  -4  -3 1962.67   75.59
   1   4   3 1909.25   68.11
   1   4   3 1839.35   71.29
  -1  -4  -3 1928.98   63.53
   1   4   4   11.88    7.00
  -1  -4  -4    7.36    5.50
  -1  -4  -4    9.04    4.52
   1   4   4    6.63    4.80
   1   4   4   20.05    5.97
   1   4   4   11.85    5.52
   1   4   4   10.56    4.55
  -1  -4  -5  225.55   24.70
  -1  -4  -5  227.78   21.67
   1   4   5  239.66   19.19
   1   4   5  206.80   18.96
   1   4   5  210.48   25.49
   1   4   5  185.77   21.15
   1   4   5  215.91   23.20
   1   4   6  792.80   47.54
   1   4   6  789.79   53.12
  -1  -4  -6  831.95   47.53
   1   4   6  869.59   51.51
  -1  -4  -6  736.67   49.37
   1   4   7  640.72   49.63
  -1  -4  -7  708.36   46.78
   1   4   7  706.38   46.49
   1   4   7  702.80   49.69
  -1  -4  -7  716.70   50.37
   1   4   8    4.86    6.70
   1   4   8   -0.34    4.88
  -1  -4  -8    7.83    7.81
   1   4   8   -1.63    6.66
  -1  -4  -8   -2.21    5.56
   1   4   9  410.90   42.18
   1   4   9  372.54   39.85
  -1  -4  -9  321.14   35.21
   1   4   9  329.56   34.22
  -1  -4  -9  392.64   40.07
  -1  -4 -10  745.80   59.40
  -1  -4 -10  783.58   59.00
   1   4  10  827.24   64.54
   1   4  10  810.31   62.62
  -1  -4 -11  512.27   49.36
   1   4  11  407.23   45.43
   1   4  11  437.53   48.62
  -1  -4 -11  416.13   45.69
   1   4  12   14.97   10.39
  -1  -4 -12  -16.76   10.87
  -1  -5  15  511.93   55.88
   1   5 -14  280.57   40.33
  -1  -5  14  371.56   45.74
  -1  -5  14  323.44   40.34
  -1  -5  13   14.16   10.72
  -1  -5  13   16.72    9.15
   1   5 -13   17.06   10.70
   1   5 -13   10.38    9.03
  -1  -5  13    7.12    8.23
  -1  -5  13    1.71    7.83
  -1  -5  12  636.84   52.32
   1   5 -12  712.81   56.18
  -1  -5  12  701.03   57.97
   1   5 -12  612.00   54.78
  -1  -5  12  706.14   56.18
  -1  -5  12  645.53   52.77
  -1  -5  11  636.31   50.17
  -1  -5  11  457.64   41.84
   1   5 -11  456.41   44.79
  -1  -5  11  486.00   44.84
   1   5 -11  540.90   47.11
  -1  -5  11  536.28   46.88
  -1  -5  10   24.09   10.16
   1   5 -10    7.66    7.08
  -1  -5  10   20.05   10.49
   1   5 -10   23.38   10.79
  -1  -5  10   13.67    9.76
  -1  -5   9   23.30    9.36
   1   5  -9   71.51   15.62
  -1  -5   9   54.88   12.39
  -1  -5   9   35.26   11.49
   1   5  -9   42.19   12.41
  -1  -5   8  207.82   24.21
   1   5  -8  217.56   25.88
   1   5  -8  226.91   21.65
   1   5  -8  203.96   24.24
  -1  -5   8  243.25   24.60
  -1  -5   8  209.76   25.38
  -1  -5   7  116.76   18.26
   1   5  -7  110.34   16.26
  -1  -5   7   82.59   13.50
   1   5  -7   93.90   13.85
  -1  -5   7   58.67   13.39
   1   5  -6   16.26    7.60
   1   5  -6    6.09    5.29
  -1  -5   6    2.21    3.03
  -1  -5   6    9.83    6.48
   1   5  -6    5.46    5.59
  -1  -5   6    8.31    5.47
  -1  -5   5  108.29   12.96
   1   5  -5  106.18   13.23
  -1  -5   5   66.00   10.08
   1   5  -5   98.43   15.05
   1   5  -5   96.56   14.28
  -1  -5   5  100.49   15.41
  -1  -5   5   74.11   13.00
   1   5  -4  564.05   36.34
  -1  -5   4  562.10   29.81
   1   5  -4  551.02   28.38
  -1  -5   4  530.53   23.70
   1   5  -4  545.15   34.92
  -1  -5   4  540.22   33.89
   1   5  -3    4.54    2.41
   1   5  -3    2.29    4.93
  -1  -5   3    2.04    3.41
   1   5  -3    7.79    5.56
  -1  -5   3    1.30    3.69
   1   5  -2  259.96   14.11
   1   5  -2  238.05   23.03
   1   5  -2  231.36   22.50
  -1  -5   2  267.90   22.82
  -1  -5   2  264.38   19.27
   1   5  -1  903.85   47.62
   1   5  -1  905.11   47.51
   1   5  -1 1025.36   30.29
  -1  -5   1  920.12   46.09
   1   5   0  603.23   36.64
  -1  -5   0  673.61   37.38
   1   5   0  690.86   38.23
   1   5   1  612.92   37.59
   1   5   1  672.02   25.89
   1   5   1  654.80   39.51
   1   5   1  596.61   37.32
  -1  -5  -1  679.84   39.43
   1   5   2 1680.23   68.68
   1   5   2 1878.36   77.62
  -1  -5  -2 1713.20   72.05
   1   5   2 1775.03   71.28
   1   5   2 1718.79   70.25
   1   5   2 1716.80   58.34
   1   5   3 1386.23   55.23
  -1  -5  -3 1425.88   50.86
   1   5   3 1375.47   59.53
   1   5   3 1467.62   70.41
  -1  -5  -3 1325.47   63.84
   1   5   3 1324.90   60.35
   1   5   3 1365.36   62.87
   1   5   4    2.83    5.39
   1   5   4    0.56    3.25
   1   5   4    2.99    6.36
   1   5   4   -2.45    4.60
   1   5   4   -2.55    5.24
  -1  -5  -4    4.06    5.33
  -1  -5  -4   17.47    6.71
  -1  -5  -5 1362.37   69.87
   1   5   5 1370.94   61.13
   1   5   5 1496.19   60.82
  -1  -5  -5 1455.88   61.20
   1   5   5 1431.92   65.99
   1   5   5 1364.95   73.37
   1   5   5 1289.48   65.65
   1   5   6 1655.31   77.47
  -1  -5  -6 1515.98   78.57
   1   5   6 1677.20   85.66
   1   5   6 1637.79   76.06
  -1  -5  -6 1706.05   72.47
   1   5   7  174.66   26.74
  -1  -5  -7  134.01   22.58
  -1  -5  -7  146.44   20.91
   1   5   7  152.92   23.19
   1   5   7  146.28   21.92
  -1  -5  -8  543.15   47.63
   1   5   8  544.64   46.95
   1   5   8  570.39   50.67
   1   5   8  472.24   41.88
   1   5   9  861.11   59.96
   1   5   9  985.02   67.28
  -1  -5  -9  908.25   65.65
   1   5   9  950.84   69.07
   1   5  10  477.64   49.71
   1   5  10  504.10   50.26
  -1  -5 -10  412.63   45.55
   1   5  11   15.33   10.39
  -1  -5 -11  -10.35    8.80
   1   5  11   -5.12    8.04
  -1  -6  14  134.08   26.74
  -1  -6  14  109.19   24.07
   1   6 -14  137.40   28.18
  -1  -6  13   39.88   14.67
   1   6 -13   50.50   17.30
  -1  -6  13   61.12   19.02
  -1  -6  13   62.25   17.54
   1   6 -13   49.32   16.42
  -1  -6  12  343.45   40.18
   1   6 -12  363.10   41.87
  -1  -6  12  442.72   43.74
  -1  -6  12  435.14   44.93
   1   6 -12  514.87   48.58
   1   6 -11  177.25   27.57
  -1  -6  11  234.35   31.66
   1   6 -11  231.61   31.69
  -1  -6  11  237.17   30.32
  -1  -6  11  226.66   32.69
  -1  -6  10    8.87    7.31
   1   6 -10   -1.19    6.71
  -1  -6  10   -1.19    8.63
  -1  -6  10   -1.38    5.12
   1   6 -10   -2.12    5.29
   1   6  -9  713.64   52.50
  -1  -6   9  733.01   46.97
   1   6  -9  774.50   45.87
   1   6  -9  652.29   48.01
  -1  -6   9  632.38   49.00
  -1  -6   9  842.65   50.72
   1   6  -8  459.18   36.90
  -1  -6   8  503.08   35.80
  -1  -6   8  431.19   33.44
  -1  -6   8  408.42   37.22
   1   6  -8  467.55   34.94
   1   6  -7   85.61   15.99
   1   6  -7   85.73   14.56
  -1  -6   7   77.35   15.32
   1   6  -7   66.56   13.31
  -1  -6   7   93.40   14.41
  -1  -6   7   50.87   10.69
   1   6  -6  560.66   35.82
   1   6  -6  622.08   42.14
  -1  -6   6  595.39   35.36
  -1  -6   6  660.86   33.03
  -1  -6   6  633.65   43.26
   1   6  -6  603.87   40.38
  -1  -6   6  610.50   41.41
   1   6  -5  332.10   29.53
   1   6  -5  312.06   23.54
  -1  -6   5  338.40   24.26
   1   6  -5  303.71   29.08
  -1  -6   5  339.91   18.70
  -1  -6   5  332.85   28.94
  -1  -6   5  321.74   29.70
  -1  -6   4  117.37   16.81
   1   6  -4  120.52   17.76
  -1  -6   4  118.77   13.88
   1   6  -4  108.27   16.68
   1   6  -4  133.12   13.36
  -1  -6   3  692.45   34.97
   1   6  -3  690.19   30.07
   1   6  -3  656.28   43.16
   1   6  -3  755.85   45.26
  -1  -6   3  675.46   41.57
   1   6  -2  439.93   20.18
  -1  -6   2  465.83   27.89
   1   6  -2  406.32   32.92
  -1  -6   2  450.11   32.83
   1   6  -2  369.93   31.64
   1   6  -1   68.98   13.64
   1   6  -1   69.15    6.58
   1   6  -1   75.23   14.10
  -1  -6   1   62.89   12.28
   1   6   0    5.69    5.06
  -1  -6   0   12.25    7.38
   1   6   0    7.00    6.32
   1   6   1  469.48   35.13
   1   6   1  458.95   35.49
  -1  -6  -1  467.79   35.52
  -1  -6  -2  834.73   50.25
   1   6   2  888.74   51.28
   1   6   2  971.74   57.07
   1   6   2  862.96   50.35
   1   6   2  881.00   49.87
   1   6   3   67.27   16.76
   1   6   3   53.50   12.07
   1   6   3   61.18   10.01
  -1  -6  -3   53.75   12.81
   1   6   3   68.63   13.65
   1   6   3   49.29   12.33
   1   6   4   46.73   11.34
   1   6   4   55.60   15.28
   1   6   4   38.30   11.02
   1   6   4   43.42   11.14
   1   6   4   66.31   11.71
  -1  -6  -4   46.38   12.77
  -1  -6  -5 1273.68   70.77
   1   6   5 1324.49   64.06
   1   6   5 1310.30   69.08
   1   6   5 1314.37   62.27
   1   6   5 1212.30   73.62
   1   6   5 1299.48   61.34
   1   6   6  978.82   60.83
   1   6   6  993.65   67.69
  -1  -6  -6  909.33   61.67
   1   6   6 1130.89   59.93
  -1  -6  -7   -9.91    8.08
   1   6   7    0.12    5.75
   1   6   7   14.04   10.26
   1   6   8  499.59   50.31
   1   6   8  483.25   44.60
  -1  -6  -8  428.27   44.54
   1   6   9  766.66   65.25
  -1  -6  -9  747.15   61.69
   1   6  10   65.92   20.06
  -1  -6 -10   72.87   20.64
  -1  -6 -11   51.14   17.53
  -1  -7  14   -2.06    7.26
   1   7 -14    4.06    6.25
  -1  -7  14    5.53    8.87
   1   7 -13  136.89   26.91
   1   7 -13  114.04   25.06
  -1  -7  13   98.74   23.65
  -1  -7  13  132.16   26.35
  -1  -7  12  237.59   33.98
   1   7 -12  190.00   30.18
  -1  -7  12  198.19   32.30
   1   7 -12  175.99   29.85
   1   7 -11   92.52   20.18
  -1  -7  11   98.90   22.61
   1   7 -11   42.01   14.41
  -1  -7  11   79.94   19.20
   1   7 -10   10.74    9.18
  -1  -7  10    8.74    7.79
   1   7 -10   23.67   11.23
   1   7  -9  491.57   45.42
   1   7  -9  513.52   42.30
  -1  -7   9  518.37   45.45
   1   7  -9  626.85   44.10
   1   7  -8  348.23   32.24
  -1  -7   8  309.41   33.78
   1   7  -8  333.92   32.08
   1   7  -7  349.55   32.77
   1   7  -7  314.13   28.15
   1   7  -7  291.46   30.72
  -1  -7   7  290.73   31.53
  -1  -7   7  290.85   25.74
   1   7  -6  923.30   46.86
  -1  -7   6  879.51   44.77
  -1  -7   6  777.98   52.38
   1   7  -6  897.75   55.52
   1   7  -6  835.01   52.80
  -1  -7   6  907.19   54.18
  -1  -7   5  349.56   32.40
   1   7  -5  455.49   37.95
  -1  -7   5  383.77   27.42
   1   7  -5  440.26   37.22
   1   7  -5  455.19   28.94
  -1  -7   4   28.93    7.86
   1   7  -4   31.91   10.00
   1   7  -4   33.15    6.99
  -1  -7   4   10.92    7.61
   1   7  -4   46.61   13.17
   1   7  -3  757.87   50.22
   1   7  -3  739.44   49.41
  -1  -7   3  771.50   48.45
  -1  -7   3  838.39   41.32
   1   7  -2  449.97   37.75
   1   7  -2  498.80   39.78
  -1  -7   2  456.69   36.26
  -1  -7   2  519.98   31.76
  -1  -7   1    1.78    5.60
   1   7  -1   11.12    7.66
   1   7  -1    2.29    6.03
   1   7   0 1417.29   70.80
   1   7   0 1429.60   71.60
  -1  -7   0 1391.83   69.05
  -1  -7  -1  848.94   52.71
   1   7   1  815.04   51.60
   1   7   1  830.61   52.93
   1   7   2  248.98   27.42
   1   7   2  298.97   33.09
   1   7   2  234.52   27.91
  -1  -7  -2  240.71   28.36
   1   7   3   33.31   11.29
   1   7   3   41.80   13.67
  -1  -7  -3   36.06   11.60
   1   7   3   37.31   12.13
   1   7   3   37.56   11.34
   1   7   4  481.46   39.34
  -1  -7  -4  399.40   38.47
   1   7   4  416.91   35.53
   1   7   4  376.04   40.54
   1   7   4  424.53   38.91
   1   7   5  427.67   37.58
   1   7   5  524.97   44.41
   1   7   5  444.58   44.99
  -1  -7  -5  449.87   42.37
  -1  -7  -6  208.49   29.81
   1   7   6  155.66   24.73
   1   7   6  145.41   26.94
   1   7   7   24.61   12.28
   1   7   7   30.25   13.42
  -1  -7  -7   12.34    8.70
  -1  -7  -8  381.08   44.04
   1   7   8  458.58   45.78
   1   7   8  432.94   49.09
  -1  -7  -9  332.48   42.92
   1   7   9  336.90   44.83
  -1  -7 -10   51.66   16.44
   1   8 -13  158.31   28.95
   1   8 -13  136.68   27.79
  -1  -8  13   77.66   22.58
  -1  -8  13  109.61   24.74
  -1  -8  12   -9.47    9.67
   1   8 -12    2.17    6.73
   1   8 -12    2.48    6.28
  -1  -8  12    8.20    9.30
   1   8 -11   15.79   10.25
   1   8 -11   18.08   10.98
  -1  -8  11   39.63   14.52
  -1  -8  11   13.09    9.56
   1   8 -10  169.48   25.56
   1   8 -10  158.24   27.38
  -1  -8  10  167.09   27.71
   1   8  -9   23.06    9.62
  -1  -8   9   10.78    8.27
   1   8  -9   42.60   12.99
   1   8  -8    3.47    6.20
  -1  -8   8   15.14   10.30
   1   8  -7  252.90   30.15
  -1  -8   7  253.42   31.23
   1   8  -7  234.93   30.53
  -1  -8   6  207.07   26.67
   1   8  -6  196.91   26.74
   1   8  -6  231.75   29.39
  -1  -8   6  202.27   27.40
   1   8  -5  105.82   19.68
  -1  -8   5   66.51   15.23
   1   8  -5  111.61   20.13
   1   8  -4  107.82   19.78
   1   8  -4   97.12   19.00
  -1  -8   4  119.44   20.06
   1   8  -3 1208.58   69.91
  -1  -8   3 1343.50   57.34
   1   8  -3 1215.49   69.79
  -1  -8   3 1292.55   69.11
  -1  -8   2  746.66   51.46
   1   8  -2  743.56   53.65
   1   8  -2  836.77   56.32
  -1  -8   2  876.93   45.54
   1   8  -1  116.51   20.56
   1   8  -1   79.41   17.48
  -1  -8   1  129.48   20.22
   1   8   0 1308.35   72.91
   1   8   0 1338.49   73.09
  -1  -8   0 1234.75   69.01
   1   8   1 1078.28   65.21
   1   8   1 1209.32   71.36
  -1  -8  -1 1240.98   69.23
   1   8   1 1074.92   66.10
   1   8   2   -2.18    6.24
   1   8   2    1.28    5.75
   1   8   2   11.68    9.69
  -1  -8  -2    5.43    7.79
   1   8   3  645.77   54.80
   1   8   3  565.64   46.86
  -1  -8  -3  608.25   50.03
   1   8   3  675.50   49.59
   1   8   4  856.21   60.59
   1   8   4  956.47   68.84
  -1  -8  -4  847.72   61.51
   1   8   4  934.09   59.45
   1   8   4  940.72   60.81
   1   8   5  431.72   46.89
   1   8   5  471.24   44.94
  -1  -8  -5  496.10   47.46
   1   8   6   22.63    9.52
  -1  -8  -6   19.07    9.82
   1   8   6   16.19    9.39
   1   8   7  131.57   24.89
  -1  -8  -7  151.76   28.18
   1   8   7  114.94   26.91
  -1  -8  -8  284.26   39.53
   1   8   8  290.45   42.16
   1   8   8  337.02   41.33
  -1  -9  13   37.30   15.26
   1   9 -12   46.63   17.24
  -1  -9  12   48.17   18.34
  -1  -9  12   66.81   21.13
  -1  -9  11   83.80   21.00
   1   9 -11  120.39   25.76
  -1  -9  11  164.48   30.54
   1   9 -10  114.13   24.35
  -1  -9  10   93.23   21.82
  -1  -9   9   23.31   11.12
   1   9  -9   25.17   10.70
   1   9  -8  332.06   36.93
  -1  -9   8  253.26   33.91
   1   9  -7  167.41   26.43
   1   9  -7  153.66   26.30
  -1  -9   7  143.66   24.59
  -1  -9   6    0.19    7.45
  -1  -9   6    2.30    6.49
   1   9  -6    8.83    5.85
   1   9  -6    7.47    9.14
  -1  -9   5  -15.75    9.67
   1   9  -5    1.48    7.49
   1   9  -5    0.47    7.12
   1   9  -4  436.21   43.41
   1   9  -4  449.54   43.64
  -1  -9   4  404.60   39.81
   1   9  -3  360.05   38.82
   1   9  -3  456.74   43.80
  -1  -9   3  452.23   41.63
   1   9  -2  110.57   21.42
   1   9  -2  102.98   21.29
  -1  -9   2  102.56   19.95
  -1  -9   1  255.57   31.74
   1   9  -1  304.80   35.31
   1   9  -1  312.69   36.29
   1   9   0  598.72   50.93
   1   9   0  616.89   50.86
  -1  -9   0  574.70   48.76
   1   9   1  786.19   58.19
   1   9   1  776.94   59.10
  -1  -9  -1  737.98   56.73
   1   9   1  766.28   59.50
   1   9   2   11.17    8.78
   1   9   2   10.56    8.85
  -1  -9  -2    6.68    8.26
   1   9   2   21.30   10.56
   1   9   3  831.57   65.84
   1   9   3  829.59   59.93
   1   9   3  880.87   62.84
  -1  -9  -3  756.97   59.82
   1   9   4  768.59   59.07
  -1  -9  -4  788.33   62.38
   1   9   4  903.02   62.05
   1   9   4  839.55   68.54
  -1  -9  -5   91.53   21.60
   1   9   5   60.88   20.52
   1   9   6  117.69   27.88
  -1  -9  -6  216.41   34.01
  -1  -9  -7  508.88   54.51
   1   9   7  645.04   58.97
  -1 -10  11  256.58   38.11
   1  10 -11  263.19   39.54
  -1 -10  10   62.54   18.00
  -1 -10  10   55.38   19.59
   1  10 -10   57.20   18.55
   1  10  -9   85.65   21.21
  -1 -10   9   93.46   21.22
   1  10  -8  566.30   52.27
  -1 -10   8  690.37   59.02
   1  10  -7  146.87   25.92
  -1 -10   7  137.56   25.90
   1  10  -7  163.72   28.12
   1  10  -6    3.48    9.20
   1  10  -6    0.04    7.93
  -1 -10   6   13.34   10.09
  -1 -10   6    5.22    8.16
  -1 -10   5  442.68   44.77
   1  10  -5  451.92   47.28
   1  10  -5  417.52   44.86
  -1 -10   4  757.64   58.38
   1  10  -4  601.47   54.25
   1  10  -4  590.39   54.16
  -1 -10   3   16.34    9.68
   1  10  -3   34.89   15.25
   1  10  -3   33.20   14.33
  -1 -10   2  119.42   23.22
   1  10  -2  137.83   26.15
   1  10  -2  157.39   28.08
   1  10  -1  310.93   39.29
   1  10  -1  360.76   41.74
  -1 -10   1  430.81   43.83
   1  10   0  308.34   38.42
   1  10   0  263.19   36.06
   1  10   0  260.37   35.27
  -1 -10   0  341.53   39.74
   1  10   1  146.32   27.43
   1  10   1  103.86   22.69
   1  10   1  132.93   25.85
  -1 -10  -1  136.07   25.64
  -1 -10  -2   89.12   21.70
   1  10   2   88.67   21.65
   1  10   2   80.20   20.17
   1  10   2   84.22   23.27
   1  10   3  262.21   38.50
   1  10   3  290.16   37.25
   1  10   3  248.60   35.20
  -1 -10  -3  256.81   36.62
   1  10   4  440.65   47.09
   1  10   4  565.45   59.25
  -1 -10  -4  515.96   53.43
   1  10   5   -6.16    9.80
  -1 -10  -5    3.26    7.56
   1  11  -9  171.59   30.85
  -1 -11   9  126.43   27.00
  -1 -11   9  108.83   27.38
  -1 -11   8  485.59   52.39
   1  11  -8  452.67   49.42
   1  11  -7   72.39   21.58
   1  11  -7   52.95   17.93
  -1 -11   7   94.93   22.39
   1  11  -6   35.86   15.76
  -1 -11   6   27.56   12.66
   1  11  -6   43.28   15.78
  -1 -11   6   36.87   15.91
   1  11  -5 1268.68   86.35
   1  11  -5 1271.46   85.58
  -1 -11   5 1219.17   81.24
   1  11  -4  697.10   62.61
  -1 -11   4  650.60   58.30
   1  11  -4  713.26   63.05
  -1 -11   3   18.04   13.72
   1  11  -3    8.98    9.43
   1  11  -3   33.04   14.96
   1  11  -2  595.71   57.29
   1  11  -2  561.88   53.86
  -1 -11   2  599.45   55.26
   1  11  -2  578.53   56.90
   1  11  -1  367.64   45.09
   1  11  -1  413.33   47.94
  -1 -11   1  433.11   47.14
   1  11  -1  434.85   47.72
   1  11   0  178.98   31.72
  -1 -11   0  140.58   27.22
   1  11   0   79.40   20.76
   1  11   0  139.64   28.26
   1  11   1   67.25   20.56
   1  11   1   80.58   20.83
   1  11   1   77.50   20.50
  -1 -11  -1   47.89   17.76
   1  11   2  296.22   43.07
   1  11   2  303.97   40.60
   1  11   2  323.28   42.15
  -1 -11  -2  291.90   41.01
   1  11   3  261.64   37.21
   1  11   3  234.68   38.71
   1  11   3  216.23   34.77
  -1 -11  -3  249.55   38.36
  -1 -12   7   20.37   13.93
   1  12  -7   18.46   12.00
   1  12  -6  194.26   34.19
  -1 -12   6  250.23   38.23
   1  12  -6  222.17   36.55
  -1 -12   6  178.42   32.91
  -1 -12   6  202.84   34.36
  -1 -12   5  661.36   62.00
   1  12  -5  599.53   60.54
   1  12  -5  606.13   61.62
  -1 -12   5  620.13   59.74
  -1 -12   4   85.57   22.17
   1  12  -4   64.71   21.83
   1  12  -4   30.91   13.87
  -1 -12   4   39.79   15.48
  -1 -12   3   97.51   24.12
   1  12  -3   50.60   17.39
   1  12  -3   98.23   24.27
   1  12  -3   70.87   22.04
   1  12  -2  687.94   65.31
   1  12  -2  786.82   69.31
   1  12  -2  656.97   61.03
  -1 -12   2  698.47   64.44
   1  12  -1  543.50   58.24
   1  12  -1  568.82   57.80
  -1 -12   1  592.77   59.20
   1  12  -1  612.58   61.35
   1  12   0   34.02   16.05
   1  12   0   29.09   15.85
   1  12   0   12.85   11.12
   1  12   1  512.85   55.50
   1  12   1  495.62   55.89
   1  12   2  320.38   43.99
   2 -13   2   86.88   21.92
   2 -12  -3  172.41   31.65
  -2  12   3  191.06   34.05
  -2  12   3  171.08   31.79
   2 -12  -2  477.92   52.64
  -2  12   2  441.04   51.71
   2 -12  -1   13.50   10.66
  -2  12   1   -1.54    8.14
   2 -12   0  769.31   65.94
  -2  12   0  644.15   62.78
   2 -12   1  423.44   48.55
   2 -12   1  433.29   47.84
  -2  12  -1  421.35   50.42
   2 -12   2   22.39   12.97
  -2  12  -2   14.32   12.86
   2 -12   2   13.45    7.57
   2 -12   3  150.13   29.54
   2 -12   3  153.19   26.76
   2 -12   3  150.04   27.27
  -2  12  -3  170.45   32.26
   2 -12   4  210.84   33.25
  -2  12  -4  275.85   40.05
  -2  12  -5   94.97   23.94
   2 -12   5   57.20   18.38
  -2  12  -6    5.58    9.50
   2 -12   6    3.87    8.12
   2 -12   6    5.44    9.01
   2 -12   7   58.95   17.30
  -2  12  -7   46.97   18.11
  -2  12  -7   47.71   17.94
   2 -12   8  307.80   41.39
   2 -11  -6   14.02   10.48
   2 -11  -5   22.02   11.95
  -2  11   5   15.92   10.91
  -2  11   5    3.50    7.93
   2 -11  -4   32.76   13.36
  -2  11   4   34.67   13.59
   2 -11  -3  299.38   39.55
  -2  11   3  355.40   44.14
   2 -11  -2  165.97   28.50
  -2  11   2  112.96   25.14
  -2  11   1   77.06   21.45
   2 -11  -1   70.90   19.13
   2 -11   0  519.44   50.74
  -2  11   0  581.52   55.75
   2 -11   1  268.28   36.43
  -2  11  -1  313.68   40.63
   2 -11   2   26.91   11.32
   2 -11   2   22.24   11.98
  -2  11  -2    9.41   10.73
   2 -11   2   10.13    8.16
  -2  11  -3  481.98   50.77
   2 -11   3  475.83   46.38
   2 -11   3  453.35   47.49
   2 -11   3  489.90   45.41
   2 -11   4  860.90   65.37
  -2  11  -4  868.32   68.81
  -2  11  -5  181.19   30.65
   2 -11   5  184.31   30.72
  -2  11  -6   28.19   13.97
   2 -11   6   55.91   17.34
   2 -11   7  460.32   51.88
  -2  11  -7  542.86   53.47
   2 -11   7  540.10   51.72
  -2  11  -8   98.80   23.94
  -2  11  -8  125.21   25.24
   2 -11   8   52.05   18.46
   2 -11   8  125.08   25.00
  -2  10   7  298.83   42.09
  -2  10   7  301.08   43.69
  -2  10   6   -5.55    7.62
   2 -10  -6    2.94    6.66
  -2  10   5  100.99   22.52
  -2  10   5   85.59   22.01
   2 -10  -5  100.39   22.00
  -2  10   4  251.99   34.86
   2 -10  -4  228.82   32.43
  -2  10   4  226.00   33.92
  -2  10   3  111.19   23.68
  -2  10   3  127.06   25.69
   2 -10  -3  146.28   25.96
  -2  10   2   53.58   17.00
   2 -10  -2   49.86   15.40
   2 -10  -1  248.11   32.70
  -2  10   1  214.90   32.48
  -2  10   0  383.30   42.53
   2 -10   0  381.37   40.45
   2 -10   1  482.96   41.38
   2 -10   1  396.47   42.07
   2 -10   2    6.22    7.07
   2 -10   2    2.58    5.92
  -2  10  -2   -2.37    6.52
   2 -10   2    0.32    7.04
  -2  10  -3  893.25   66.04
   2 -10   3  968.95   61.47
   2 -10   3  897.84   61.92
   2 -10   3  858.17   63.15
   2 -10   4 1030.60   69.05
   2 -10   4 1069.39   63.62
  -2  10  -4 1028.33   71.45
   2 -10   5   44.57   14.82
  -2  10  -5   70.91   18.89
   2 -10   6  398.24   44.58
  -2  10  -6  450.82   45.39
   2 -10   7  779.36   64.97
  -2  10  -7  808.24   61.67
   2 -10   7  744.22   57.96
  -2  10  -8  153.62   25.86
   2 -10   8  171.55   31.44
   2 -10   8  153.40   25.92
  -2  10  -8  166.21   27.98
  -2  10  -9   36.35   13.16
   2 -10   9   35.05   16.32
  -2  10 -10   87.92   20.69
  -2  10 -11   95.78   23.08
  -2  10 -11  184.39   32.16
  -2   9   8  513.15   54.29
  -2   9   8  393.70   49.18
  -2   9   7  246.65   36.75
   2  -9  -7  305.69   37.23
  -2   9   7  318.39   43.58
  -2   9   6  123.03   22.75
  -2   9   6  141.55   26.87
   2  -9  -6  133.54   24.38
  -2   9   5  929.41   64.31
   2  -9  -5  814.68   60.10
  -2   9   5  870.07   66.12
  -2   9   4  870.87   62.27
  -2   9   4  812.54   62.06
   2  -9  -4  806.89   58.34
   2  -9  -3   -4.75    8.27
  -2   9   3   -0.42    5.65
  -2   9   2  426.17   42.34
  -2   9   2  501.87   46.05
   2  -9  -2  463.92   42.13
  -2   9   1  890.14   62.25
   2  -9  -1  808.20   56.41
   2  -9   0  338.19   35.48
   2  -9   0  316.76   30.19
  -2   9   0  294.11   35.06
  -2   9  -1   31.27   12.73
   2  -9   1   37.32   11.11
   2  -9   1   38.76   11.39
  -2   9  -2  680.45   53.48
  -2   9  -2  751.00   44.94
   2  -9   2  676.77   48.77
   2  -9   2  711.13   52.43
  -2   9  -3  808.47   59.05
  -2   9  -3  857.37   50.25
   2  -9   3  783.58   55.50
   2  -9   3  911.65   55.43
   2  -9   3  831.15   58.65
   2  -9   4  172.15   26.13
  -2   9  -4  195.45   23.56
   2  -9   4  143.77   21.12
  -2   9  -4  166.16   26.22
   2  -9   5   -1.69    9.88
  -2   9  -5   -0.55    7.03
  -2   9  -5    7.55    6.24
  -2   9  -6  459.98   40.23
   2  -9   6  508.94   43.92
  -2   9  -6  430.24   41.83
   2  -9   6  477.33   46.65
  -2   9  -7  584.13   48.82
   2  -9   7  467.70   48.20
  -2   9  -7  602.96   48.15
   2  -9   7  502.74   44.51
  -2   9  -8  117.05   22.48
   2  -9   8  103.57   23.45
   2  -9   8  108.19   20.98
  -2   9  -8   93.06   20.39
   2  -9   9  183.64   32.45
  -2   9  -9  115.16   23.06
   2  -9  10  582.27   58.41
  -2   9 -10  605.19   55.94
  -2   9 -11  172.30   31.02
   2  -9  11  164.95   32.63
  -2   8  10   24.84   11.61
  -2   8  10   25.80   14.49
  -2   8   9  325.68   43.44
  -2   8   9  269.57   38.45
  -2   8   8   76.64   20.74
  -2   8   8  107.40   23.64
  -2   8   7   15.95   10.33
  -2   8   7   23.22   11.86
   2  -8  -7    3.69    6.12
   2  -8  -6  279.70   32.77
  -2   8   6  301.97   37.02
  -2   8   6  264.75   31.41
  -2   8   5  998.88   68.07
  -2   8   5 1156.94   68.68
   2  -8  -5 1186.50   67.57
   2  -8  -4  903.88   57.50
  -2   8   4  904.11   61.84
  -2   8   4  902.22   60.03
  -2   8   3  103.21   20.55
  -2   8   3   82.64   17.69
   2  -8  -3   92.33   17.46
  -2   8   2 1460.67   79.09
  -2   8   2 1613.49   80.92
   2  -8  -2 1518.33   75.61
   2  -8  -1 1784.64   70.51
  -2   8   1 1506.25   80.85
  -2   8   1 1781.04   83.57
   2  -8  -1 1434.66   74.31
   2  -8   0    5.08    6.62
   2  -8   0    4.88    6.29
  -2   8   0   13.53   10.08
   2  -8   1  683.95   44.69
  -2   8  -1  738.86   52.58
   2  -8   1  656.91   47.21
  -2   8  -2 1333.05   73.07
   2  -8   2 1376.94   68.82
   2  -8   2 1362.11   67.45
   2  -8   2 1213.03   68.08
  -2   8  -3  150.36   19.29
   2  -8   3  120.15   19.66
   2  -8   3  105.57   17.11
  -2   8  -3  154.53   24.53
   2  -8   3  109.59   19.14
  -2   8  -4   89.73   18.74
  -2   8  -4   81.08   14.75
   2  -8   4   88.68   15.23
   2  -8   4   59.49   15.12
  -2   8  -5  396.52   37.68
   2  -8   5  379.92   38.21
  -2   8  -5  393.62   34.55
   2  -8   5  455.54   33.20
   2  -8   6  225.78   30.86
  -2   8  -6  321.71   33.22
   2  -8   6  252.38   28.73
  -2   8  -6  260.07   29.47
   2  -8   7   85.60   20.65
  -2   8  -7   88.82   17.85
  -2   8  -7   66.48   15.30
   2  -8   7   69.90   15.42
  -2   8  -8   38.48   11.95
   2  -8   8   22.05   11.63
  -2   8  -8   21.78    9.79
   2  -8   8   31.42   11.42
   2  -8   9  261.96   36.63
  -2   8  -9  212.77   30.42
   2  -8  10  124.02   26.40
  -2   8 -10  121.28   24.42
  -2   8 -10  172.11   27.60
  -2   8 -11   -1.40    5.48
   2  -8  11   -1.45    7.59
   2  -8  12  117.71   26.34
  -2   8 -12  158.07   31.14
  -2   7  11   76.91   21.95
  -2   7  11   58.02   19.13
  -2   7  10  467.71   50.13
  -2   7  10  474.93   51.16
  -2   7   9   35.44   14.80
  -2   7   9   45.60   14.63
  -2   7   8   85.31   20.43
  -2   7   8  104.69   22.04
   2  -7  -8   82.22   17.89
  -2   7   7   69.51   17.51
   2  -7  -7   49.99   14.28
  -2   7   6  490.97   40.65
   2  -7  -6  506.49   41.07
  -2   7   6  549.94   47.32
   2  -7  -5  659.59   45.69
  -2   7   5  606.10   45.58
  -2   7   5  626.65   49.73
  -2   7   4   54.97   14.31
   2  -7  -4   71.77   14.76
  -2   7   4   54.25   14.03
  -2   7   3  506.77   41.17
  -2   7   3  440.28   38.03
   2  -7  -3  508.93   37.96
   2  -7  -2 1334.88   52.60
  -2   7   2 1305.32   66.79
   2  -7  -2 1203.07   61.45
   2  -7  -1 1057.41   56.72
   2  -7  -1 1207.30   52.40
  -2   7   1 1069.07   58.87
   2  -7   0   11.23    6.81
   2  -7   0    3.85    5.96
  -2   7   0   12.84    9.17
   2  -7   1  557.79   40.01
   2  -7   1  590.47   38.81
  -2   7  -1  554.39   42.25
   2  -7   2 1441.48   66.44
   2  -7   2 1387.40   63.70
  -2   7  -2 1255.27   67.17
   2  -7   2 1247.84   64.74
   2  -7   3   53.35   12.78
   2  -7   3   66.20   14.19
  -2   7  -3   62.74   14.87
  -2   7  -3   52.87   11.31
   2  -7   3   56.86   11.85
  -2   7  -4  615.07   44.17
  -2   7  -4  606.94   40.47
   2  -7   4  538.58   42.62
   2  -7   4  683.15   39.53
   2  -7   4  633.82   33.30
  -2   7  -5 1097.71   59.30
  -2   7  -5 1133.56   61.86
   2  -7   5 1199.29   52.33
   2  -7   5  977.84   61.57
   2  -7   5 1189.82   53.30
  -2   7  -6   58.03   13.97
  -2   7  -6   40.57   11.99
   2  -7   6   29.31   12.25
   2  -7   6   44.81   10.32
   2  -7   6   57.02   12.84
  -2   7  -7   60.64   14.86
   2  -7   7   79.35   18.83
  -2   7  -7   90.70   16.60
   2  -7   7   97.64   16.57
   2  -7   7   44.63   12.11
  -2   7  -8  271.51   32.53
   2  -7   8  331.02   31.79
   2  -7   8  341.46   38.11
   2  -7   8  337.90   32.93
  -2   7  -9   16.08    8.93
   2  -7   9    4.62    6.29
   2  -7   9    2.40    7.03
   2  -7  10   12.44    7.17
  -2   7 -10   10.07   10.44
   2  -7  10   23.82   12.84
  -2   7 -10    7.62    8.42
  -2   7 -11  132.19   26.24
   2  -7  11   99.15   23.46
   2  -7  12   42.82   16.79
  -2   7 -12   54.15   17.98
  -2   6  12   27.01   13.38
  -2   6  12   20.84   13.00
  -2   6  11   48.57   16.27
  -2   6  11   52.74   17.75
  -2   6  11   52.98   17.74
  -2   6  10  704.18   60.11
  -2   6  10  777.27   60.93
  -2   6  10  684.82   57.75
  -2   6   9  211.84   31.20
   2  -6  -9  289.37   33.44
  -2   6   9  232.87   32.40
   2  -6  -8    0.62    5.47
  -2   6   8   -0.38    7.97
   2  -6  -8    5.89    5.44
  -2   6   8   -1.20    6.33
   2  -6  -7 1229.20   67.72
  -2   6   7 1073.95   58.43
   2  -6  -7 1186.09   62.90
  -2   6   7 1140.32   69.81
   2  -6  -6 1408.57   71.20
   2  -6  -6 1315.35   64.85
  -2   6   6 1126.52   60.90
  -2   6   6 1271.41   71.11
  -2   6   5   93.16   18.12
  -2   6   5  101.47   17.11
   2  -6  -5   97.90   16.31
  -2   6   4  246.77   26.00
   2  -6  -4  278.00   26.02
  -2   6   4  282.79   29.49
   2  -6  -3  364.46   29.12
  -2   6   3  397.86   33.24
  -2   6   3  356.99   31.28
   2  -6  -3  391.41   21.73
   2  -6  -2  827.59   45.81
   2  -6  -2  950.80   40.25
  -2   6   2  880.14   50.24
  -2   6   2  869.59   50.44
   2  -6  -1  128.74   14.61
  -2   6   1  108.09   17.33
  -2   6   1   87.61   14.63
   2  -6  -1  114.08   16.06
   2  -6   0    3.43    5.56
  -2   6   0    8.80    6.57
   2  -6   0    4.02    4.28
  -2   6   0   11.26    7.71
   2  -6   1 1484.59   61.99
   2  -6   1 1363.56   62.06
  -2   6  -1 1311.67   64.17
   2  -6   2 1793.85   68.98
   2  -6   2 1629.19   70.99
   2  -6   2 1710.79   71.10
  -2   6  -2 1518.34   70.74
   2  -6   3    8.28    5.75
  -2   6  -3   15.88    7.25
   2  -6   3   19.39    8.04
  -2   6  -3   10.98    5.86
   2  -6   3   21.95    5.68
  -2   6  -4  298.08   26.84
   2  -6   4  359.23   25.89
   2  -6   4  300.26   29.49
  -2   6  -4  288.17   27.40
   2  -6   4  322.14   23.43
  -2   6  -5  575.34   38.99
   2  -6   5  485.52   39.78
   2  -6   5  492.49   34.85
  -2   6  -5  632.74   41.52
   2  -6   5  620.83   33.50
   2  -6   5  544.34   34.00
   2  -6   6   13.06    6.36
  -2   6  -6   12.70    7.29
   2  -6   6   21.62   10.33
   2  -6   6   19.21    7.95
  -2   6  -6   21.04    7.88
   2  -6   7  247.33   25.33
  -2   6  -7  225.01   23.44
  -2   6  -7  183.78   24.97
   2  -6   7  231.22   25.35
   2  -6   7  220.32   28.30
   2  -6   8  839.81   58.55
   2  -6   8  825.41   50.48
   2  -6   8  832.12   53.29
  -2   6  -8  825.05   57.20
   2  -6   9   17.57   10.54
  -2   6  -9   32.62   13.18
  -2   6  -9   14.88    9.03
   2  -6   9   32.96   12.22
   2  -6  10  141.36   24.15
   2  -6  10   85.63   20.56
  -2   6 -10  113.67   23.97
   2  -6  11  134.59   25.22
   2  -6  11  160.70   27.96
   2  -6  12   -2.52    6.28
   2  -6  12   13.29    9.80
  -2   6 -12   -7.44    7.82
   2  -6  13    6.95    6.11
   2  -6  13   -7.61    9.87
  -2   5  13  155.84   29.96
   2  -5 -13  162.64   30.74
  -2   5  12   16.05   12.53
  -2   5  12    5.49    7.58
   2  -5 -12   22.76   11.72
  -2   5  11  565.61   54.23
   2  -5 -11  537.68   51.38
  -2   5  11  551.20   52.61
  -2   5  10  683.55   53.67
   2  -5 -10  618.99   52.64
  -2   5  10  696.83   57.09
  -2   5  10  628.53   54.68
   2  -5  -9  574.90   43.05
   2  -5  -9  662.94   48.79
  -2   5   9  622.27   51.98
  -2   5   9  603.59   49.16
   2  -5  -9  647.15   51.11
   2  -5  -8  256.95   29.81
   2  -5  -8  281.82   30.13
  -2   5   8  202.03   27.87
   2  -5  -8  244.44   26.52
  -2   5   8  223.92   29.38
  -2   5   7 2158.94   97.58
   2  -5  -7 2221.06   87.51
  -2   5   7 2242.60   85.16
   2  -5  -7 2381.99   96.15
  -2   5   6  573.97   43.53
   2  -5  -6  537.78   36.37
   2  -5  -6  544.22   40.49
  -2   5   6  647.11   39.58
  -2   5   5    4.63    5.41
  -2   5   5    5.93    6.39
   2  -5  -5   17.87    8.19
   2  -5  -5    1.96    4.78
   2  -5  -4 1614.60   69.31
  -2   5   4 1641.06   67.54
  -2   5   4 1514.80   69.38
   2  -5  -4 1484.36   43.82
   2  -5  -4 1652.55   64.40
   2  -5  -3 1775.13   71.33
  -2   5   3 1533.35   66.25
   2  -5  -3 1632.26   50.82
  -2   5   3 1614.17   69.32
   2  -5  -3 1554.03   62.57
   2  -5  -2  994.89   39.36
   2  -5  -2 1011.85   46.53
  -2   5   2  977.98   49.33
  -2   5   2  979.80   49.40
  -2   5   1  372.27   27.45
  -2   5   1  336.89   27.07
   2  -5  -1  349.50   25.44
   2  -5  -1  323.90   21.94
   2  -5   0  679.96   35.74
  -2   5   0  742.14   41.43
  -2   5   0  790.78   40.42
   2  -5   0  712.50   38.30
   2  -5   1  837.56   42.56
   2  -5   1  878.26   44.05
  -2   5  -1  867.17   45.45
   2  -5   1  910.34   43.48
   2  -5   2   32.42    8.61
  -2   5  -2   35.14    9.14
   2  -5   2   38.54    8.24
   2  -5   2   27.37    8.97
   2  -5   2   36.22    6.62
   2  -5   3   97.27   12.41
  -2   5  -3   99.63   13.89
   2  -5   3   86.85   14.31
   2  -5   3   88.01   11.19
  -2   5  -3   92.76   14.37
  -2   5  -4  304.75   26.09
   2  -5   4  327.22   22.82
   2  -5   4  339.69   29.54
   2  -5   4  383.19   25.85
  -2   5  -4  342.84   27.83
   2  -5   5  161.13   15.08
  -2   5  -5  127.39   17.95
   2  -5   5  157.23   20.87
   2  -5   5  139.47   17.08
   2  -5   5  143.17   16.76
  -2   5  -5  146.68   17.53
  -2   5  -6  156.31   17.75
  -2   5  -6  144.30   20.30
   2  -5   6  150.18   19.22
   2  -5   6  199.01   24.44
   2  -5   6  150.94   14.46
   2  -5   6  181.44   19.46
  -2   5  -7  492.05   40.56
   2  -5   7  529.60   39.12
   2  -5   7  536.66   42.17
   2  -5   7  483.97   34.36
  -2   5  -7  506.36   32.89
   2  -5   8  257.65   30.03
   2  -5   8  206.51   26.58
   2  -5   8  253.53   25.34
  -2   5  -8  218.47   27.96
   2  -5   9  -10.17    7.81
  -2   5  -9   -4.84    6.69
   2  -5   9    6.59    6.91
  -2   5  -9    3.59    4.46
  -2   5 -10  397.37   42.98
   2  -5  10  435.48   42.45
   2  -5  10  396.28   41.03
  -2   5 -11  346.50   42.66
   2  -5  11  444.87   46.15
   2  -5  12   44.66   15.63
  -2   5 -12   15.57   10.91
   2  -5  12   44.42   14.89
  -2   5 -13   85.29   23.42
   2  -5  13  160.09   31.15
   2  -4 -13    8.19    9.58
  -2   4  13    7.62    7.39
  -2   4  13    8.65    9.85
  -2   4  12  174.79   29.44
   2  -4 -12  171.77   29.63
  -2   4  12  152.35   29.36
  -2   4  11  692.27   57.44
   2  -4 -11  612.26   54.63
  -2   4  11  762.38   62.08
   2  -4 -10  389.20   40.68
  -2   4  10  344.20   38.58
   2  -4 -10  391.04   36.92
  -2   4  10  306.39   33.76
   2  -4  -9   16.45    7.31
  -2   4   9   25.24   10.79
   2  -4  -9   15.06    7.50
  -2   4   9   23.14    9.49
   2  -4  -9   28.60   10.51
  -2   4   8  612.50   43.64
   2  -4  -8  534.98   40.85
   2  -4  -8  545.72   43.45
  -2   4   8  574.47   45.32
   2  -4  -8  533.04   37.35
   2  -4  -7 1185.42   56.09
   2  -4  -7 1240.11   62.95
  -2   4   7 1145.54   64.25
  -2   4   7 1393.59   56.54
   2  -4  -7 1161.47   62.40
  -2   4   6  731.56   46.48
  -2   4   6  720.11   46.64
   2  -4  -6  746.22   45.35
   2  -4  -6  727.77   39.66
   2  -4  -6  756.85   45.31
  -2   4   6  744.94   39.64
  -2   4   5   10.52    6.21
  -2   4   5   16.34    7.15
   2  -4  -5   29.89    9.73
   2  -4  -5   24.15    7.09
  -2   4   5   30.88    8.32
  -2   4   4 1873.27   71.19
   2  -4  -4 1982.50   75.31
  -2   4   4 1836.63   69.39
   2  -4  -4 1911.78   66.62
  -2   4   4 1900.38   75.19
   2  -4  -3 3331.09   85.07
  -2   4   3 3418.76   99.30
   2  -4  -3 3346.52  106.04
  -2   4   3 3118.90  104.24
  -2   4   3 3106.73  100.95
   2  -4  -3 3207.40   96.43
   2  -4  -2  138.50   11.58
   2  -4  -2  148.75   16.54
  -2   4   2  138.25   15.71
  -2   4   2  114.74   14.48
   2  -4  -2  131.39   13.68
  -2   4   1 1655.39   61.23
   2  -4  -1 1568.50   54.58
  -2   4   1 1680.62   62.79
   2  -4  -1 1709.51   58.94
   2  -4   0 2461.69   78.00
  -2   4   0 2605.68   84.10
   2  -4   0 2543.55   81.63
   2  -4   0 2451.42   79.31
  -2   4   0 2534.02   79.93
   2  -4   1  507.08   28.27
   2  -4   1  474.08   28.59
   2  -4   1  484.28   28.73
  -2   4  -1  463.30   28.97
   2  -4   2 1877.40   62.04
   2  -4   2 1770.38   66.59
  -2   4  -2 1811.08   65.50
   2  -4   2 1662.55   57.72
   2  -4   3  286.65   20.58
   2  -4   3  235.44   22.41
  -2   4  -3  272.34   22.32
   2  -4   3  310.02   20.39
  -2   4  -3  289.54   22.52
   2  -4   4   89.56   11.32
   2  -4   4   85.60   13.85
  -2   4  -4   63.85   10.46
   2  -4   4   88.55   12.58
  -2   4  -4   76.42   12.77
   2  -4   4   86.53   10.31
   2  -4   5   50.17    7.80
   2  -4   5   58.65    9.78
  -2   4  -5   35.57    7.94
   2  -4   5   30.18    8.79
  -2   4  -5   74.89   13.38
   2  -4   5   66.44   13.02
   2  -4   6  157.99   14.33
   2  -4   6  174.58   20.73
  -2   4  -6  151.03   20.29
   2  -4   6  201.17   23.51
   2  -4   6  178.98   18.08
  -2   4  -6  206.41   18.23
   2  -4   7  436.25   35.79
  -2   4  -7  399.74   35.38
   2  -4   7  395.39   34.31
   2  -4   7  447.34   31.06
  -2   4  -8   14.44    7.77
  -2   4  -8   29.66    8.69
   2  -4   8   35.92    9.43
   2  -4   8   44.39   12.63
   2  -4   8   25.93   11.13
   2  -4   9  213.35   26.74
   2  -4   9  218.86   28.95
  -2   4  -9  204.12   28.92
  -2   4 -10  254.68   34.24
   2  -4  10  243.58   32.02
   2  -4  10  293.52   33.04
  -2   4 -11  169.09   29.61
   2  -4  11  174.68   26.45
   2  -4  11  195.93   30.38
  -2   4 -12    0.14    5.38
   2  -4  12   -7.04    8.24
  -2   4 -13  643.93   63.26
   2  -4  13  753.64   67.86
  -2   3  14  197.75   33.24
  -2   3  13  121.76   25.32
  -2   3  13  126.23   28.74
   2  -3 -13  133.39   27.80
  -2   3  12  531.53   50.78
  -2   3  12  683.26   60.69
   2  -3 -12  583.03   54.74
  -2   3  11  334.97   38.34
   2  -3 -11  404.21   42.55
   2  -3 -10   91.64   17.63
   2  -3 -10   60.97   15.90
  -2   3  10   46.21   13.55
  -2   3  10   71.16   15.37
  -2   3   9  202.22   28.03
   2  -3  -9  213.20   22.68
   2  -3  -9  268.38   28.89
   2  -3  -9  214.52   27.85
  -2   3   9  202.96   27.18
  -2   3   9  241.51   26.52
  -2   3   8 1790.66   83.80
   2  -3  -8 1621.56   66.96
  -2   3   8 1505.27   76.37
  -2   3   8 1655.76   72.31
   2  -3  -8 1631.43   74.68
   2  -3  -8 1528.50   76.26
  -2   3   7  330.54   31.27
  -2   3   7  395.42   34.41
  -2   3   7  414.25   25.93
   2  -3  -7  359.59   26.54
   2  -3  -7  442.54   34.10
   2  -3  -7  394.02   33.28
  -2   3   6  337.72   29.41
  -2   3   6  317.23   28.56
  -2   3   6  340.60   23.23
   2  -3  -6  319.19   23.12
   2  -3  -6  353.24   28.88
   2  -3  -6  320.29   27.88
   2  -3  -5  323.19   26.04
  -2   3   5  332.14   26.68
   2  -3  -5  341.65   26.74
   2  -3  -5  322.64   21.40
  -2   3   5  337.17   22.99
  -2   3   5  294.87   25.74
   2  -3  -4 1012.59   47.20
   2  -3  -4 1007.74   45.43
  -2   3   4  949.56   46.49
  -2   3   4  930.51   41.39
   2  -3  -4  955.69   38.49
  -2   3   4 1019.64   45.99
   2  -3  -3 1669.43   62.32
  -2   3   3 1730.90   58.94
  -2   3   3 1670.76   59.13
   2  -3  -3 1687.52   47.06
  -2   3   3 1597.61   61.26
   2  -3  -3 1566.36   52.82
  -2   3   2  193.46   16.70
  -2   3   2  172.96   15.83
   2  -3  -2  167.68   13.17
  -2   3   2  205.01   14.65
   2  -3  -2  178.64   12.29
   2  -3  -2  199.00   17.58
   2  -3  -1 1307.62   43.70
  -2   3   1 1313.53   38.84
  -2   3   1 1201.84   47.50
   2  -3  -1 1269.49   48.04
  -2   3   1 1214.87   46.12
   2  -3  -1 1290.33   49.03
   2  -3  -1 1221.53   43.94
   2  -3   0 1968.02   64.34
  -2   3   0 2073.52   67.55
   2  -3   0 2080.71   66.40
  -2   3   0 2182.35   64.50
   2  -3   0 2086.22   64.72
   2  -3   1    7.13    5.57
   2  -3   1    4.60    3.77
   2  -3   1    4.89    4.42
  -2   3  -1    2.15    3.32
   2  -3   2 1811.14   64.02
   2  -3   2 1757.11   58.35
   2  -3   2 1810.12   59.82
  -2   3  -2 1903.35   61.61
   2  -3   3 1152.63   46.86
   2  -3   3 1083.46   48.67
  -2   3  -3 1207.78   45.39
   2  -3   3 1196.80   43.15
  -2   3  -3 1182.37   49.56
  -2   3  -4   56.85   11.07
   2  -3   4   48.08    7.48
  -2   3  -4   70.75    9.35
   2  -3   4   55.97   10.20
   2  -3   4   60.58   11.60
   2  -3   4   45.52    7.56
  -2   3  -5  721.49   41.58
   2  -3   5  695.91   30.43
   2  -3   5  667.71   39.89
   2  -3   5  669.65   39.27
   2  -3   5  656.54   32.61
  -2   3  -5  666.07   31.37
  -2   3  -6 1396.00   67.18
  -2   3  -6 1596.14   52.66
   2  -3   6 1552.04   67.24
   2  -3   6 1456.01   57.80
   2  -3   6 1529.60   68.31
   2  -3   7    1.09    5.41
   2  -3   7   12.26    7.81
   2  -3   7    7.62    4.90
  -2   3  -7    3.57    5.07
  -2   3  -7    0.98    3.63
  -2   3  -8  714.01   51.01
   2  -3   8  784.01   48.98
   2  -3   8  674.46   49.13
   2  -3   8  727.66   41.38
  -2   3  -8  773.45   42.11
  -2   3  -9  406.66   39.95
   2  -3   9  401.04   35.87
   2  -3   9  404.09   40.09
   2  -3  10  207.98   30.06
   2  -3  10  238.44   28.24
  -2   3 -10  221.50   31.17
  -2   3 -11   94.92   21.63
   2  -3  11  101.90   22.71
  -2   3 -12  337.26   42.74
   2  -3  12  311.97   41.56
   2  -3  13  407.10   49.81
  -2   3 -13  442.64   51.61
   2  -2 -14   15.82   10.80
  -2   2  14   -0.84    9.28
  -2   2  13  241.28   34.38
   2  -2 -13  265.79   37.85
  -2   2  13  268.08   39.78
   2  -2 -12 1027.62   73.12
  -2   2  12 1215.59   80.95
  -2   2  12 1036.38   71.25
  -2   2  11  682.43   54.61
   2  -2 -11  820.07   54.77
  -2   2  11  821.60   62.88
   2  -2 -11  734.46   58.12
  -2   2  10   57.55   14.55
  -2   2  10   60.12   16.98
   2  -2 -10   43.19   12.04
   2  -2 -10   53.63   15.15
  -2   2   9 1614.43   83.05
   2  -2  -9 1750.97   77.89
  -2   2   9 1629.11   80.43
   2  -2  -9 1581.34   67.33
   2  -2  -9 1621.07   81.06
  -2   2   9 1656.88   70.56
  -2   2   8 1009.83   59.86
  -2   2   8 1034.17   51.70
  -2   2   8 1093.77   42.71
   2  -2  -8 1123.11   57.65
   2  -2  -8 1072.55   60.43
   2  -2  -8 1097.39   49.97
  -2   2   8 1042.25   59.17
  -2   2   7   55.85   10.50
  -2   2   7   45.58   11.41
  -2   2   7   53.42    8.25
   2  -2  -7   51.05   11.56
   2  -2  -7   61.11   13.24
   2  -2  -7   39.14    8.22
  -2   2   7   37.73   11.17
   2  -2  -6  494.41   27.07
   2  -2  -6  507.79   33.75
  -2   2   6  482.86   26.24
  -2   2   6  495.31   35.30
  -2   2   6  468.34   33.68
   2  -2  -6  534.78   35.35
  -2   2   5 1778.19   68.71
  -2   2   5 1698.81   68.44
   2  -2  -5 1762.29   68.06
  -2   2   5 1772.76   59.49
   2  -2  -5 1857.69   57.27
   2  -2  -5 1857.06   68.85
  -2   2   4  879.53   41.02
  -2   2   4  927.06   42.65
   2  -2  -4  856.23   41.09
   2  -2  -4  870.35   32.18
   2  -2  -4  871.67   40.85
  -2   2   4  886.91   36.85
   2  -2  -3   41.54    8.23
  -2   2   3   44.24    7.71
  -2   2   3   25.71    5.82
  -2   2   3   24.97    6.79
   2  -2  -3   24.21    4.31
   2  -2  -2    7.83    4.06
   2  -2  -2    3.76    3.79
  -2   2   2    7.72    3.88
   2  -2  -2    1.46    1.78
   2  -2  -2    8.48    3.27
  -2   2   2    2.92    3.78
  -2   2   2    6.18    4.04
   2  -2  -1   44.55    6.23
   2  -2  -1   40.57    5.61
  -2   2   1   40.11    6.22
   2  -2  -1   38.99    6.76
  -2   2   1   45.21    7.28
   2  -2  -1   33.42    6.32
  -2   2   1   44.84    5.10
   2  -2   0  555.57   25.12
  -2   2   0  516.56   25.16
  -2   2   0  584.49   17.72
   2  -2   0  507.55   25.06
   2  -2   0  535.36   25.00
  -2   2   0  554.72   22.63
   2  -2   1 2091.61   61.63
   2  -2   1 2002.06   63.89
   2  -2   1 2015.64   61.55
  -2   2  -1 2032.80   61.32
   2  -2   2  293.38   17.87
   2  -2   2  317.76   20.84
   2  -2   2  326.56   20.43
  -2   2  -2  309.97   20.40
  -2   2  -2  315.04   17.82
   2  -2   3  841.24   33.20
  -2   2  -3  758.78   37.65
   2  -2   3  836.08   38.80
   2  -2   3  744.99   36.69
  -2   2  -3  855.29   31.89
   2  -2   3  819.44   29.47
   2  -2   4    3.13    4.11
   2  -2   4    4.94    2.48
  -2   2  -4    2.01    3.67
  -2   2  -4    4.04    2.01
   2  -2   4    5.85    4.73
   2  -2   4    2.11    2.47
  -2   2  -5 1416.02   60.69
   2  -2   5 1325.73   56.75
   2  -2   5 1300.99   58.71
  -2   2  -5 1270.80   41.95
   2  -2   5 1344.65   47.92
   2  -2   5 1271.75   55.03
   2  -2   6 1361.20   65.72
   2  -2   6 1369.27   60.17
  -2   2  -6 1559.30   54.83
  -2   2  -6 1381.51   65.43
   2  -2   6 1396.46   61.46
   2  -2   6 1414.88   53.93
  -2   2  -6 1502.30   43.33
  -2   2  -7  318.20   22.80
   2  -2   7  332.66   28.27
   2  -2   7  300.12   26.39
   2  -2   7  278.48   22.54
   2  -2   7  291.07   29.86
  -2   2  -7  264.03   28.19
  -2   2  -8 1195.31   67.38
   2  -2   8 1187.96   60.05
   2  -2   8 1158.59   58.75
   2  -2   8 1256.40   55.07
   2  -2   8 1234.87   68.94
  -2   2  -9  618.40   49.46
   2  -2   9  631.29   43.21
   2  -2   9  600.77   49.49
   2  -2   9  624.52   42.74
   2  -2  10   13.03   10.34
   2  -2  10   22.95    9.46
  -2   2 -10   19.03   10.48
   2  -2  11  302.61   38.89
  -2   2 -11  246.24   34.49
  -2   2 -12  800.94   67.04
   2  -2  12  844.56   69.25
  -2   2 -13  104.55   24.84
   2  -2  13   68.51   21.52
  -2   1  14   36.26   15.37
   2  -1 -14   22.92   13.23
  -2   1  14   31.60   15.73
   2  -1 -13  323.96   41.23
  -2   1  13  287.74   40.29
  -2   1  13  329.12   42.79
  -2   1  13  322.66   39.15
  -2   1  12  609.89   56.60
   2  -1 -12  731.27   59.76
  -2   1  12  660.44   54.26
  -2   1  12  744.60   61.68
  -2   1  11   78.18   18.06
  -2   1  11   65.50   17.09
   2  -1 -11  118.29   20.39
   2  -1 -11   59.48   16.39
   2  -1 -10  390.41   30.02
   2  -1 -10  319.74   35.18
  -2   1  10  355.42   37.55
   2  -1 -10  333.27   32.50
  -2   1  10  344.77   35.18
   2  -1  -9 1994.05   90.76
  -2   1   9 1860.19   86.50
   2  -1  -9 1967.31   75.34
  -2   1   9 1957.26   91.26
  -2   1   9 2169.93   75.85
   2  -1  -9 2084.26   86.34
  -2   1   8  635.37   44.04
   2  -1  -8  634.52   41.98
  -2   1   8  691.58   47.07
   2  -1  -8  645.65   32.29
  -2   1   8  729.50   31.27
   2  -1  -8  625.19   35.09
   2  -1  -8  692.34   46.26
  -2   1   8  693.50   36.52
  -2   1   7   93.55   16.30
   2  -1  -7   93.88   14.60
   2  -1  -7  103.84   11.38
   2  -1  -7   98.29   11.90
   2  -1  -7   89.69   15.15
  -2   1   7  108.13   11.08
  -2   1   7   85.90   14.88
  -2   1   7   92.00   12.50
   2  -1  -6 1787.90   57.46
  -2   1   6 1844.41   72.20
   2  -1  -6 1779.04   69.32
  -2   1   6 1737.65   70.49
  -2   1   6 1774.25   57.31
   2  -1  -6 1691.16   57.20
   2  -1  -6 1721.63   70.15
   2  -1  -5 1462.12   49.31
  -2   1   5 1425.77   58.62
   2  -1  -5 1476.87   59.02
   2  -1  -5 1463.33   45.70
  -2   1   5 1452.61   49.66
  -2   1   5 1435.19   58.64
   2  -1  -5 1431.50   57.85
  -2   1   4   11.92    5.71
   2  -1  -4   11.71    5.81
  -2   1   4    9.06    4.45
   2  -1  -4   10.50    4.90
   2  -1  -4   12.41    4.29
  -2   1   4   17.38    5.92
   2  -1  -4   10.15    2.64
  -2   1   3 3537.26   99.71
  -2   1   3 3495.41   97.81
   2  -1  -3 3598.41   98.81
   2  -1  -3 3552.17   94.78
   2  -1  -3 3576.47   83.33
   2  -1  -3 3534.33   94.20
   2  -1  -3 3621.61  100.54
  -2   1   3 3567.55   95.86
  -2   1   2 1461.32   45.82
  -2   1   2 1496.03   47.76
   2  -1  -2 1459.37   48.77
   2  -1  -2 1412.57   46.09
   2  -1  -2 1447.18   47.29
   2  -1  -2 1494.50   37.13
  -2   1   1  110.72    8.20
   2  -1  -1   90.12    9.00
  -2   1   1  121.84   10.49
  -2   1   1  126.85    9.11
   2  -1  -1  112.81    9.55
   2  -1  -1  120.71   10.73
   2  -1  -1   94.14    9.02
   2  -1   0  331.63   17.89
   2  -1   0  295.31   17.11
   2  -1   0  301.39   16.80
  -2   1   0  318.09   12.63
   2  -1   0  302.29   15.16
  -2   1   0  317.11   16.81
   2  -1   0  323.13   17.33
   2  -1   1   46.98    7.45
   2  -1   1   60.41    7.71
   2  -1   1   65.03    8.55
   2  -1   1   62.04    8.57
   2  -1   1   72.25    8.29
  -2   1  -1   63.43    6.99
   2  -1   2   21.87    2.82
   2  -1   2   28.76    6.50
   2  -1   2    8.13    5.37
  -2   1  -2   17.27    5.49
   2  -1   2   22.07    5.04
  -2   1  -2   17.01    3.64
   2  -1   2   20.36    4.74
   2  -1   2   25.77    6.41
   2  -1   3  185.22   16.82
  -2   1  -3  194.10   16.93
  -2   1  -3  210.39   11.86
   2  -1   3  202.52   16.61
   2  -1   3  183.51   17.04
   2  -1   3  195.33   11.01
  -2   1  -4 1374.25   42.32
   2  -1   4 1303.57   43.14
  -2   1  -4 1270.74   54.33
   2  -1   4 1399.02   53.12
   2  -1   4 1323.18   54.24
  -2   1  -4 1381.15   38.98
   2  -1   4 1285.89   55.57
  -2   1  -5 1289.49   36.03
  -2   1  -5 1511.14   46.53
   2  -1   5 1389.04   47.75
   2  -1   5 1247.68   55.81
   2  -1   5 1445.31   62.64
   2  -1   5 1348.63   55.18
  -2   1  -5 1453.93   61.38
   2  -1   6   44.96   10.22
  -2   1  -6   40.72   10.14
   2  -1   6   52.82   11.97
  -2   1  -6   58.17    8.10
   2  -1   6   73.59    9.85
   2  -1   6   65.19   11.29
   2  -1   7  424.87   30.38
   2  -1   7  426.82   27.29
  -2   1  -7  402.17   34.55
   2  -1   7  374.73   34.43
   2  -1   7  386.94   31.32
   2  -1   8  441.22   30.06
   2  -1   8  399.51   38.25
   2  -1   8  452.24   32.82
  -2   1  -8  391.85   36.69
   2  -1   8  463.67   36.00
  -2   1  -9  764.98   55.94
   2  -1   9  931.71   50.19
   2  -1   9  744.63   49.16
   2  -1   9  818.63   59.10
  -2   1 -10    7.89    6.62
   2  -1  10    9.44    8.92
   2  -1  10   10.00    6.52
  -2   1 -11  525.16   50.62
   2  -1  11  494.24   50.33
   2  -1  12  902.27   72.19
  -2   1 -12  732.62   63.86
  -2   1 -13   53.75   19.06
  -2   1 -13   69.75   19.66
   2  -1  13   35.25   15.97
  -2   0  15   -2.51    8.33
   2   0 -14  169.42   31.49
  -2   0  14  128.53   28.80
  -2   0  14  128.86   28.54
  -2   0  14  169.03   29.31
  -2   0  13  522.38   52.67
  -2   0  13  450.11   45.74
  -2   0  13  487.55   51.82
   2   0 -13  449.80   48.52
  -2   0  12  180.45   27.82
   2   0 -12  205.18   27.19
  -2   0  12  207.06   31.36
   2   0 -12  184.65   29.47
  -2   0  12  230.37   34.39
   2   0 -11    0.07    7.90
  -2   0  11   -2.51    5.47
  -2   0  11    4.11    5.42
   2   0 -11   11.37    7.79
   2   0 -10  292.57   30.10
   2   0 -10  276.31   31.94
  -2   0  10  270.72   30.65
   2   0 -10  300.12   26.04
  -2   0  10  218.41   29.22
   2   0  -9  265.33   29.61
  -2   0   9  328.57   33.11
   2   0  -9  276.17   28.29
  -2   0   9  269.07   29.00
   2   0  -8   80.98    8.63
  -2   0   8   53.29   12.62
   2   0  -8   91.06   15.88
  -2   0   8   93.75   16.30
   2   0  -8   87.14   15.89
  -2   0   8   83.47    9.75
  -2   0   8   82.16   10.09
  -2   0   7  145.46   19.10
   2   0  -7  121.51   10.41
  -2   0   7  105.98   16.60
   2   0  -7  145.36   19.17
   2   0  -7  138.15   17.83
  -2   0   7  129.34   11.67
  -2   0   6 1668.68   51.50
   2   0  -6 1731.30   67.95
   2   0  -6 1535.28   65.79
   2   0  -6 1741.52   51.57
   2   0  -6 1699.92   51.20
  -2   0   6 1684.31   67.93
  -2   0   6 1709.87   68.31
   2   0  -5  205.09   12.87
   2   0  -5  201.37   18.87
  -2   0   5  202.11   19.20
  -2   0   5  198.54   18.82
   2   0  -5  189.30   17.97
   2   0  -5  208.08   13.68
  -2   0   4  199.02   16.79
   2   0  -4  204.71   12.60
   2   0  -4  177.53   15.64
   2   0  -4  211.78   13.95
   2   0  -4  189.62   17.20
  -2   0   4  211.37   18.11
   2   0  -3 2000.61   62.13
   2   0  -3 2014.46   65.56
   2   0  -3 2082.56   57.99
   2   0  -3 2166.82   61.53
  -2   0   3 1999.80   64.73
  -2   0   3 2111.42   63.78
   2   0  -2  635.29   24.40
   2   0  -2  570.73   25.85
  -2   0   2  577.23   24.91
   2   0  -2  585.03   25.55
  -2   0   2  546.26   24.22
  -2   0   1  132.29    9.25
   2   0  -1  136.23   11.37
   2   0  -1  127.89   10.35
   2   0  -1  132.51   10.02
  -2   0   1  138.35   10.09
   2   0  -1  150.68   10.26
   2   0   0 4393.88  104.06
   2   0   0 4438.38  111.50
   2   0   0 4034.23  111.35
   2   0   0 4358.59  111.85
   2   0   0 4593.47  111.37
  -2   0   0 4412.62  100.95
   2   0   0 4506.65  112.41
  -2   0  -1 1738.04   52.03
   2   0   1 1772.41   56.96
   2   0   1 1674.05   53.74
   2   0   1 1781.12   55.22
   2   0   1 1749.68   53.31
   2   0   2  445.26   21.26
   2   0   2  467.33   23.20
  -2   0  -2  397.97   22.04
   2   0   2  430.10   14.49
   2   0   2  427.50   24.17
   2   0   2  476.86   26.55
   2   0   3 2809.60   81.50
  -2   0  -3 2668.84   83.54
   2   0   3 2746.06   75.39
   2   0   3 2740.77   70.62
   2   0   3 2834.58   88.00
   2   0   3 2806.65   87.59
   2   0   4 1129.66   37.54
  -2   0  -4 1061.82   48.29
   2   0   4 1129.76   39.10
   2   0   4 1175.04   51.48
  -2   0  -4 1127.45   31.07
   2   0   4 1119.61   44.70
   2   0   4 1226.50   53.01
  -2   0  -4 1151.78   32.88
  -2   0  -5    4.45    2.23
   2   0   5    2.85    4.59
  -2   0  -5   10.19    5.99
   2   0   5    7.52    6.20
   2   0   5    7.15    2.67
   2   0   5    3.92    5.33
   2   0   5    3.82    2.68
  -2   0  -6  695.27   43.94
   2   0   6  757.97   38.15
  -2   0  -6  759.82   29.28
   2   0   6  771.20   47.38
   2   0   6  721.77   43.38
   2   0   6  757.34   35.49
   2   0   7  855.25   54.02
  -2   0  -7  846.75   51.86
   2   0   7  817.10   41.73
   2   0   7  762.78   47.12
   2   0   7  817.48   40.50
  -2   0  -8  650.43   47.71
   2   0   8  637.74   44.49
   2   0   8  598.73   47.95
   2   0   8  637.65   37.24
   2   0   8  664.63   38.53
   2   0   9  289.72   30.61
   2   0   9  257.33   32.63
  -2   0  -9  281.17   32.94
  -2   0 -10   84.94   18.73
   2   0  10   87.36   17.38
   2   0  10   64.79   18.41
  -2   0 -10  103.32   20.92
  -2   0 -11  962.45   69.38
  -2   0 -11  826.51   62.56
   2   0  11  839.72   67.61
  -2   0 -12  302.29   38.61
  -2   0 -12  300.45   40.01
   2   0  12  338.53   44.85
  -2   0 -13   18.21   13.38
  -2   0 -13    7.64    8.26
  -2  -1  15   63.93   19.36
  -2  -1  14  517.92   50.52
  -2  -1  14  502.32   53.73
  -2  -1  14  334.69   44.82
   2   1 -14  428.48   48.88
  -2  -1  13  482.91   50.07
  -2  -1  13  499.83   52.21
  -2  -1  13  540.74   49.61
   2   1 -13  490.58   50.18
  -2  -1  12    5.93    7.30
  -2  -1  12    0.30    6.19
   2   1 -12    2.64    7.33
   2   1 -12    1.16    7.36
  -2  -1  12   12.43    9.06
  -2  -1  11  209.18   28.08
   2   1 -11  260.35   30.05
   2   1 -11  206.25   29.06
  -2  -1  11  196.69   28.68
   2   1 -10  202.84   25.40
  -2  -1  10  226.08   27.75
   2   1 -10  163.15   24.59
  -2  -1  10  187.26   25.65
   2   1  -9   70.08   14.51
  -2  -1   9   77.71   16.77
   2   1  -9   94.49   17.20
  -2  -1   9   69.67   15.05
  -2  -1   8   80.75   15.17
  -2  -1   8   65.93    7.15
   2   1  -8   79.50   14.95
   2   1  -8   78.81   14.58
  -2  -1   8   62.83   13.40
   2   1  -7    7.04    3.12
  -2  -1   7    5.78    4.51
  -2  -1   7    2.33    1.38
  -2  -1   7    4.76    4.40
   2   1  -7    3.86    4.88
   2   1  -7    4.98    1.74
   2   1  -7   13.37    7.31
  -2  -1   6    6.46    4.59
   2   1  -6   10.20    6.45
  -2  -1   6    8.70    1.78
  -2  -1   6   12.01    7.13
   2   1  -6   13.26    6.34
   2   1  -6    3.97    2.96
   2   1  -6    6.29    2.35
   2   1  -5  350.43   15.49
  -2  -1   5  345.85   25.28
   2   1  -5  351.38   19.78
   2   1  -5  343.08   24.04
   2   1  -5  375.39   26.14
  -2  -1   5  317.57   23.65
   2   1  -4  474.37   28.15
   2   1  -4  489.17   20.01
   2   1  -4  527.39   24.84
  -2  -1   4  488.11   26.87
  -2  -1   4  450.14   27.05
   2   1  -4  471.45   25.77
   2   1  -3  952.40   40.05
  -2  -1   3 1008.74   30.14
   2   1  -3 1057.94   36.93
   2   1  -3 1055.02   34.35
   2   1  -3 1032.73   38.41
  -2  -1   3 1060.97   40.61
  -2  -1   3 1001.40   38.82
   2   1  -2  132.37   11.73
   2   1  -2  126.60    9.03
  -2  -1   2  123.83    7.89
  -2  -1   2  117.32   10.38
   2   1  -2  114.92   11.09
   2   1  -2  123.25    8.41
  -2  -1   2  114.97   10.73
  -2  -1   1  511.94   20.58
   2   1  -1  473.08   21.06
   2   1  -1  463.48   21.06
  -2  -1   1  481.49   19.81
   2   1  -1  444.31   23.31
   2   1   0 2143.17   65.65
   2   1   0 2143.15   57.30
   2   1   0 2205.87   62.14
  -2  -1   0 2282.98   63.98
   2   1   0 2204.63   65.92
   2   1   1  537.23   16.56
  -2  -1  -1  568.09   22.47
   2   1   1  564.00   25.65
   2   1   1  543.08   25.70
   2   1   1  504.76   27.47
  -2  -1  -1  527.27   26.50
   2   1   2  313.42   18.93
   2   1   2  341.40   21.59
   2   1   2  352.41   19.85
  -2  -1  -2  342.97   22.82
  -2  -1  -2  333.40   19.04
   2   1   2  339.80   15.83
   2   1   2  309.50   22.87
   2   1   3 3655.42   96.12
  -2  -1  -3 3897.29  106.72
   2   1   3 3713.02   99.88
   2   1   3 3525.08  111.52
   2   1   3 3909.53  102.27
   2   1   3 3653.48  109.20
  -2  -1  -4 1009.38   27.94
  -2  -1  -4 1060.30   46.80
   2   1   4 1027.80   37.54
   2   1   4 1046.24   41.14
   2   1   4 1026.28   48.56
   2   1   4  994.60   38.06
   2   1   4  969.89   48.97
   2   1   5   61.73    9.15
   2   1   5   59.96    9.46
  -2  -1  -5   62.93   11.23
   2   1   5   51.61    6.69
  -2  -1  -5   53.36    5.31
   2   1   5   42.51   10.57
   2   1   5   64.98   12.94
  -2  -1  -6 1246.84   61.06
   2   1   6 1298.99   51.53
   2   1   6 1320.12   51.35
  -2  -1  -6 1270.62   63.53
   2   1   6 1228.76   63.39
   2   1   6 1229.42   61.73
  -2  -1  -7 1343.07   68.12
   2   1   7 1450.53   73.04
   2   1   7 1282.12   66.47
   2   1   7 1400.31   54.78
  -2  -1  -7 1303.64   68.56
   2   1   7 1393.81   57.82
   2   1   8  334.87   32.89
  -2  -1  -8  338.72   34.12
  -2  -1  -8  338.78   34.60
   2   1   8  325.80   35.01
   2   1   8  387.37   29.23
  -2  -1  -9  269.34   32.38
   2   1   9  301.95   36.46
  -2  -1  -9  287.47   33.14
   2   1   9  284.00   31.80
  -2  -1 -10  824.51   60.86
   2   1  10  776.47   61.83
  -2  -1 -10  728.40   56.66
   2   1  10  761.76   55.21
  -2  -1 -11  243.53   33.66
  -2  -1 -11  236.88   33.98
   2   1  11  308.10   40.39
   2   1  12   12.14    9.94
  -2  -1 -12   18.71   10.51
  -2  -1 -13   16.39   10.17
  -2  -1 -13   -2.06   11.36
  -2  -2  15   87.87   24.26
  -2  -2  15   60.55   17.95
  -2  -2  15   49.59   19.30
  -2  -2  14  838.12   65.60
   2   2 -14  859.65   70.19
  -2  -2  14  816.82   69.85
  -2  -2  14  874.24   70.75
   2   2 -13  101.62   20.82
  -2  -2  13  136.60   26.56
  -2  -2  13  112.67   22.62
  -2  -2  13   91.76   22.71
   2   2 -13  130.26   25.56
   2   2 -12  105.17   22.17
  -2  -2  12   98.87   21.73
   2   2 -12  121.62   21.85
  -2  -2  12  137.83   24.30
  -2  -2  12  110.15   23.85
  -2  -2  11  746.14   56.09
   2   2 -11  785.32   57.51
  -2  -2  11  724.11   54.11
   2   2 -11  796.97   54.68
  -2  -2  10  329.22   34.38
   2   2 -10  437.78   39.53
  -2  -2  10  407.30   37.52
   2   2 -10  418.70   37.13
  -2  -2   9   -1.93    6.71
  -2  -2   9  -16.28    8.43
   2   2  -9    7.12    6.95
   2   2  -9   -0.68    5.48
   2   2  -8  236.12   24.94
   2   2  -8  189.52   22.91
  -2  -2   8  142.61   20.11
   2   2  -8  231.34   16.45
  -2  -2   8  156.25   20.46
   2   2  -7  493.27   34.73
  -2  -2   7  449.04   32.93
   2   2  -7  547.38   27.11
   2   2  -7  492.31   35.18
  -2  -2   7  459.43   34.21
  -2  -2   6   12.24    6.26
  -2  -2   6    8.04    5.58
   2   2  -6   11.35    5.37
   2   2  -6   17.08    7.68
   2   2  -6   13.25    4.62
   2   2  -5  828.53   39.15
  -2  -2   5  890.17   41.38
   2   2  -5  844.49   36.60
   2   2  -5  847.27   42.72
  -2  -2   5  888.70   43.03
   2   2  -4  534.45   30.93
  -2  -2   4  541.90   28.94
   2   2  -4  540.83   27.15
   2   2  -4  523.96   27.57
  -2  -2   4  569.19   31.05
  -2  -2   4  583.01   24.92
   2   2  -3    2.99    2.34
  -2  -2   3    6.46    4.04
   2   2  -3    7.61    2.46
   2   2  -3    3.73    3.96
  -2  -2   3    3.02    4.46
   2   2  -3    7.68    5.00
  -2  -2   3    3.54    2.94
   2   2  -2 1174.07   33.72
  -2  -2   2 1130.09   42.36
   2   2  -2 1153.30   44.96
   2   2  -2 1176.46   38.66
  -2  -2   2 1215.99   39.67
  -2  -2   2 1185.56   42.86
  -2  -2   1  134.60   11.66
   2   2  -1  118.38   12.33
   2   2  -1  128.69   11.92
  -2  -2   0 1547.70   38.59
   2   2   0 1382.62   51.77
   2   2   0 1454.68   52.90
   2   2   0 1403.35   45.20
  -2  -2   0 1492.86   51.00
  -2  -2  -1  148.55    9.90
   2   2   1  159.31   14.32
   2   2   1  152.28   12.78
  -2  -2  -1  146.50   14.32
   2   2   1  148.47   15.37
  -2  -2  -2  830.09   32.16
   2   2   2  789.79   35.44
   2   2   2  751.88   34.64
  -2  -2  -2  799.48   38.96
   2   2   2  737.06   31.18
   2   2   2  738.81   39.35
  -2  -2  -3 1892.41   61.70
   2   2   3 1761.75   64.34
   2   2   3 1683.18   56.82
   2   2   3 1710.93   59.00
  -2  -2  -3 1715.31   67.31
   2   2   3 1673.51   68.99
   2   2   4 1587.10   54.01
  -2  -2  -4 1550.83   60.51
   2   2   4 1488.85   66.01
   2   2   4 1516.82   63.13
  -2  -2  -4 1445.15   64.20
   2   2   4 1430.09   53.54
   2   2   5   89.23   11.89
   2   2   5  124.78   12.06
   2   2   5   96.05   16.35
  -2  -2  -5  114.79   15.64
  -2  -2  -5   96.82   15.91
   2   2   5  123.08   17.74
  -2  -2  -6 2122.65   83.65
   2   2   6 2066.78   74.09
   2   2   6 2030.64   86.35
  -2  -2  -6 1936.78   85.47
   2   2   6 1991.85   86.57
   2   2   7 1235.25   55.92
   2   2   7 1162.07   65.38
   2   2   7 1224.79   67.57
  -2  -2  -7 1081.25   63.85
  -2  -2  -7 1301.88   65.74
  -2  -2  -8    7.19    6.06
   2   2   8   -2.31    5.37
   2   2   8   10.29    6.75
  -2  -2  -8   11.49    7.94
   2   2   9  642.00   50.67
  -2  -2  -9  606.97   49.24
   2   2   9  637.64   53.20
  -2  -2  -9  728.04   54.86
   2   2  10  790.32   58.37
  -2  -2 -10  642.54   54.66
   2   2  10  690.23   58.95
  -2  -2 -10  759.35   58.24
   2   2  11  222.41   31.06
   2   2  11  165.01   30.75
  -2  -2 -11  168.81   28.51
  -2  -2 -11  180.09   29.30
  -2  -2 -12   32.81   14.14
  -2  -2 -12   26.50   14.45
   2   2  12   48.01   17.47
  -2  -3  15  310.19   44.72
  -2  -3  15  334.91   44.64
  -2  -3  15  304.93   40.12
  -2  -3  14  212.12   32.47
   2   3 -14  125.40   26.58
  -2  -3  14   83.69   24.25
  -2  -3  14  192.49   32.39
  -2  -3  13    4.58    6.78
  -2  -3  13   -1.88    7.00
   2   3 -13    9.01    8.52
   2   3 -13  -12.82    8.83
  -2  -3  13    0.25    9.06
  -2  -3  12  123.09   22.76
   2   3 -12  146.10   24.98
  -2  -3  12  113.00   20.01
   2   3 -12  121.95   24.37
  -2  -3  12  108.51   23.26
  -2  -3  12  156.91   25.62
  -2  -3  11  309.63   34.49
  -2  -3  11  283.42   34.08
  -2  -3  11  254.26   31.74
   2   3 -11  265.03   31.65
   2   3 -11  295.21   34.32
   2   3 -10  346.56   34.60
  -2  -3  10  329.53   33.48
   2   3 -10  285.23   32.03
  -2  -3  10  291.23   32.21
   2   3  -9  398.47   35.41
   2   3  -9  346.62   32.91
  -2  -3   9  345.61   32.40
  -2  -3   9  372.05   34.75
  -2  -3   8 1639.20   73.33
   2   3  -8 1722.08   77.23
   2   3  -8 1684.80   75.05
   2   3  -8 1744.69   61.78
  -2  -3   8 1694.07   77.01
   2   3  -7  357.69   30.35
  -2  -3   7  308.14   26.60
   2   3  -7  294.52   26.23
  -2  -3   7  328.24   28.82
   2   3  -7  304.53   22.23
  -2  -3   6  108.05   15.40
  -2  -3   6   97.60   13.96
   2   3  -6  137.15   18.00
   2   3  -6  119.77   15.10
   2   3  -6  118.84   13.72
  -2  -3   5 3431.55   92.78
  -2  -3   5 3204.88   97.51
   2   3  -5 3373.00  103.84
   2   3  -5 3311.63   95.63
   2   3  -5 3433.70   97.96
  -2  -3   5 3167.55  101.19
  -2  -3   4  262.48   20.00
  -2  -3   4  285.37   22.21
   2   3  -4  274.56   21.32
   2   3  -4  242.41   16.99
  -2  -3   4  268.90   18.46
   2   3  -4  299.72   14.35
   2   3  -3 1777.26   54.12
   2   3  -3 1759.51   64.15
   2   3  -3 1824.76   52.12
  -2  -3   3 1748.93   60.26
  -2  -3   3 1709.23   62.36
  -2  -3   3 1812.78   58.46
   2   3  -2 2897.26   84.24
   2   3  -2 2867.75   91.22
   2   3  -2 3022.23   70.65
  -2  -3   2 2987.37   85.85
  -2  -3   2 2767.85   85.99
   2   3  -1 1744.86   64.39
   2   3  -1 1899.91   62.95
  -2  -3   1 1796.80   60.82
   2   3   0  440.58   27.95
   2   3   0  492.99   21.36
  -2  -3   0  516.55   28.59
   2   3   0  436.48   27.81
   2   3   1  515.84   32.39
  -2  -3  -1  524.56   30.96
   2   3   1  495.11   29.84
  -2  -3  -1  541.61   20.44
   2   3   1  534.17   25.31
   2   3   2 3186.79   98.73
   2   3   2 3169.42   94.67
   2   3   2 3157.82  106.33
  -2  -3  -2 3400.16   89.15
   2   3   2 3299.37   94.92
  -2  -3  -2 3124.31  102.78
  -2  -3  -3 1053.99   42.49
   2   3   3  979.64   43.06
   2   3   3  996.34   52.58
   2   3   3  955.67   43.76
   2   3   3 1074.18   46.71
  -2  -3  -3  872.99   47.52
   2   3   4    8.50    7.18
  -2  -3  -4    9.31    6.55
   2   3   4    8.45    4.85
  -2  -3  -4   10.30    5.05
   2   3   4   19.24    7.65
   2   3   4    5.57    4.14
   2   3   5  256.03   22.56
   2   3   5  280.69   29.04
   2   3   5  284.17   21.39
  -2  -3  -5  307.59   25.78
   2   3   5  285.00   26.78
  -2  -3  -5  311.16   29.89
  -2  -3  -6 1543.43   69.83
   2   3   6 1536.15   65.07
   2   3   6 1584.18   74.36
  -2  -3  -6 1547.10   75.93
   2   3   6 1593.68   78.16
   2   3   7  583.67   46.47
   2   3   7  607.89   46.08
  -2  -3  -7  485.19   41.89
  -2  -3  -7  558.80   41.40
   2   3   7  519.89   36.30
   2   3   8    0.10    7.35
  -2  -3  -8    3.69    6.02
  -2  -3  -8   11.32   10.17
   2   3   8    3.61    6.94
   2   3   9  518.89   48.15
  -2  -3  -9  601.58   48.81
   2   3   9  689.64   55.86
  -2  -3  -9  651.68   53.56
  -2  -3 -10  739.79   57.37
   2   3  10  773.16   62.26
   2   3  10  683.02   57.16
  -2  -3 -10  638.13   55.89
   2   3  11   56.20   17.07
  -2  -3 -11   53.89   16.21
  -2  -3 -11   50.16   16.06
   2   3  11   58.40   18.39
  -2  -3 -12  148.31   29.23
   2   3  12  147.72   30.10
  -2  -4  15  122.63   26.73
  -2  -4  15  148.77   28.86
  -2  -4  15  172.63   31.78
   2   4 -14   43.50   15.17
  -2  -4  14   20.47   11.90
   2   4 -14   37.42   15.22
  -2  -4  14   11.46    6.62
  -2  -4  14   54.69   18.17
  -2  -4  13   59.45   17.16
  -2  -4  13   60.73   18.32
   2   4 -13   54.06   17.16
   2   4 -13   43.53   15.57
  -2  -4  13   53.57   17.43
  -2  -4  12  140.22   25.81
  -2  -4  12  126.71   23.45
  -2  -4  12  139.01   24.77
   2   4 -12   89.75   19.75
   2   4 -12  138.21   24.60
  -2  -4  11   57.71   15.20
   2   4 -11   50.88   14.96
   2   4 -11   71.19   16.71
  -2  -4  11   73.97   17.29
  -2  -4  11   82.04   18.57
   2   4 -10   15.61    8.18
   2   4 -10   24.37    9.56
  -2  -4  10   35.51   11.94
  -2  -4  10   47.21   14.55
  -2  -4  10   45.73   12.51
   2   4  -9  369.62   35.53
  -2  -4   9  373.05   33.39
   2   4  -9  330.72   32.35
  -2  -4   9  388.21   36.06
   2   4  -8  200.17   24.77
   2   4  -8  193.26   22.78
   2   4  -8  233.53   21.06
  -2  -4   8  225.34   23.78
  -2  -4   8  207.65   25.22
  -2  -4   7   15.76    7.28
   2   4  -7   23.44    9.06
   2   4  -7   25.87    8.19
  -2  -4   7   19.70    9.28
   2   4  -7   32.20    8.14
   2   4  -6 1289.30   58.79
   2   4  -6 1192.87   51.38
   2   4  -6 1086.87   48.51
  -2  -4   6 1112.34   54.64
  -2  -4   6 1182.44   51.46
   2   4  -5 1191.21   38.49
   2   4  -5 1105.02   46.27
  -2  -4   5 1111.69   49.45
  -2  -4   5 1086.54   53.20
   2   4  -5 1260.79   54.26
  -2  -4   5 1159.07   48.95
   2   4  -4  214.18   20.33
   2   4  -4  218.26   15.49
  -2  -4   4  240.83   19.74
  -2  -4   4  227.59   21.27
  -2  -4   4  182.58   17.26
   2   4  -4  201.82   14.85
   2   4  -3 1028.62   34.01
   2   4  -3 1017.98   48.64
   2   4  -3 1048.98   41.81
  -2  -4   3 1079.89   45.45
  -2  -4   3 1036.61   44.51
   2   4  -2 2709.83   92.22
   2   4  -2 2896.61   87.11
   2   4  -2 2654.68   91.53
  -2  -4   2 2721.55   87.01
   2   4  -1 2498.58   86.08
   2   4  -1 2507.79   83.01
   2   4  -1 2485.89   85.07
  -2  -4   1 2328.67   80.26
   2   4   0  700.89   39.03
   2   4   0  656.39   36.82
  -2  -4   0  639.23   36.25
   2   4   0  657.03   25.48
   2   4   0  696.64   38.62
   2   4   1 7736.64  204.09
   2   4   1 7443.52  205.77
  -2  -4  -1 7884.96  178.62
   2   4   1 8054.87  190.17
  -2  -4  -1 7620.95  207.27
   2   4   1 7576.73  211.55
   2   4   2 1508.53   63.49
   2   4   2 1619.31   71.11
   2   4   2 1512.72   60.97
   2   4   2 1637.59   57.24
  -2  -4  -2 1505.79   65.89
  -2  -4  -2 1609.68   49.66
   2   4   3   75.77   15.52
   2   4   3   75.63   12.18
  -2  -4  -3   74.33    9.95
   2   4   3   81.22   11.80
   2   4   3   67.81   11.87
  -2  -4  -3   78.10   13.99
   2   4   4  602.01   35.66
  -2  -4  -4  563.21   32.46
   2   4   4  565.02   42.42
   2   4   4  534.05   35.27
  -2  -4  -4  564.42   40.67
   2   4   4  517.73   34.18
  -2  -4  -5  977.92   50.05
   2   4   5 1132.74   51.06
   2   4   5 1115.07   56.78
  -2  -4  -5  983.46   59.07
   2   4   5 1103.82   54.08
   2   4   5 1082.54   63.36
  -2  -4  -6  470.31   35.00
   2   4   6  438.52   33.91
   2   4   6  437.62   36.93
  -2  -4  -6  425.59   38.94
   2   4   6  423.94   40.26
   2   4   7    3.29    4.06
  -2  -4  -7    4.30    6.12
   2   4   7    8.89   10.10
   2   4   7    1.70    7.16
  -2  -4  -7    7.51    6.30
  -2  -4  -8  199.44   29.52
   2   4   8  168.02   25.86
   2   4   8  209.74   30.25
   2   4   9  452.91   45.53
  -2  -4  -9  517.67   48.91
   2   4   9  573.28   52.47
   2   4  10  236.14   34.68
   2   4  10  277.62   37.75
  -2  -4 -10  228.67   34.05
   2   4  11   43.72   15.64
   2   4  11   29.23   13.63
  -2  -4 -11   49.44   17.20
  -2  -5  15   36.67   14.73
  -2  -5  15   38.86   15.75
   2   5 -14  115.78   24.73
  -2  -5  14   73.54   19.73
  -2  -5  14   65.07   18.72
   2   5 -14   45.75   15.62
  -2  -5  14   45.62   16.56
   2   5 -13  153.15   28.01
  -2  -5  13  188.78   29.22
   2   5 -13  225.24   33.49
  -2  -5  13  109.39   24.44
  -2  -5  13  197.75   31.40
  -2  -5  13  188.78   29.63
  -2  -5  12   27.79   13.27
   2   5 -12   18.19   10.97
   2   5 -12   40.63   14.57
  -2  -5  12   17.20   11.49
  -2  -5  12   48.78   16.20
  -2  -5  11  166.26   26.26
   2   5 -11  131.83   23.62
  -2  -5  11  143.14   24.33
   2   5 -11  132.83   23.48
  -2  -5  11  121.51   22.55
   2   5 -10  552.81   44.87
   2   5 -10  546.88   46.86
  -2  -5  10  532.07   43.28
  -2  -5  10  624.44   46.22
  -2  -5  10  530.75   45.99
   2   5  -9  144.60   21.04
   2   5  -9  159.09   18.92
   2   5  -9  152.00   23.37
  -2  -5   9  129.75   19.61
  -2  -5   9  132.96   21.82
  -2  -5   9  140.14   21.15
  -2  -5   8  285.77   27.48
   2   5  -8  291.40   30.94
   2   5  -8  287.50   26.03
  -2  -5   8  284.64   26.31
   2   5  -8  269.88   27.00
  -2  -5   8  293.51   30.65
  -2  -5   7   55.65   12.91
   2   5  -7   83.97   16.27
   2   5  -7   84.73   14.09
   2   5  -7   90.81   14.44
  -2  -5   7   68.62   13.06
   2   5  -6  624.25   39.69
  -2  -5   6  664.64   38.93
   2   5  -6  589.43   34.73
  -2  -5   6  620.73   37.30
  -2  -5   6  672.75   43.07
  -2  -5   5  142.82   16.43
   2   5  -5  135.47   13.90
   2   5  -5  140.86   18.25
  -2  -5   5  124.00   16.06
  -2  -5   5  111.95   16.90
   2   5  -4   66.73    8.23
  -2  -5   4   58.83   10.21
   2   5  -4   67.20   12.86
  -2  -5   4   58.77   10.97
  -2  -5   3 1033.68   46.12
   2   5  -3  951.63   50.86
   2   5  -3 1030.41   33.01
   2   5  -3  995.97   52.11
  -2  -5   3  966.56   47.53
   2   5  -3 1000.36   45.47
   2   5  -2 1751.20   73.83
   2   5  -2 1863.41   69.94
   2   5  -2 1766.59   74.00
  -2  -5   2 1913.52   71.83
   2   5  -1  258.71   24.86
   2   5  -1  274.76   24.49
  -2  -5   1  241.86   22.69
   2   5  -1  276.66   25.45
   2   5   0 1540.72   68.31
  -2  -5   0 1625.68   67.71
   2   5   0 1559.44   67.44
   2   5   0 1600.80   46.66
   2   5   0 1690.59   71.20
   2   5   1 2444.70   89.83
  -2  -5  -1 2344.86   90.97
   2   5   1 2535.88   72.79
   2   5   1 2516.66   93.08
   2   5   1 2586.65   97.15
   2   5   2  688.99   45.93
   2   5   2  613.77   40.02
   2   5   2  604.75   38.44
   2   5   2  636.41   32.12
  -2  -5  -2  620.63   41.66
  -2  -5  -3  146.52   20.85
   2   5   3  146.06   21.52
   2   5   3  163.36   19.97
   2   5   3  124.37   17.22
   2   5   3  150.31   16.22
   2   5   4 1061.78   63.55
   2   5   4 1037.34   53.50
   2   5   4  982.90   53.27
   2   5   4 1072.49   51.92
  -2  -5  -4  944.05   57.59
   2   5   5 2045.48   80.90
   2   5   5 2010.28   84.45
   2   5   5 2131.83   85.21
  -2  -5  -5 2035.91   93.45
   2   5   5 1945.98   94.96
  -2  -5  -6   33.69   12.31
   2   5   6   44.80   11.81
   2   5   6   31.40   10.23
   2   5   6   50.17   15.67
   2   5   7  334.63   38.96
   2   5   7  343.84   33.07
   2   5   7  298.82   32.59
  -2  -5  -7  268.96   33.92
   2   5   8  338.44   40.48
   2   5   8  369.03   38.67
  -2  -5  -8  360.81   40.92
   2   5   9   77.57   20.60
   2   5   9  110.13   22.80
  -2  -5  -9   51.99   15.50
   2   5  10  105.31   23.83
   2   5  10   86.49   21.57
  -2  -5 -10  112.53   24.58
   2   5  11   38.07   16.52
   2   5  11   47.83   16.83
  -2  -6  15   11.90    9.79
  -2  -6  14  127.57   27.09
  -2  -6  14   79.67   20.02
   2   6 -14  115.98   24.66
   2   6 -14  123.02   26.46
   2   6 -13  165.96   29.07
  -2  -6  13  195.74   31.98
  -2  -6  13  202.35   31.77
   2   6 -13  172.56   29.59
   2   6 -12    2.26    5.23
   2   6 -12    1.16    5.00
  -2  -6  12    5.70    7.07
  -2  -6  12   16.94   10.97
  -2  -6  12    7.10    7.51
  -2  -6  11  241.08   30.17
   2   6 -11  241.40   33.07
  -2  -6  11  183.27   27.30
   2   6 -11  254.32   31.91
  -2  -6  11  241.88   32.87
  -2  -6  10  455.39   39.54
   2   6 -10  466.35   44.75
   2   6 -10  469.60   41.17
  -2  -6  10  533.27   42.27
  -2  -6  10  488.16   44.89
   2   6  -9   27.48   10.26
  -2  -6   9   27.60    9.18
  -2  -6   9   23.86    9.28
   2   6  -9   45.58   11.90
   2   6  -9   46.68   14.16
  -2  -6   9   25.08    9.93
   2   6  -8  254.59   26.01
  -2  -6   8  191.24   22.90
   2   6  -8  245.14   26.51
   2   6  -8  238.77   29.40
  -2  -6   8  258.91   23.96
  -2  -6   8  239.85   29.09
  -2  -6   7 1385.79   70.85
   2   6  -7 1390.02   66.45
   2   6  -7 1453.74   61.95
  -2  -6   7 1358.37   62.13
  -2  -6   6  569.02   36.06
   2   6  -6  481.09   37.62
   2   6  -6  534.51   32.30
  -2  -6   6  500.35   39.57
  -2  -6   6  498.08   36.29
   2   6  -5   88.53   11.42
  -2  -6   5  112.31   16.55
  -2  -6   5  112.85   15.07
   2   6  -5   87.61   15.38
  -2  -6   5  100.68   17.03
  -2  -6   4  903.49   45.13
   2   6  -4  835.00   33.95
   2   6  -4  865.36   51.33
   2   6  -4  860.70   52.05
  -2  -6   4  905.24   48.87
  -2  -6   3  715.79   39.40
   2   6  -3  803.47   48.55
   2   6  -3  771.03   47.93
  -2  -6   3  641.79   41.01
   2   6  -2  145.90   20.56
   2   6  -2  190.73   21.42
  -2  -6   2  181.37   21.13
   2   6  -2  200.00   23.85
   2   6  -1   26.12    8.71
   2   6  -1   29.70   10.58
   2   6  -1   33.54   10.36
  -2  -6   1   15.90    7.56
   2   6   0  731.57   46.30
  -2  -6   0  801.49   47.51
   2   6   0  688.35   46.09
   2   6   0  741.11   47.84
   2   6   1  231.17   26.30
   2   6   1  209.40   23.82
   2   6   1  197.55   24.95
  -2  -6  -1  228.83   25.58
   2   6   2  629.72   43.70
   2   6   2  597.73   41.12
   2   6   2  614.71   46.50
  -2  -6  -2  566.73   42.45
  -2  -6  -3   32.61   11.13
   2   6   3   51.87   12.85
   2   6   3   53.63   11.70
   2   6   3   53.31   12.79
   2   6   3   51.57   15.73
   2   6   4 1374.29   67.38
  -2  -6  -4 1235.15   70.72
   2   6   4 1263.52   66.02
   2   6   4 1224.49   73.81
   2   6   5  649.37   53.59
  -2  -6  -5  667.62   51.99
   2   6   5  614.12   45.41
   2   6   6   26.84   10.29
   2   6   6   22.56   12.95
  -2  -6  -6   38.12   13.62
   2   6   7  286.11   32.41
  -2  -6  -7  289.05   36.48
   2   6   7  250.41   35.49
   2   6   8  299.54   40.29
  -2  -6  -8  281.07   37.80
  -2  -6  -9   14.66   10.35
   2   6   9   15.73   11.65
   2   6  10   65.39   21.34
  -2  -6 -10   52.90   18.85
  -2  -7  14   70.02   20.87
   2   7 -14   45.63   16.40
  -2  -7  14   56.14   18.28
   2   7 -13   66.35   20.08
  -2  -7  13   85.81   22.44
   2   7 -13  121.66   24.35
  -2  -7  13   75.84   20.24
  -2  -7  12    3.60    5.48
   2   7 -12   -4.06    5.82
   2   7 -12   11.45   10.24
   2   7 -11  150.98   27.44
   2   7 -11  134.49   23.24
  -2  -7  11  155.15   27.12
   2   7 -10  511.37   43.16
   2   7 -10  566.46   50.98
  -2  -7  10  445.30   44.84
  -2  -7   9  -13.59    8.97
  -2  -7   9   -3.52    5.28
   2   7  -9   -1.03    5.19
   2   7  -9   11.00   11.23
   2   7  -9    9.46    8.08
  -2  -7   8  560.64   40.40
   2   7  -8  676.46   43.36
   2   7  -8  543.37   47.40
   2   7  -8  688.15   48.25
  -2  -7   8  630.39   50.03
  -2  -7   7 1715.85   75.33
   2   7  -7 1875.22   86.37
   2   7  -7 1963.95   75.48
  -2  -7   7 1862.77   83.27
  -2  -7   7 1762.33   86.97
  -2  -7   6  170.16   22.85
   2   7  -6  179.58   24.62
  -2  -7   6  241.30   28.67
  -2  -7   6  205.19   22.09
  -2  -7   5  408.32   30.93
  -2  -7   5  416.84   35.04
   2   7  -5  417.48   37.38
   2   7  -5  423.83   38.20
  -2  -7   5  493.02   39.80
   2   7  -4 1643.14   80.29
  -2  -7   4 1729.74   70.09
   2   7  -4 1658.68   81.06
  -2  -7   4 1704.85   76.54
   2   7  -3  807.46   53.22
  -2  -7   3  792.48   49.27
   2   7  -3  775.40   52.28
  -2  -7   3  764.08   43.21
  -2  -7   2   18.17    8.30
   2   7  -2    7.57    5.81
   2   7  -2   -2.03    5.31
   2   7  -2    8.10    7.43
   2   7  -1  748.59   49.20
   2   7  -1  688.49   49.30
   2   7  -1  750.75   50.89
  -2  -7   1  811.84   50.57
   2   7   0  764.60   50.85
   2   7   0  701.71   50.03
   2   7   0  736.26   51.19
  -2  -7   0  774.41   50.63
   2   7   1  236.60   28.54
   2   7   1  270.17   29.43
  -2  -7  -1  223.49   27.47
   2   7   1  263.42   30.73
   2   7   2   -7.32    8.20
   2   7   2    7.65    6.98
  -2  -7  -2   -2.29    5.26
   2   7   2    3.79    5.45
  -2  -7  -3  190.78   26.58
   2   7   3  213.23   25.89
   2   7   3  189.82   25.68
   2   7   3  151.62   25.77
   2   7   4  369.67   35.65
   2   7   4  383.96   42.07
  -2  -7  -4  325.54   36.74
   2   7   5   63.67   15.75
   2   7   5   69.43   18.15
  -2  -7  -5   85.41   19.35
   2   7   6   17.45   10.64
   2   7   6   33.78   12.17
  -2  -7  -6   28.57   13.11
  -2  -7  -7   95.91   22.67
   2   7   7  136.39   27.10
  -2  -7  -8  286.63   39.73
   2   7   8  307.93   42.98
  -2  -7  -9   -5.48    8.21
  -2  -8  13   35.40   14.20
  -2  -8  13   28.92   12.78
  -2  -8  12  179.84   31.28
   2   8 -12  146.34   28.49
  -2  -8  11  277.01   37.10
   2   8 -11  352.55   42.52
  -2  -8  10   28.75   10.85
   2   8 -10   36.36   12.84
  -2  -8   9   93.32   20.46
   2   8  -9  109.95   20.51
   2   8  -9  127.29   24.55
   2   8  -8  389.19   38.80
  -2  -8   8  367.11   39.38
   2   8  -7  375.70   37.62
  -2  -8   7  361.13   38.14
  -2  -8   7  359.07   35.85
  -2  -8   6   -2.07    4.77
  -2  -8   6    2.17    6.24
  -2  -8   6    7.65    8.84
   2   8  -6   -2.97    5.28
  -2  -8   5  444.59   38.89
  -2  -8   5  438.33   33.19
   2   8  -5  428.40   40.80
   2   8  -5  429.29   40.94
   2   8  -4 2107.54   99.19
   2   8  -4 2261.82  102.34
  -2  -8   4 2226.65   96.07
  -2  -8   4 2184.31   85.14
   2   8  -3  719.12   53.84
   2   8  -3  777.56   55.61
  -2  -8   3  725.66   51.00
  -2  -8   3  786.75   46.03
   2   8  -3  828.73   52.19
   2   8  -2  136.41   21.39
  -2  -8   2   95.14   18.62
  -2  -8   2  107.13   17.33
   2   8  -2  116.64   21.23
   2   8  -2  156.44   24.66
   2   8  -1 1830.63   91.30
   2   8  -1 1752.48   88.24
  -2  -8   1 1938.94   89.55
   2   8  -1 1791.90   87.83
   2   8   0  540.83   45.72
   2   8   0  528.95   46.08
  -2  -8   0  546.38   45.08
   2   8   0  627.62   49.64
   2   8   1   26.64   11.89
  -2  -8  -1   26.83   11.02
   2   8   1   26.09   11.64
   2   8   1   12.78    8.51
   2   8   2  521.22   45.82
   2   8   2  485.30   43.24
  -2  -8  -2  490.14   45.38
   2   8   2  510.75   47.96
   2   8   3  540.07   46.90
  -2  -8  -3  540.37   48.26
   2   8   3  512.60   44.31
   2   8   3  584.53   53.31
  -2  -8  -4   53.54   15.07
   2   8   4   53.84   17.15
   2   8   4   52.47   14.89
   2   8   5  121.66   25.84
  -2  -8  -5   77.06   19.21
   2   8   6   96.55   23.53
  -2  -8  -6   12.68    9.23
  -2  -8  -7   77.47   21.78
   2   8   7   74.51   21.32
   2   9 -12  420.15   50.28
  -2  -9  12  481.09   52.73
   2   9 -11   61.69   19.34
  -2  -9  11  103.86   24.21
  -2  -9  10  158.55   28.56
   2   9 -10  160.63   29.60
   2   9  -9  286.06   38.80
   2   9  -9  341.67   38.49
  -2  -9   9  369.08   42.43
   2   9  -8  231.70   31.80
  -2  -9   8  262.31   34.78
  -2  -9   7   37.59   12.97
   2   9  -7   34.68   12.43
  -2  -9   7   42.99   15.26
  -2  -9   6    8.16    7.83
  -2  -9   6    9.08    8.19
   2   9  -6    1.93    5.85
   2   9  -5  496.57   47.44
  -2  -9   5  553.26   46.70
   2   9  -5  497.17   47.35
   2   9  -4  404.15   42.15
  -2  -9   4  392.27   39.27
   2   9  -4  436.75   44.05
   2   9  -4  326.51   33.83
   2   9  -3   11.55    8.43
  -2  -9   3   23.26   10.19
   2   9  -3   12.72    8.89
   2   9  -3   12.96    8.59
   2   9  -2  377.03   41.18
   2   9  -2  388.47   41.30
  -2  -9   2  374.57   32.96
  -2  -9   2  414.43   40.59
   2   9  -2  373.31   38.34
   2   9  -1  891.84   65.18
   2   9  -1  932.65   65.74
  -2  -9   1 1014.40   66.43
   2   9  -1 1145.26   70.51
   2   9   0  362.86   40.54
   2   9   0  353.32   39.21
   2   9   0  401.10   41.91
  -2  -9   0  373.50   39.72
   2   9   1   -1.71    6.18
   2   9   1    8.06    8.89
   2   9   1    2.55    6.65
  -2  -9  -1   12.56    7.61
   2   9   2  689.60   55.50
   2   9   2  772.08   62.96
   2   9   2  656.67   55.66
  -2  -9  -2  641.38   55.27
   2   9   3  219.59   34.77
  -2  -9  -3  225.06   32.92
   2   9   3  258.25   34.08
   2   9   4   20.00   12.69
   2   9   4    9.82    7.58
  -2  -9  -4   12.10    9.96
  -2  -9  -5  417.51   48.04
   2   9   5  465.55   52.89
   2   9   6  140.95   30.06
  -2  -9  -6  124.97   26.86
  -2 -10  11   76.99   21.52
   2  10 -11   81.11   22.56
  -2 -10  10  368.81   45.69
   2  10 -10  362.21   46.38
   2  10  -9  517.64   50.65
  -2 -10   9  484.71   51.66
   2  10  -8  296.15   38.37
  -2 -10   8  289.75   38.63
  -2 -10   7   50.89   17.01
  -2 -10   7   61.09   18.50
   2  10  -7   63.85   19.00
   2  10  -6  395.37   44.71
  -2 -10   6  378.96   41.10
  -2 -10   6  358.77   41.95
   2  10  -5  553.58   53.28
  -2 -10   5  593.49   52.13
   2  10  -4    1.15    5.09
  -2 -10   4    4.19    8.56
   2  10  -4    4.75    6.94
   2  10  -4   -2.42    6.42
   2  10  -3   82.99   19.31
   2  10  -3  163.47   28.56
   2  10  -3   99.21   22.68
  -2 -10   3  105.87   21.65
  -2 -10   2  104.27   21.99
   2  10  -2  144.44   26.25
   2  10  -2  175.16   29.75
   2  10  -2  120.87   25.36
  -2 -10   1  100.78   22.34
   2  10  -1   85.90   21.65
   2  10  -1  112.16   24.05
   2  10  -1   98.46   22.69
   2  10   0   19.31   10.97
  -2 -10   0   33.22   14.73
   2  10   0   38.49   13.61
   2  10   0   45.55   16.22
   2  10   1  157.06   27.77
   2  10   1  159.45   28.49
  -2 -10  -1  105.90   23.27
   2  10   1  195.76   32.56
  -2 -10  -2  273.85   37.82
   2  10   2  300.80   39.80
   2  10   2  270.07   39.56
  -2 -10  -3  118.10   25.24
   2  10   3  135.38   28.37
   2  10   3  104.85   23.61
   2  10   4   82.70   23.00
  -2 -10  -4   76.45   21.71
   2  11  -9  522.09   54.13
  -2 -11   9  531.69   56.14
   2  11  -8   68.53   20.46
  -2 -11   8   62.34   20.05
  -2 -11   7  156.67   29.63
  -2 -11   7  185.72   31.76
   2  11  -7  205.11   34.01
  -2 -11   6 1081.52   76.87
   2  11  -6 1043.75   78.84
  -2 -11   6 1109.72   79.55
  -2 -11   5  192.39   31.83
   2  11  -5  155.94   30.11
  -2 -11   4  135.19   26.10
   2  11  -4  104.92   24.86
  -2 -11   3  220.98   33.04
   2  11  -3  214.71   34.83
   2  11  -3  221.00   35.55
   2  11  -3  181.39   29.02
  -2 -11   2  226.64   34.61
   2  11  -2  257.46   38.27
   2  11  -2  248.81   37.57
   2  11  -2  326.52   40.35
   2  11  -1    4.28    8.55
  -2 -11   1   10.18   12.02
   2  11  -1   24.28   11.61
   2  11  -1    6.89    9.56
  -2 -11   0   68.71   19.62
   2  11   0  112.63   26.28
   2  11   0  127.59   28.07
   2  11   1  153.27   30.58
  -2 -11  -1  151.92   29.70
   2  11   1  168.89   30.94
   2  11   2  -16.16   12.63
   2  11   2    5.91    8.68
  -2 -11  -2    5.44    7.22
   2  11   3    1.21    6.25
  -2 -12   6  396.89   48.02
  -2 -12   5    0.90   10.48
   2  12  -5    8.83   10.51
  -2 -12   4  111.12   25.19
   2  12  -4  105.60   25.34
  -2 -12   3  310.83   42.68
   2  12  -3  276.95   42.17
   2  12  -2  109.95   24.62
   2  12  -2  102.83   26.39
   2  12  -1   67.40   20.07
   3 -13   2    6.76    6.16
   3 -12  -4  500.09   53.92
  -3  12   3  369.85   47.59
   3 -12  -3  402.25   47.26
   3 -12  -2   65.50   19.06
   3 -12  -2   33.93   15.48
  -3  12   1  410.23   50.18
   3 -12  -1  509.95   54.25
   3 -12  -1  435.54   48.95
   3 -12   0  351.18   44.02
   3 -12   0  405.26   47.38
  -3  12   0  366.70   47.44
  -3  12  -1    7.53   11.32
   3 -12   1    5.47    7.89
   3 -12   1    3.12    7.79
   3 -12   2  262.71   38.49
  -3  12  -2  214.93   36.71
   3 -12   2  232.26   34.06
   3 -12   3  351.93   42.10
   3 -12   3  322.39   39.36
  -3  12  -3  418.93   49.57
   3 -12   4   53.48   17.49
  -3  12  -4   50.25   18.80
   3 -12   5   10.51    9.56
  -3  12  -5    6.76    8.50
   3 -12   6   42.57   18.81
  -3  12  -6   23.29   12.87
   3 -12   6   43.40   17.26
   3 -11  -5  224.45   34.18
  -3  11   5  287.42   39.91
  -3  11   5  186.48   33.95
   3 -11  -4  820.20   65.52
  -3  11   4  856.20   71.05
  -3  11   4  742.10   65.70
  -3  11   3  236.01   36.42
   3 -11  -3  239.08   34.73
  -3  11   2  200.12   34.20
   3 -11  -2  202.96   31.59
   3 -11  -2  184.90   31.48
   3 -11  -1  622.29   55.28
   3 -11  -1  604.25   56.34
  -3  11   1  542.34   55.05
   3 -11   0  425.11   45.49
   3 -11   0  489.51   48.88
  -3  11   0  379.71   45.80
  -3  11  -1   -1.70    8.59
   3 -11   1    2.11    6.29
   3 -11   1    3.43    7.26
   3 -11   2  437.99   46.96
   3 -11   2  512.29   47.94
   3 -11   2  526.10   47.76
  -3  11  -2  524.43   53.80
  -3  11  -3  531.33   53.59
   3 -11   3  593.38   50.50
   3 -11   3  513.53   49.07
  -3  11  -4   17.47    9.58
   3 -11   4   12.75    9.78
  -3  11  -5  104.27   23.69
   3 -11   5  138.59   26.97
   3 -11   6  313.62   42.19
   3 -11   6  390.47   42.78
  -3  11  -6  333.17   41.69
   3 -11   7   29.72   14.41
  -3  11  -7   10.78    9.84
  -3  10   7   24.68   13.81
  -3  10   6  399.28   47.19
  -3  10   6  336.26   41.25
  -3  10   5  680.26   58.93
   3 -10  -5  660.00   55.97
  -3  10   5  597.35   57.61
  -3  10   4  259.80   36.90
   3 -10  -4  257.16   34.02
  -3  10   4  266.58   37.13
  -3  10   3  140.53   27.95
   3 -10  -3  132.39   24.06
  -3  10   3   96.92   22.70
  -3  10   2  203.20   32.05
   3 -10  -2  212.15   29.92
  -3  10   1  458.62   48.16
   3 -10  -1  434.94   44.91
   3 -10  -1  456.87   44.51
  -3  10   0  432.19   46.53
   3 -10   0  496.48   46.47
   3 -10   0  507.97   46.74
   3 -10   1    5.33    7.12
   3 -10   1    8.90    7.42
   3 -10   1    5.74    6.40
  -3  10  -1   21.93   10.83
   3 -10   2  713.64   53.70
   3 -10   2  661.83   51.58
  -3  10  -2  632.30   55.68
   3 -10   2  567.74   51.10
   3 -10   3  354.82   39.07
  -3  10  -3  444.97   46.05
  -3  10  -3  383.33   35.91
   3 -10   3  380.67   38.09
   3 -10   4   -3.24    7.38
  -3  10  -4    8.68    8.48
  -3  10  -4    9.02    7.18
   3 -10   4   -4.24    8.65
  -3  10  -5  776.80   55.52
  -3  10  -5  724.76   59.13
   3 -10   5  725.89   60.01
  -3  10  -6  589.62   49.68
  -3  10  -6  492.45   48.69
   3 -10   6  604.21   50.20
   3 -10   6  565.21   54.08
   3 -10   7   19.18   13.01
  -3  10  -7   12.85    9.89
  -3  10  -7    2.42    7.94
  -3  10  -8  147.64   26.86
   3 -10   8  171.58   31.26
  -3  10  -9  145.63   27.39
   3 -10   9  162.17   32.19
  -3  10 -10   13.85    9.64
  -3   9   9  823.13   71.35
  -3   9   8   61.98   21.31
  -3   9   8   18.57    9.15
  -3   9   7  243.84   36.54
  -3   9   6 1299.58   78.94
   3  -9  -6 1266.44   75.18
  -3   9   6 1188.17   80.95
  -3   9   5  581.98   51.63
   3  -9  -5  549.72   47.20
  -3   9   5  578.56   53.59
   3  -9  -4   45.75   14.10
  -3   9   4   37.37   13.90
  -3   9   4   41.35   14.75
  -3   9   3  481.07   47.07
   3  -9  -3  542.28   45.14
  -3   9   3  522.43   47.92
   3  -9  -2  221.77   28.72
  -3   9   2  201.75   29.67
  -3   9   2  221.55   30.33
   3  -9  -1  218.55   28.47
  -3   9   1  139.99   25.34
   3  -9  -1  171.93   25.95
   3  -9   0   71.05   14.54
   3  -9   0   74.54   17.52
   3  -9   0   30.92   11.64
  -3   9   0   36.63   14.16
   3  -9   1  293.87   32.52
   3  -9   1  291.66   31.12
  -3   9  -1  265.73   33.98
   3  -9   1  309.96   34.07
   3  -9   2  389.09   38.92
   3  -9   2  412.66   37.84
   3  -9   2  381.09   36.95
  -3   9  -2  340.81   38.55
  -3   9  -3    0.82    4.51
   3  -9   3    4.51    7.45
  -3   9  -3    6.59    8.87
   3  -9   3  -13.40    7.86
  -3   9  -4   16.81    8.79
   3  -9   4   25.06   11.38
  -3   9  -4   22.22   10.46
   3  -9   4   19.92    8.73
  -3   9  -5  231.66   28.70
   3  -9   5  255.85   33.51
  -3   9  -5  243.71   31.65
   3  -9   6   17.36    9.46
  -3   9  -6   31.67   12.51
  -3   9  -6   14.70    9.14
   3  -9   6   29.61   13.79
   3  -9   7   69.57   16.09
   3  -9   7   48.25   16.64
  -3   9  -7   45.17   13.21
  -3   9  -7   36.61   13.43
   3  -9   8  327.53   42.15
  -3   9  -8  331.34   39.04
  -3   9  -9  289.90   38.48
   3  -9   9  457.16   50.73
  -3   9 -10   17.91   11.03
   3  -9  10   -9.01    9.80
   3  -8 -10  474.52   50.17
  -3   8  10  456.04   52.59
  -3   8  10  514.61   54.76
  -3   8   9  194.95   33.08
  -3   8   9  191.44   32.54
  -3   8   8   75.22   20.28
  -3   8   7  372.16   39.64
  -3   8   7  391.35   43.81
   3  -8  -6  781.88   53.06
  -3   8   6  638.88   51.37
  -3   8   6  609.01   53.95
  -3   8   5  272.90   34.56
  -3   8   5  296.95   34.96
   3  -8  -5  289.12   31.26
   3  -8  -4  165.10   23.04
  -3   8   4  150.81   24.37
  -3   8   3  816.53   58.26
   3  -8  -3 1010.95   58.58
  -3   8   3  959.28   61.67
   3  -8  -2  532.68   41.71
  -3   8   2  550.52   46.20
  -3   8   2  570.72   45.51
   3  -8  -1   13.17    7.26
   3  -8  -1   25.32    8.75
  -3   8   1   21.40    9.87
   3  -8  -1    3.90    5.60
  -3   8   1   18.61   10.59
   3  -8   0 1072.94   61.66
   3  -8   0  923.62   52.72
  -3   8   0  898.25   60.21
   3  -8   0  946.83   57.58
   3  -8   1  211.47   26.10
   3  -8   1  215.54   26.37
   3  -8   1  184.49   23.49
  -3   8  -1  212.56   28.20
   3  -8   2   90.11   17.34
  -3   8  -2  102.28   20.77
   3  -8   2  108.23   18.44
  -3   8  -3  158.64   24.51
   3  -8   3  187.18   25.53
   3  -8   3  263.38   27.71
  -3   8  -3  260.16   27.36
   3  -8   4   54.03   12.52
  -3   8  -4   18.22    7.99
   3  -8   4   39.27   12.80
  -3   8  -4   56.09   15.22
   3  -8   5    7.98    5.50
   3  -8   5   -2.46    6.11
   3  -8   6   74.02   15.91
   3  -8   6  124.90   23.15
  -3   8  -6   76.35   16.92
  -3   8  -6   67.89   15.46
   3  -8   7   48.88   12.46
  -3   8  -7   53.36   15.11
  -3   8  -7   51.69   14.42
   3  -8   7   48.86   15.68
  -3   8  -8  184.19   28.44
   3  -8   8  221.69   33.15
  -3   8  -9    2.01    5.57
   3  -8   9   -5.68   11.50
   3  -8  10  200.17   33.34
  -3   8 -10  210.30   33.78
  -3   8 -11  506.49   54.61
   3  -8  11  604.39   59.64
  -3   7  11  262.76   39.44
  -3   7  10  498.44   52.48
  -3   7  10  446.20   49.26
  -3   7   9   39.06   16.22
  -3   7   9   47.83   15.85
  -3   7   8   -0.91    9.23
  -3   7   7  312.56   37.18
  -3   7   7  304.91   33.15
   3  -7  -7  321.44   31.71
  -3   7   6  446.06   39.89
  -3   7   6  563.51   48.73
   3  -7  -6  555.46   41.35
  -3   7   5  142.75   22.24
  -3   7   5  134.62   22.89
   3  -7  -5  153.48   21.18
  -3   7   4  238.70   29.04
  -3   7   4  201.57   26.23
   3  -7  -4  210.10   23.81
  -3   7   3  608.47   45.47
   3  -7  -3  614.86   41.46
  -3   7   3  585.16   44.52
   3  -7  -2  553.46   33.26
  -3   7   2  566.15   43.26
   3  -7  -2  513.45   37.59
  -3   7   2  479.50   39.00
   3  -7  -1  221.46   21.89
  -3   7   1  249.51   28.36
   3  -7  -1  216.00   25.48
   3  -7  -1  180.17   21.83
  -3   7   1  232.89   25.97
  -3   7   0  533.79   41.59
   3  -7   0  517.59   35.93
   3  -7   0  564.00   40.78
   3  -7   0  452.87   35.89
  -3   7   0  518.08   38.67
   3  -7   1  505.19   37.46
   3  -7   1  454.29   35.11
  -3   7  -1  513.16   40.80
   3  -7   1  412.57   34.94
   3  -7   2   54.84   12.30
   3  -7   2   47.91   12.73
  -3   7  -2   57.04   15.26
   3  -7   3  282.81   30.05
  -3   7  -3  277.32   29.99
   3  -7   3  322.49   28.24
  -3   7  -3  267.52   26.93
  -3   7  -4  257.03   27.28
   3  -7   4  197.01   26.04
   3  -7   4  229.83   23.47
   3  -7   4  237.53   22.11
  -3   7  -4  228.51   26.81
  -3   7  -5   41.82   12.13
   3  -7   5   41.77    9.95
   3  -7   5   38.91   12.41
   3  -7   5   30.17    9.49
  -3   7  -5   31.34   11.94
  -3   7  -6  703.58   50.67
   3  -7   6  681.04   52.64
   3  -7   6  709.06   45.02
  -3   7  -6  769.70   49.46
   3  -7   6  663.04   43.68
   3  -7   7  216.71   30.80
  -3   7  -7  213.33   28.60
   3  -7   7  193.47   24.52
   3  -7   7  255.15   26.56
  -3   7  -7  258.66   27.56
  -3   7  -8    4.75    5.69
   3  -7   8  -15.78    9.98
   3  -7   8    5.28    7.70
  -3   7  -9  306.46   38.03
   3  -7   9  324.68   39.80
   3  -7   9  313.41   35.06
   3  -7  10  181.20   30.81
   3  -7  10  288.35   36.24
  -3   7 -10  207.41   32.38
   3  -7  11   49.00   16.61
   3  -7  11   21.13   11.75
  -3   7 -11   35.96   15.93
   3  -7  12  -12.74    9.83
  -3   6  12  170.53   32.05
  -3   6  12  252.10   38.18
  -3   6  11  605.26   58.28
   3  -6 -10  283.12   35.42
  -3   6  10  275.48   37.51
  -3   6  10  310.04   37.77
  -3   6   9   17.77   10.01
  -3   6   9   10.58    8.65
   3  -6  -9   25.20   11.34
  -3   6   8  712.48   57.27
   3  -6  -8  862.43   59.09
   3  -6  -7  980.14   61.62
  -3   6   7  893.84   61.45
  -3   6   7  926.31   54.49
   3  -6  -7  851.39   49.92
   3  -6  -6   36.25    9.92
  -3   6   6   55.61   14.76
  -3   6   6   32.14   11.01
   3  -6  -6   28.48   10.44
   3  -6  -5   45.89   12.83
   3  -6  -5   61.62   13.18
  -3   6   5   45.98   12.27
  -3   6   5   66.12   14.51
  -3   6   4  202.47   25.06
   3  -6  -4  237.89   27.38
  -3   6   4  252.12   26.65
   3  -6  -4  255.89   24.02
   3  -6  -3   37.37    7.39
  -3   6   3   31.79   10.72
   3  -6  -3   37.74    9.94
  -3   6   3   35.43   11.52
   3  -6  -2  150.13   15.90
  -3   6   2  156.86   21.16
   3  -6  -2  183.19   19.91
  -3   6   2  180.12   21.91
   3  -6  -1  193.20   22.58
   3  -6  -1  175.64   18.43
  -3   6   1  203.77   23.64
   3  -6  -1  162.54   19.17
  -3   6   1  227.76   23.42
   3  -6   0  550.45   36.47
   3  -6   0  513.03   33.82
  -3   6   0  502.80   37.45
   3  -6   0  490.36   35.52
  -3   6   0  525.41   35.53
   3  -6   1  361.88   29.20
   3  -6   1  362.87   29.67
   3  -6   1  347.54   29.07
  -3   6  -1  311.86   28.96
   3  -6   2  117.59   16.25
  -3   6  -2   82.58   14.89
   3  -6   2   82.21   14.57
   3  -6   3  797.08   44.00
   3  -6   3  824.26   50.12
  -3   6  -3  813.69   47.25
   3  -6   3  811.90   41.38
  -3   6  -3  814.91   48.84
   3  -6   4  669.82   37.99
   3  -6   4  537.92   41.65
   3  -6   4  627.42   37.34
  -3   6  -4  521.68   38.46
  -3   6  -4  551.62   39.93
   3  -6   5  323.46   26.70
  -3   6  -5  287.50   29.79
   3  -6   5  286.71   31.51
   3  -6   5  307.46   27.34
  -3   6  -5  288.27   28.05
   3  -6   5  319.32   25.20
   3  -6   6  791.38   48.60
  -3   6  -6  710.25   50.20
  -3   6  -6  842.63   48.78
   3  -6   6  742.70   53.08
   3  -6   6  757.43   43.66
   3  -6   7  560.82   42.55
  -3   6  -7  484.42   42.93
   3  -6   7  507.35   44.85
   3  -6   8  145.83   24.86
  -3   6  -8  136.21   23.44
   3  -6   8  109.71   20.15
   3  -6   9  392.79   41.77
   3  -6   9  371.28   39.14
  -3   6  -9  394.72   42.52
  -3   6 -10  483.51   49.55
   3  -6  10  519.23   49.02
   3  -6  10  574.36   52.35
  -3   6 -11   34.67   14.47
   3  -6  11   24.80   11.72
   3  -6  11   23.20   10.64
   3  -6  12   77.74   21.24
   3  -6  12   90.65   22.25
  -3   6 -12   75.65   21.34
  -3   5  13   27.85   12.05
   3  -5 -13   13.46   10.42
  -3   5  13   53.71   19.45
  -3   5  12  193.15   32.84
   3  -5 -12  231.72   35.06
  -3   5  12  258.28   39.03
   3  -5 -11 1009.44   72.10
  -3   5  11  977.53   72.77
  -3   5  10  274.56   33.78
   3  -5 -10  323.21   36.47
  -3   5  10  288.58   37.06
   3  -5 -10  238.45   29.35
   3  -5  -9  378.11   38.24
  -3   5   9  328.99   37.95
  -3   5   9  370.58   37.74
   3  -5  -8 1216.68   70.97
  -3   5   8 1375.22   77.63
  -3   5   8 1450.55   65.73
   3  -5  -7  204.93   26.31
  -3   5   7  245.62   24.80
  -3   5   7  181.54   25.39
   3  -5  -7  246.87   23.41
  -3   5   6  108.66   16.87
  -3   5   6   94.11   18.70
  -3   5   6   94.20   16.77
   3  -5  -6   91.80   16.91
   3  -5  -6  114.16   15.14
  -3   5   5  712.72   47.63
  -3   5   5  762.66   44.95
   3  -5  -5  775.82   49.05
  -3   5   5  792.10   46.15
   3  -5  -5  814.34   41.45
  -3   5   4  445.92   30.20
   3  -5  -4  418.96   33.99
   3  -5  -4  422.24   21.55
  -3   5   4  388.83   31.11
   3  -5  -4  413.74   27.91
  -3   5   4  432.43   34.28
   3  -5  -3    8.40    4.79
  -3   5   3    8.23    5.44
  -3   5   3   11.47    7.08
   3  -5  -3    3.01    6.03
   3  -5  -3    7.90    3.69
   3  -5  -2  452.42   33.04
  -3   5   2  484.02   33.43
  -3   5   2  500.36   34.87
   3  -5  -2  496.54   30.56
   3  -5  -2  487.65   27.89
   3  -5  -1  338.76   25.17
   3  -5  -1  275.77   21.99
  -3   5   1  252.50   24.29
   3  -5  -1  306.62   26.05
  -3   5   1  272.68   23.59
   3  -5   0   25.04    7.83
   3  -5   0   13.07    5.45
  -3   5   0    8.06    6.14
  -3   5   0   13.34    6.00
   3  -5   0    7.62    6.65
   3  -5   1  560.05   35.43
   3  -5   1  551.75   34.33
  -3   5  -1  589.30   37.11
   3  -5   2 1096.14   53.93
  -3   5  -2 1101.69   53.14
   3  -5   2 1082.18   47.47
   3  -5   2 1083.26   50.46
   3  -5   3  175.76   18.40
   3  -5   3  146.96   19.23
  -3   5  -3  154.51   18.46
   3  -5   3  162.66   17.29
  -3   5  -3  192.73   20.98
  -3   5  -4   53.59   11.02
   3  -5   4   55.94   13.29
  -3   5  -4   57.09   12.63
   3  -5   4   38.54   10.20
   3  -5   4   52.02   10.03
   3  -5   5  541.52   31.92
   3  -5   5  566.08   41.99
   3  -5   5  481.73   35.04
  -3   5  -5  535.24   39.41
   3  -5   5  501.98   30.87
  -3   5  -5  475.52   33.12
  -3   5  -6  730.90   41.45
  -3   5  -6  702.65   48.29
   3  -5   6  653.89   47.74
   3  -5   6  676.35   44.88
   3  -5   6  752.67   40.19
  -3   5  -7  364.79   36.04
   3  -5   7  396.10   37.35
   3  -5   7  308.31   31.80
  -3   5  -8  241.98   31.17
   3  -5   8  287.98   32.42
   3  -5   8  332.00   35.53
  -3   5  -9  989.02   68.32
   3  -5   9 1062.34   68.81
   3  -5   9 1122.80   69.77
  -3   5 -10  582.17   54.59
   3  -5  10  685.87   55.51
   3  -5  10  660.85   55.85
   3  -5  11   -1.12    6.62
  -3   5 -11   -1.48    5.95
   3  -5  11   -0.62    8.09
  -3   5 -12  347.40   45.34
   3  -5  12  381.40   43.52
   3  -5  12  380.69   47.31
   3  -4 -13   98.68   23.68
  -3   4  13  151.97   30.89
  -3   4  13   84.72   22.22
  -3   4  12  266.75   37.51
   3  -4 -12  295.06   38.76
   3  -4 -11  258.02   34.94
   3  -4 -11  211.79   30.17
  -3   4  11  272.52   36.29
  -3   4  10   22.48   10.34
  -3   4  10    6.31    6.33
  -3   4  10   -6.57    8.99
   3  -4 -10    4.18    5.26
   3  -4 -10    9.27    8.30
   3  -4 -10    7.29    7.31
  -3   4   9  492.57   44.63
   3  -4  -9  528.56   45.09
   3  -4  -9  421.30   35.51
   3  -4  -9  514.06   43.91
  -3   4   9  475.01   44.11
  -3   4   9  489.48   40.47
  -3   4   8  646.91   48.68
   3  -4  -8  589.75   45.71
  -3   4   8  625.54   48.38
   3  -4  -8  551.27   44.44
  -3   4   8  642.96   38.53
   3  -4  -8  616.97   36.93
  -3   4   7   85.28   16.72
   3  -4  -7   77.79   11.90
  -3   4   7   64.12   15.03
   3  -4  -7   57.49   13.47
  -3   4   7   66.81   12.32
  -3   4   6   27.06    9.71
   3  -4  -6   38.41   10.84
  -3   4   6   31.48    8.84
   3  -4  -6   55.48    9.55
  -3   4   6   29.37    9.91
  -3   4   5 1354.10   60.04
   3  -4  -5 1224.96   61.61
  -3   4   5 1323.35   58.20
  -3   4   5 1287.38   62.51
   3  -4  -5 1305.02   50.90
  -3   4   4  313.86   24.22
   3  -4  -4  292.46   25.61
   3  -4  -4  301.52   26.95
   3  -4  -4  316.68   17.76
  -3   4   4  309.35   26.97
  -3   4   4  306.17   25.19
   3  -4  -4  348.04   22.45
  -3   4   3  383.53   28.29
  -3   4   3  389.78   24.54
   3  -4  -3  402.00   29.86
  -3   4   3  334.72   26.31
   3  -4  -3  339.37   20.23
   3  -4  -3  330.42   21.97
   3  -4  -3  372.84   27.95
  -3   4   2 3055.51   84.08
  -3   4   2 2981.40   97.41
   3  -4  -2 2882.41   97.43
   3  -4  -2 2907.77   86.63
   3  -4  -2 2871.17   88.10
   3  -4  -2 2877.68   96.13
  -3   4   2 2958.51   95.08
   3  -4  -1  297.98   21.57
  -3   4   1  324.17   25.32
   3  -4  -1  337.04   25.21
  -3   4   1  337.30   16.15
   3  -4  -1  322.46   24.93
   3  -4  -1  296.72   21.51
  -3   4   1  319.90   23.02
  -3   4   0 1348.31   56.73
   3  -4   0 1309.94   53.41
   3  -4   0 1379.78   55.95
  -3   4   0 1371.14   51.86
   3  -4   1 2522.69   83.67
   3  -4   1 2484.01   85.31
  -3   4  -1 2554.15   85.53
   3  -4   2  213.63   19.07
   3  -4   2  200.76   20.66
  -3   4  -2  225.32   20.18
   3  -4   2  222.00   19.17
  -3   4  -3   94.63   14.58
   3  -4   3  115.36   13.80
   3  -4   3   95.29   14.87
  -3   4  -3  106.42   13.73
   3  -4   3  130.25   15.50
  -3   4  -4 1348.44   63.35
   3  -4   4 1405.09   65.55
   3  -4   4 1384.54   61.24
  -3   4  -4 1597.11   60.24
   3  -4   4 1455.19   53.29
   3  -4   4 1566.52   57.82
  -3   4  -5 1319.57   64.26
  -3   4  -5 1300.94   54.17
   3  -4   5 1161.88   61.58
   3  -4   5 1337.24   52.91
   3  -4   5 1212.87   60.09
   3  -4   5 1406.19   51.71
   3  -4   6  479.68   28.51
  -3   4  -6  439.69   36.79
   3  -4   6  446.46   36.70
   3  -4   6  488.42   37.65
   3  -4   6  445.07   28.14
  -3   4  -6  414.44   27.89
   3  -4   7   94.86   17.84
  -3   4  -7  102.85   18.95
   3  -4   7   88.37   17.49
  -3   4  -8  375.31   38.18
   3  -4   8  405.95   38.50
   3  -4   8  402.20   37.76
   3  -4   9  590.64   47.79
   3  -4   9  621.95   51.64
  -3   4  -9  578.17   50.21
  -3   4 -10  146.86   26.84
   3  -4  10  145.76   26.95
   3  -4  10  191.25   27.71
   3  -4  11  246.78   32.78
  -3   4 -11  207.24   33.45
   3  -4  11  237.08   35.57
   3  -4  12  580.12   58.19
  -3   4 -12  612.36   60.43
  -3   3  14  111.00   25.59
   3  -3 -14   43.05   16.64
   3  -3 -13  297.23   40.24
  -3   3  13  376.47   46.84
  -3   3  13  365.61   43.87
   3  -3 -12  315.21   36.81
  -3   3  12  320.05   41.77
   3  -3 -12  304.95   39.31
  -3   3  12  258.72   35.52
  -3   3  11    6.78    6.55
  -3   3  11    9.61    9.30
   3  -3 -11    3.12    5.92
   3  -3 -11    9.79    8.51
  -3   3  10  141.49   25.03
  -3   3  10  192.58   28.38
   3  -3 -10  204.33   29.27
   3  -3 -10  163.68   24.91
   3  -3  -9  134.82   18.00
  -3   3   9   68.38   16.38
  -3   3   9  100.59   19.69
   3  -3  -9  117.59   20.32
   3  -3  -9   89.71   18.59
  -3   3   9  133.41   19.54
   3  -3  -8    3.71    3.75
  -3   3   8    8.14    6.68
  -3   3   8    9.17    4.31
  -3   3   8    2.37    5.84
   3  -3  -8    0.81    5.92
   3  -3  -8   -1.32    3.82
   3  -3  -8    3.05    5.03
  -3   3   7   34.26   11.26
  -3   3   7   27.63   10.60
   3  -3  -7   23.82    9.24
  -3   3   7   29.80    7.89
   3  -3  -7   24.20    8.43
   3  -3  -7   27.78    8.57
   3  -3  -7   30.83    6.70
  -3   3   6  369.76   30.23
  -3   3   6  292.28   28.33
   3  -3  -6  341.86   29.76
  -3   3   6  336.88   25.41
   3  -3  -6  416.93   32.13
   3  -3  -6  318.78   20.88
   3  -3  -6  381.48   28.12
  -3   3   5  953.03   49.75
   3  -3  -5  974.81   37.20
   3  -3  -5  904.79   48.92
  -3   3   5  927.76   44.61
  -3   3   5 1009.62   48.77
   3  -3  -5  880.91   44.61
  -3   3   4   36.12    9.22
   3  -3  -4   40.97    6.47
  -3   3   4   45.69    9.14
   3  -3  -4   28.99    7.83
   3  -3  -4   46.60    9.92
  -3   3   4   38.03    8.76
  -3   3   3  765.37   34.48
   3  -3  -3  699.39   38.75
  -3   3   3  663.60   36.10
  -3   3   3  682.40   36.71
   3  -3  -3  703.67   30.24
   3  -3  -3  742.56   29.84
   3  -3  -3  729.35   37.44
  -3   3   2  677.17   33.94
  -3   3   2  707.99   29.84
   3  -3  -2  701.28   29.70
   3  -3  -2  648.51   35.69
  -3   3   2  677.13   35.60
   3  -3  -2  681.32   35.56
   3  -3  -2  703.32   31.33
  -3   3   1    6.75    3.50
  -3   3   1    8.44    2.52
   3  -3  -1   12.40    5.82
   3  -3  -1    6.29    3.93
   3  -3  -1   18.08    5.73
  -3   3   1    8.30    5.07
   3  -3   0 1305.93   52.68
   3  -3   0 1418.78   54.53
  -3   3   0 1371.08   54.42
  -3   3   0 1512.53   39.96
  -3   3   0 1430.07   48.91
  -3   3  -1 2882.15   71.08
   3  -3   1 2955.05   89.22
   3  -3   1 2765.69   86.87
  -3   3  -1 2966.12   89.58
   3  -3   1 2832.66   90.77
   3  -3   2  142.80   16.41
  -3   3  -2  141.85   14.42
   3  -3   2  143.36   15.36
   3  -3   2  158.05   15.30
  -3   3  -3  387.88   28.07
   3  -3   3  367.47   27.81
  -3   3  -3  406.42   24.64
   3  -3   3  389.07   24.78
   3  -3   3  365.08   26.76
   3  -3   3  387.26   20.09
   3  -3   4 3314.32  110.30
  -3   3  -4 3403.48  110.93
   3  -3   4 3393.26  100.29
  -3   3  -4 3487.58   98.40
   3  -3   4 3071.82  106.63
   3  -3   4 3272.90   91.03
  -3   3  -5 1083.30   56.70
   3  -3   5 1167.47   47.79
   3  -3   5 1128.68   56.42
   3  -3   5 1036.06   55.06
  -3   3  -5 1139.98   45.02
   3  -3   5 1180.47   43.73
   3  -3   6  105.68   16.83
  -3   3  -6  114.28   18.28
   3  -3   6   84.93   16.18
   3  -3   6  102.37   11.94
  -3   3  -7 1462.61   74.03
   3  -3   7 1364.73   68.52
   3  -3   7 1341.41   71.17
  -3   3  -8  728.16   53.45
   3  -3   8  796.17   51.44
   3  -3   8  665.07   51.52
   3  -3   9  251.09   29.36
  -3   3  -9  230.87   31.55
   3  -3   9  202.34   29.21
  -3   3 -10   33.93   13.34
   3  -3  10   25.50   10.86
   3  -3  10   14.71    9.16
   3  -3  11  214.52   33.33
  -3   3 -11  187.61   31.24
   3  -3  12  249.08   39.06
  -3   3 -12  227.51   36.32
  -3   2  14  335.68   43.23
  -3   2  14  385.00   50.03
   3  -2 -14  323.70   43.50
  -3   2  13  399.90   47.85
  -3   2  13  352.94   42.99
   3  -2 -13  423.89   47.71
  -3   2  12  163.74   27.95
  -3   2  12  184.55   31.35
   3  -2 -12  243.46   34.32
   3  -2 -12  243.19   31.91
  -3   2  11   91.88   20.94
   3  -2 -11  113.03   20.92
   3  -2 -11  112.95   22.41
  -3   2  10  453.66   42.36
  -3   2  10  412.77   41.60
   3  -2 -10  453.21   40.40
   3  -2 -10  478.32   43.44
  -3   2   9   46.79   13.06
  -3   2   9   71.64   12.97
  -3   2   9   80.31   16.83
   3  -2  -9   74.30   16.15
   3  -2  -9   61.85   11.49
   3  -2  -9   52.18   14.32
  -3   2   8  112.02   19.32
  -3   2   8  165.77   16.72
  -3   2   8  123.94   20.05
   3  -2  -8  147.55   20.87
   3  -2  -8  148.42   16.56
   3  -2  -8  130.60   20.30
   3  -2  -8  146.54   14.23
  -3   2   7  715.52   45.63
   3  -2  -7  636.26   42.72
  -3   2   7  674.12   35.85
  -3   2   7  680.78   44.51
   3  -2  -7  696.35   30.96
   3  -2  -7  683.04   36.66
   3  -2  -7  661.17   43.53
  -3   2   6  194.04   17.98
   3  -2  -6  172.30   20.26
   3  -2  -6  209.83   22.25
   3  -2  -6  203.88   13.67
  -3   2   6  197.69   21.96
  -3   2   6  177.96   20.43
   3  -2  -6  185.11   17.67
  -3   2   5  224.62   21.69
   3  -2  -5  207.47   21.16
  -3   2   5  217.54   20.64
   3  -2  -5  186.50   19.35
  -3   2   5  216.90   18.73
   3  -2  -5  235.74   13.12
   3  -2  -5  215.12   18.52
  -3   2   4 1037.84   44.39
  -3   2   4  872.92   41.09
   3  -2  -4  947.31   45.66
  -3   2   4  939.23   44.78
   3  -2  -4  887.74   40.62
   3  -2  -4  971.96   30.45
  -3   2   3  422.18   26.06
   3  -2  -3  403.70   27.12
   3  -2  -3  451.07   26.42
  -3   2   3  451.02   24.95
  -3   2   3  412.05   25.71
   3  -2  -3  447.60   18.06
  -3   2   2  107.00   10.28
   3  -2  -2  107.51   12.73
  -3   2   2  114.22   11.98
   3  -2  -2  112.27   11.41
  -3   2   2  125.10   13.35
   3  -2  -2  102.48   11.98
  -3   2   1   24.37    5.21
  -3   2   1   29.42    4.73
   3  -2  -1   19.85    5.96
  -3   2   1   24.10    6.66
   3  -2  -1   30.65    6.36
   3  -2  -1   27.60    6.84
  -3   2   0 1222.88   38.06
  -3   2   0 1188.82   46.55
   3  -2   0 1200.93   44.93
  -3   2   0 1283.05   39.19
   3  -2   0 1234.71   47.38
   3  -2   0 1216.63   47.10
  -3   2  -1  852.27   36.56
   3  -2   1  901.25   40.25
   3  -2   1  878.41   38.60
   3  -2   1  828.55   37.46
  -3   2  -2  232.87   19.48
  -3   2  -2  235.94   17.07
   3  -2   2  263.09   21.00
   3  -2   2  224.41   19.29
   3  -2   2  238.57   18.60
  -3   2  -3  975.97   38.11
  -3   2  -3  975.63   45.87
   3  -2   3  926.93   29.81
   3  -2   3  879.90   44.10
   3  -2   3  961.62   41.36
   3  -2   3  910.08   44.73
  -3   2  -4 3708.17  117.45
  -3   2  -4 3773.20  101.14
   3  -2   4 3537.79  116.91
   3  -2   4 3660.22  115.46
   3  -2   4 3756.71   94.82
   3  -2   4 3675.17  108.28
   3  -2   5  572.71   25.66
   3  -2   5  540.00   36.94
  -3   2  -5  584.57   38.83
  -3   2  -5  588.44   26.13
   3  -2   5  547.46   35.89
   3  -2   5  550.10   38.29
   3  -2   6  376.59   31.77
  -3   2  -6  406.90   34.22
   3  -2   6  373.25   30.88
   3  -2   6  436.00   23.74
   3  -2   6  392.38   34.18
   3  -2   7 1169.56   62.16
  -3   2  -7 1324.11   69.07
   3  -2   7 1243.39   68.65
   3  -2   7 1217.14   61.85
   3  -2   8  773.90   50.91
  -3   2  -8  816.03   56.30
   3  -2   8  919.53   53.71
   3  -2   8  741.79   55.04
  -3   2  -9   59.93   16.34
   3  -2   9   71.95   15.57
   3  -2   9   76.41   18.26
  -3   2 -10  554.18   51.46
   3  -2  10  576.41   53.16
  -3   2 -11  336.04   41.77
   3  -2  11  315.17   41.22
  -3   2 -12   51.36   18.49
   3  -2  12   65.36   20.26
  -3   1  15    5.15    8.24
  -3   1  14  129.61   29.02
   3  -1 -14  121.12   27.16
  -3   1  14  101.14   27.32
  -3   1  14   84.73   21.74
   3  -1 -13  340.45   38.31
  -3   1  13  259.89   37.77
   3  -1 -13  216.81   33.37
  -3   1  13  340.03   41.07
  -3   1  12    1.75    5.86
  -3   1  12    7.72   10.24
   3  -1 -12    1.51    7.39
   3  -1 -12    7.60    9.24
  -3   1  11  356.31   40.27
   3  -1 -11  394.34   38.24
   3  -1 -11  379.70   40.16
  -3   1  11  410.81   41.17
   3  -1 -10  517.07   44.63
   3  -1 -10  518.63   42.87
  -3   1  10  539.51   45.41
  -3   1  10  603.36   49.02
  -3   1   9    6.19    6.98
  -3   1   9    1.33    7.63
   3  -1  -9    6.37    8.16
   3  -1  -9    4.77    2.94
   3  -1  -9    2.10    5.34
  -3   1   9   10.69    4.31
  -3   1   8  191.73   17.60
  -3   1   8  194.72   23.96
  -3   1   8  240.74   26.56
  -3   1   8  194.33   17.69
   3  -1  -8  190.68   23.31
   3  -1  -8  160.53   21.77
   3  -1  -8  184.63   16.54
   3  -1  -8  152.70   13.79
  -3   1   7  726.18   45.55
   3  -1  -7  699.83   44.04
  -3   1   7  754.93   37.19
   3  -1  -7  726.12   45.08
   3  -1  -7  785.24   30.65
  -3   1   7  775.57   46.44
   3  -1  -7  739.83   35.21
  -3   1   6  111.03   13.12
  -3   1   6  110.27   16.18
   3  -1  -6   96.29   15.42
   3  -1  -6   89.60   10.99
   3  -1  -6   86.90   13.71
   3  -1  -6  105.79   11.88
  -3   1   6  105.64   15.53
   3  -1  -6   92.43    7.65
   3  -1  -5 3471.84   99.30
  -3   1   5 3443.30  107.82
   3  -1  -5 3530.72  111.04
   3  -1  -5 3456.49  108.09
   3  -1  -5 3710.33  101.10
   3  -1  -5 3490.13   82.66
  -3   1   5 3386.18  109.55
  -3   1   4 2261.14   77.64
   3  -1  -4 2282.70   78.98
   3  -1  -4 2222.04   75.52
   3  -1  -4 2420.85   73.91
  -3   1   4 2320.38   76.00
   3  -1  -4 2329.95   71.89
   3  -1  -3  353.93   21.61
   3  -1  -3  386.93   24.65
  -3   1   3  384.73   22.38
   3  -1  -3  342.15   22.22
  -3   1   3  347.62   22.48
   3  -1  -2  252.25   18.04
  -3   1   2  264.92   16.89
  -3   1   2  280.91   17.63
   3  -1  -2  240.70   17.87
   3  -1  -2  264.53   19.34
   3  -1  -1 3590.93  101.20
  -3   1   1 3901.82   94.36
   3  -1  -1 3583.57   99.19
   3  -1  -1 3635.64  102.35
   3  -1  -1 3505.29  103.29
  -3   1   1 3723.69   96.67
   3  -1   0 1609.17   56.37
   3  -1   0 1558.76   49.70
   3  -1   0 1566.43   55.69
   3  -1   0 1581.60   56.66
   3  -1   0 1676.55   56.52
  -3   1   0 1740.73   43.84
   3  -1   1   71.83   11.00
   3  -1   1   55.63    9.41
  -3   1  -1   64.84    8.46
   3  -1   1   74.74    7.25
   3  -1   1   74.52   10.26
   3  -1   1   68.59    9.86
   3  -1   1   83.20   10.61
  -3   1  -2  197.94   17.11
  -3   1  -2  201.00   14.65
   3  -1   2  207.69   18.10
   3  -1   2  199.34   17.94
   3  -1   2  208.24   16.69
   3  -1   2  189.68   18.11
   3  -1   2  191.49   17.31
  -3   1  -3 1538.14   49.78
  -3   1  -3 1496.46   59.53
   3  -1   3 1476.93   61.73
   3  -1   3 1643.45   61.19
   3  -1   3 1586.82   54.69
   3  -1   3 1526.22   61.64
   3  -1   4 1557.40   66.58
  -3   1  -4 1611.43   65.60
  -3   1  -4 1730.86   46.31
  -3   1  -4 1646.48   50.01
   3  -1   4 1607.83   63.46
   3  -1   4 1572.28   55.46
   3  -1   4 1570.92   67.20
   3  -1   4 1582.61   45.12
   3  -1   5   66.84   13.28
   3  -1   5   75.67   14.83
  -3   1  -5   81.77    7.43
  -3   1  -5   75.24   14.03
  -3   1  -5   82.11    7.40
   3  -1   5   82.23   13.32
   3  -1   5   77.76    7.97
  -3   1  -6  510.86   38.18
   3  -1   6  520.11   34.77
   3  -1   6  458.41   37.58
   3  -1   6  434.30   34.73
  -3   1  -7  885.22   56.30
   3  -1   7 1116.91   55.24
   3  -1   7  971.07   60.19
   3  -1   7 1070.63   59.01
   3  -1   8  925.28   56.20
   3  -1   8  835.69   49.53
   3  -1   8  836.09   58.91
  -3   1  -8  855.82   57.61
   3  -1   9    2.91    6.33
  -3   1  -9   21.42   10.22
   3  -1   9    7.72    9.56
  -3   1 -10  724.31   58.52
   3  -1  10  635.41   50.15
   3  -1  10  579.03   54.48
  -3   1 -11  434.22   47.05
   3  -1  11  431.28   49.13
   3  -1  12   20.94   14.08
  -3   1 -12   19.40   11.66
  -3   0  15   77.44   21.01
  -3   0  14   97.57   23.96
  -3   0  14   85.23   21.48
   3   0 -14  117.08   26.12
  -3   0  14  108.15   26.25
   3   0 -13   16.49   11.79
   3   0 -13    7.79   10.53
  -3   0  13   28.86   13.57
  -3   0  13   -2.67    8.47
  -3   0  12   44.21   14.95
  -3   0  12   46.39   17.18
   3   0 -12   50.19   14.93
   3   0 -12   46.91   15.71
  -3   0  11  100.54   20.00
  -3   0  11   75.18   18.24
   3   0 -11  124.62   21.59
   3   0 -11   77.33   18.51
  -3   0  10   -2.19    6.45
   3   0 -10   -0.47    5.97
   3   0 -10   -2.81    5.73
  -3   0  10  -10.93    8.67
   3   0  -9   -1.74    6.35
   3   0  -9    5.98    6.67
  -3   0   9    5.42    6.67
  -3   0   9    1.97    5.55
  -3   0   8  677.77   45.40
   3   0  -8  695.84   30.83
  -3   0   8  633.90   44.13
   3   0  -8  668.47   44.82
   3   0  -8  626.66   43.21
   3   0  -8  735.06   32.10
   3   0  -8  671.87   30.80
  -3   0   8  703.16   29.31
   3   0  -7  495.52   24.98
  -3   0   7  509.93   36.74
   3   0  -7  498.31   36.15
   3   0  -7  468.92   34.26
   3   0  -7  511.60   26.93
  -3   0   7  449.50   34.63
  -3   0   7  478.08   22.23
   3   0  -6   -2.10    5.24
   3   0  -6    6.79    6.27
  -3   0   6    7.45    6.31
   3   0  -6    6.72    3.20
   3   0  -6    3.41    2.51
  -3   0   6   -1.66    5.77
   3   0  -5 1167.09   42.57
   3   0  -5 1214.36   54.06
  -3   0   5 1173.13   51.30
   3   0  -5 1280.44   47.23
   3   0  -5 1106.53   49.29
  -3   0   5 1199.81   53.46
   3   0  -4 2146.52   64.20
  -3   0   4 2055.90   69.42
   3   0  -4 1948.14   71.18
   3   0  -4 1938.20   66.90
   3   0  -4 2124.29   67.75
  -3   0   4 1979.90   70.60
  -3   0   3    8.38    4.02
  -3   0   3    4.91    3.92
   3   0  -3    8.11    4.97
   3   0  -3   14.57    6.43
   3   0  -3   15.18    4.92
  -3   0   2 3700.19  102.92
   3   0  -2 3681.45  104.22
   3   0  -2 3719.13  103.92
   3   0  -2 3708.37  107.02
  -3   0   2 4005.17   92.23
  -3   0   2 3757.66  101.55
  -3   0   1 8886.73  207.92
   3   0  -1 8402.99  210.64
   3   0  -1 8786.33  208.45
   3   0  -1 8432.04  212.80
   3   0  -1 8513.02  204.83
  -3   0   1 8576.70  200.95
   3   0   0 1454.97   42.42
   3   0   0 1407.44   51.76
   3   0   0 1369.50   51.52
   3   0   0 1428.94   51.08
   3   0   0 1405.50   50.24
  -3   0   0 1397.00   38.23
   3   0   0 1411.89   51.80
   3   0   1  125.10    7.44
   3   0   1  124.28   14.21
   3   0   1  131.25   13.40
   3   0   1  135.62   13.42
   3   0   1  130.10   13.74
  -3   0  -2 1940.65   65.04
   3   0   2 1900.60   64.19
   3   0   2 1942.79   71.12
   3   0   2 2031.82   69.41
   3   0   2 1970.18   66.66
  -3   0  -3 3143.79   95.50
   3   0   3 3196.93   94.98
   3   0   3 3122.47   89.41
   3   0   3 3206.21   99.82
   3   0   3 2832.18   99.32
   3   0   3 2968.23   73.04
   3   0   4   -0.28    5.00
   3   0   4    0.32    1.00
  -3   0  -4    1.55    4.65
  -3   0  -4    3.00    2.03
   3   0   4    3.90    5.24
   3   0   4    5.57    5.43
   3   0   4    2.88    2.70
   3   0   5  311.65   28.90
  -3   0  -5  364.52   29.40
   3   0   5  350.29   18.95
   3   0   5  357.34   26.68
   3   0   5  383.09   21.76
   3   0   5  374.88   31.97
   3   0   6  228.00   26.08
   3   0   6  313.97   25.86
  -3   0  -6  299.84   28.86
   3   0   6  303.65   30.73
   3   0   7  657.64   47.12
  -3   0  -7  670.17   47.14
   3   0   7  698.44   41.58
   3   0   7  725.39   51.11
   3   0   8  175.35   24.58
  -3   0  -8  166.77   24.91
   3   0   8  192.49   27.84
   3   0   9  239.86   32.78
   3   0   9  195.34   27.02
  -3   0  -9  208.26   29.08
   3   0  10  476.23   44.41
  -3   0 -10  521.48   49.29
  -3   0 -10  535.77   49.87
   3   0  10  446.43   47.67
  -3   0 -11  120.14   24.87
   3   0  11  102.84   24.74
  -3   0 -11  121.88   25.40
  -3   0 -12   27.96   14.46
  -3   0 -12   13.36   10.33
   3   0  12    3.04    6.88
  -3  -1  15  128.82   26.89
  -3  -1  15  126.95   29.37
   3   1 -15  163.05   31.01
  -3  -1  15  150.71   32.03
  -3  -1  14   78.26   20.69
  -3  -1  14   44.25   15.93
   3   1 -14   63.29   17.21
   3   1 -14   36.23   15.43
  -3  -1  14   28.61   15.50
  -3  -1  13  195.21   31.56
   3   1 -13  252.26   35.05
   3   1 -13  196.54   29.42
  -3  -1  13  232.55   33.52
  -3  -1  12  230.98   32.54
   3   1 -12  262.95   32.53
  -3  -1  12  219.70   31.00
   3   1 -12  267.86   34.55
  -3  -1  11   88.80   20.20
   3   1 -11   86.48   18.79
   3   1 -11   79.99   17.46
  -3  -1  11   78.06   17.61
  -3  -1  10  100.45   19.28
   3   1 -10  109.81   19.71
   3   1 -10  152.07   22.51
  -3  -1  10  105.59   19.74
  -3  -1   9  119.90   19.97
  -3  -1   9  121.70   19.67
   3   1  -9  168.27   22.95
   3   1  -9  113.22   18.72
  -3  -1   8  264.95   27.27
   3   1  -8  243.03   25.93
   3   1  -8  195.71   23.33
   3   1  -8  264.74   18.66
   3   1  -8  195.07   13.74
  -3  -1   8  227.73   25.40
   3   1  -7   55.52    9.18
  -3  -1   7   69.15   13.99
   3   1  -7   71.23   12.75
  -3  -1   7   43.66   11.55
   3   1  -7   57.65    7.15
   3   1  -7   93.59   15.52
  -3  -1   6  675.48   38.91
   3   1  -6  597.05   35.75
   3   1  -6  617.81   27.10
   3   1  -6  586.12   38.31
   3   1  -6  698.14   33.46
  -3  -1   6  640.56   39.31
   3   1  -5 1078.29   51.01
  -3  -1   5 1065.93   48.30
   3   1  -5 1059.92   45.92
   3   1  -5 1088.98   39.58
   3   1  -5 1111.61   45.72
  -3  -1   5 1063.94   49.64
  -3  -1   4  398.80   25.67
  -3  -1   4  414.22   15.80
   3   1  -4  375.95   26.58
   3   1  -4  388.17   23.18
   3   1  -4  377.95   21.79
   3   1  -4  407.47   25.38
  -3  -1   4  435.61   27.36
   3   1  -3  446.31   20.25
  -3  -1   3  469.97   26.50
   3   1  -3  414.32   26.16
  -3  -1   3  484.07   18.16
   3   1  -3  466.98   27.72
  -3  -1   3  467.81   26.12
   3   1  -3  446.85   24.24
   3   1  -2 3213.20   87.39
  -3  -1   2 3175.63   91.93
   3   1  -2 3027.89   90.78
   3   1  -2 3237.44   96.22
  -3  -1   2 3233.65   83.12
   3   1  -2 3189.75   92.32
  -3  -1   2 3211.93   89.33
   3   1  -1 3323.13   92.57
   3   1  -1 3317.31  101.17
  -3  -1   1 3574.23   93.37
   3   1  -1 3496.15   97.52
  -3  -1   1 3547.31   91.03
   3   1   0 1323.43   51.33
   3   1   0 1296.33   40.66
  -3  -1   0 1350.54   48.30
   3   1   0 1314.75   47.45
   3   1   0 1225.06   50.26
  -3  -1   0 1369.98   40.06
  -3  -1  -1 3003.12   82.56
   3   1   1 2949.98   71.12
   3   1   1 2889.19   90.18
  -3  -1  -1 2877.60   89.98
   3   1   1 2946.87   88.79
   3   1   1 3088.53   95.12
  -3  -1  -2 4678.92  125.14
   3   1   2 4574.14  128.51
   3   1   2 4778.40  129.01
  -3  -1  -2 4766.68  135.19
   3   1   2 4691.95  131.87
   3   1   2 4512.67  136.48
   3   1   3 1588.26   67.69
  -3  -1  -3 1667.61   60.43
   3   1   3 1678.44   58.77
   3   1   3 1635.97   59.94
  -3  -1  -3 1536.64   65.58
   3   1   3 1550.72   64.53
   3   1   3 1587.06   47.51
  -3  -1  -4    2.05    4.35
   3   1   4    5.86    5.79
   3   1   4    3.46    4.40
   3   1   4    4.00    3.34
   3   1   4    7.06    3.69
   3   1   4    3.77    2.47
  -3  -1  -4    0.34    5.13
   3   1   5  778.08   49.07
   3   1   5  824.70   41.16
   3   1   5  840.00   36.31
   3   1   5  810.15   34.14
  -3  -1  -5  727.72   47.26
   3   1   5  760.03   47.24
  -3  -1  -5  769.57   44.73
   3   1   6  727.65   49.05
  -3  -1  -6  751.62   46.79
   3   1   6  748.74   39.96
  -3  -1  -6  596.38   45.25
   3   1   6  731.97   49.54
  -3  -1  -7  111.61   20.00
  -3  -1  -7  124.80   20.04
   3   1   7  132.30   21.55
   3   1   7  113.52   20.15
  -3  -1  -8  253.39   30.29
  -3  -1  -8  247.93   31.52
   3   1   8  251.56   32.18
   3   1   8  262.46   31.26
   3   1   9  407.34   41.30
  -3  -1  -9  457.88   43.24
  -3  -1  -9  410.09   42.44
   3   1   9  348.33   40.51
   3   1  10   28.25   11.85
  -3  -1 -10   32.93   13.46
  -3  -1 -10   37.86   13.38
   3   1  10   16.96   10.06
  -3  -1 -11    0.98    7.13
  -3  -1 -11   -1.42    5.00
  -3  -1 -12   87.94   22.66
  -3  -1 -12   36.36   15.13
  -3  -2  15  255.03   37.60
  -3  -2  15  297.72   42.04
   3   2 -15  258.09   38.93
  -3  -2  15  240.09   38.41
  -3  -2  14   16.63   10.65
   3   2 -14   34.22   14.70
   3   2 -14   59.57   17.36
  -3  -2  14  -11.68   12.12
  -3  -2  14   12.03    8.85
  -3  -2  13  301.00   38.91
   3   2 -13  357.28   39.84
   3   2 -13  331.65   40.36
  -3  -2  13  233.47   34.06
  -3  -2  13  376.80   45.32
  -3  -2  12  318.74   38.65
   3   2 -12  407.40   41.42
   3   2 -12  316.25   37.15
  -3  -2  12  394.81   41.20
   3   2 -11   14.90    8.76
  -3  -2  11   14.62   10.40
   3   2 -11   11.25    8.37
  -3  -2  11   10.27    7.87
  -3  -2  10  548.29   44.71
   3   2 -10  548.44   44.59
   3   2 -10  602.24   46.65
  -3  -2  10  590.85   47.03
  -3  -2   9 1522.47   75.29
   3   2  -9 1612.65   76.25
   3   2  -9 1633.40   78.68
  -3  -2   9 1610.23   78.76
   3   2  -8  175.26   22.95
  -3  -2   8  178.41   22.46
   3   2  -8  186.91   22.25
   3   2  -8  213.95   18.50
  -3  -2   8  235.75   26.17
  -3  -2   7  640.53   40.84
   3   2  -7  665.90   40.37
   3   2  -7  644.04   42.78
   3   2  -7  710.67   36.12
  -3  -2   7  694.57   43.60
  -3  -2   6 1082.42   52.27
   3   2  -6 1084.54   49.91
   3   2  -6 1179.35   56.94
   3   2  -6 1130.08   48.67
  -3  -2   6 1222.44   56.90
  -3  -2   5 1693.93   65.86
  -3  -2   5 1716.33   53.11
   3   2  -5 1887.92   71.46
   3   2  -5 1613.27   60.57
   3   2  -5 1832.58   65.77
  -3  -2   5 1832.08   69.28
  -3  -2   4   -3.46    5.35
  -3  -2   4    2.90    5.49
   3   2  -4    4.17    2.32
   3   2  -4    2.32    5.27
  -3  -2   4    0.78    2.17
   3   2  -4    7.01    4.09
   3   2  -4    2.69    4.39
  -3  -2   3  679.50   34.71
   3   2  -3  724.87   36.26
   3   2  -3  762.21   38.33
  -3  -2   3  696.04   28.50
  -3  -2   3  694.04   34.23
   3   2  -3  723.20   28.68
  -3  -2   2 3303.84   99.88
   3   2  -2 3299.95   98.15
   3   2  -2 3362.98  104.38
  -3  -2   2 3542.27   94.18
  -3  -2   2 3466.93   97.60
   3   2  -2 3636.56   96.96
   3   2  -1  914.70   43.89
   3   2  -1 1012.71   38.55
  -3  -2   1  994.14   39.61
   3   2  -1 1011.99   42.66
   3   2   0   35.64    5.86
  -3  -2   0   43.43    5.21
   3   2   0   36.28    7.76
   3   2   0   42.22    7.26
   3   2   0   31.50    7.91
  -3  -2   0   39.56    7.88
   3   2   1  895.75   30.16
  -3  -2  -1  990.32   34.39
   3   2   1  923.12   43.22
   3   2   1  839.21   44.07
  -3  -2  -1  926.55   43.41
   3   2   1  905.93   39.73
   3   2   2 3131.94   75.82
  -3  -2  -2 3267.65   91.17
   3   2   2 3232.10  106.83
   3   2   2 3161.50   98.65
  -3  -2  -2 3034.45  101.80
   3   2   2 3209.19   98.43
  -3  -2  -3  825.53   38.57
   3   2   3  810.35   40.00
   3   2   3  796.13   47.28
  -3  -2  -3  706.98   43.12
   3   2   3  840.35   43.41
   3   2   3  856.23   34.31
  -3  -2  -4  341.11   25.82
   3   2   4  330.97   30.82
   3   2   4  361.31   24.75
  -3  -2  -4  302.58   28.61
   3   2   4  340.68   28.43
   3   2   4  331.11   21.08
  -3  -2  -5 1312.80   60.34
   3   2   5 1325.45   52.23
   3   2   5 1242.16   66.77
  -3  -2  -5 1228.50   65.33
   3   2   5 1294.59   64.20
   3   2   5 1283.02   50.08
  -3  -2  -6 1782.10   76.13
  -3  -2  -6 1528.00   77.97
   3   2   6 1607.07   77.89
   3   2   6 1501.41   78.17
  -3  -2  -7   41.38   13.54
  -3  -2  -7   27.70   10.87
   3   2   7   17.69    8.77
   3   2   7   35.83   12.69
   3   2   8  473.15   44.35
  -3  -2  -8  512.67   43.55
   3   2   8  519.24   46.49
  -3  -2  -8  489.85   45.48
   3   2   9   94.19   21.24
  -3  -2  -9  153.40   26.78
  -3  -2  -9  140.18   24.18
   3   2   9  154.52   26.49
  -3  -2 -10   67.44   17.96
   3   2  10   70.62   19.97
   3   2  10   80.43   20.09
  -3  -2 -10   63.39   17.73
   3   2  11  116.22   24.66
  -3  -2 -11  124.60   25.62
   3   2  11   82.79   22.76
  -3  -2 -11   63.99   18.12
  -3  -3  15   -5.90    7.67
  -3  -3  15   -4.95    9.53
   3   3 -15   13.26   10.41
  -3  -3  15   10.36   10.29
  -3  -3  14  233.82   35.72
  -3  -3  14  168.73   29.75
   3   3 -14  153.95   28.62
   3   3 -14  211.09   31.92
  -3  -3  14  176.15   31.46
   3   3 -13  108.07   23.14
   3   3 -13  130.80   25.75
  -3  -3  13  169.71   29.20
  -3  -3  13  192.93   31.59
  -3  -3  13  158.23   28.13
  -3  -3  12  139.35   24.50
   3   3 -12   77.20   19.28
   3   3 -12   96.12   20.11
  -3  -3  12  117.04   22.43
  -3  -3  11  175.37   26.79
  -3  -3  11  195.85   28.40
   3   3 -11  159.16   25.17
  -3  -3  10  894.97   58.43
   3   3 -10  943.77   59.14
   3   3 -10 1044.48   63.74
  -3  -3  10  946.58   61.64
  -3  -3   9 1165.69   63.80
   3   3  -9 1101.95   61.17
   3   3  -9 1239.74   53.08
   3   3  -9 1277.44   68.80
  -3  -3   9 1138.40   65.41
  -3  -3   8    0.02    6.32
  -3  -3   8   -2.92    6.66
   3   3  -8    2.23    7.03
   3   3  -8    6.96    5.92
   3   3  -8    4.34    4.32
  -3  -3   7 2236.92   87.06
   3   3  -7 2228.48   90.80
   3   3  -7 2430.22   82.93
   3   3  -7 2287.63   84.31
  -3  -3   7 2292.44   91.09
  -3  -3   6 4391.21  136.63
   3   3  -6 4666.29  144.32
   3   3  -6 4410.17  131.46
   3   3  -6 4925.25  137.40
  -3  -3   6 4729.53  142.95
   3   3  -5  134.08    8.74
  -3  -3   5  157.38   17.40
  -3  -3   5  172.39   14.63
   3   3  -5  162.14   18.92
   3   3  -5  184.01   18.90
   3   3  -5  150.63   14.46
  -3  -3   5  155.01   18.05
  -3  -3   4  689.08   37.46
   3   3  -4  700.14   39.35
   3   3  -4  704.52   39.47
   3   3  -4  740.78   30.93
  -3  -3   4  720.57   38.75
  -3  -3   4  754.49   33.12
   3   3  -4  754.04   29.06
  -3  -3   3 3292.04  103.70
   3   3  -3 3405.85  105.62
   3   3  -3 3337.33  108.21
  -3  -3   3 3544.54   98.77
  -3  -3   3 3510.22  105.10
   3   3  -3 3566.83   96.82
   3   3  -2 1065.27   50.76
  -3  -3   2 1092.40   47.46
  -3  -3   2 1147.18   45.15
   3   3  -2 1135.51   45.90
  -3  -3   1   32.23    8.01
   3   3  -1   36.47    7.94
   3   3  -1   22.98    8.20
  -3  -3   0 1345.54   36.81
   3   3   0 1235.58   55.97
   3   3   0 1295.33   47.15
  -3  -3   0 1282.56   53.97
   3   3   0 1300.55   56.61
  -3  -3  -1 1593.32   47.88
   3   3   1 1527.25   63.42
   3   3   1 1592.21   56.69
  -3  -3  -1 1510.67   62.93
   3   3   1 1490.70   65.92
  -3  -3  -2  336.69   20.31
   3   3   2  299.35   24.81
   3   3   2  305.47   27.91
   3   3   2  329.49   24.12
  -3  -3  -2  340.38   28.13
   3   3   3   81.66   15.82
   3   3   3   63.10    9.71
  -3  -3  -3   68.58   10.15
   3   3   3   73.47   12.11
   3   3   3   59.75   11.14
  -3  -3  -3   88.17   15.01
  -3  -3  -4  842.63   42.59
   3   3   4  846.47   43.12
   3   3   4  874.70   48.15
  -3  -3  -4  825.23   50.87
   3   3   4  790.81   51.86
   3   3   4  738.74   38.10
  -3  -3  -5  821.74   45.75
   3   3   5  838.90   42.37
   3   3   5  837.92   41.80
   3   3   5  799.22   49.59
  -3  -3  -5  824.41   53.52
   3   3   5  762.41   53.33
  -3  -3  -6  179.84   22.04
   3   3   6  163.12   22.86
   3   3   6  186.97   26.84
  -3  -3  -6  163.82   24.51
  -3  -3  -7  120.91   19.23
   3   3   7  109.17   20.46
   3   3   7   80.62   18.67
  -3  -3  -7  128.24   23.20
  -3  -3  -8  328.14   34.02
   3   3   8  294.89   35.02
   3   3   8  242.77   33.00
  -3  -3  -8  273.83   35.01
   3   3   9  113.27   23.18
  -3  -3  -9   99.67   20.10
   3   3   9  121.04   24.10
  -3  -3  -9  103.74   22.83
   3   3  10  -19.75   12.07
  -3  -3 -10  -14.83   10.42
   3   3  10    4.10    7.77
  -3  -3 -11  213.54   35.58
   3   3  11  204.25   32.83
   3   3  11  201.46   34.90
  -3  -4  15  231.50   37.32
   3   4 -15  298.41   40.53
  -3  -4  15  271.38   39.23
   3   4 -15  240.97   37.60
  -3  -4  15  328.13   43.97
  -3  -4  14  112.20   24.79
  -3  -4  14  177.38   30.67
   3   4 -14  168.39   29.67
   3   4 -14  170.82   30.19
  -3  -4  14  163.37   29.49
  -3  -4  13   38.59   14.55
  -3  -4  13   39.75   14.89
   3   4 -13   33.70   13.43
  -3  -4  13   21.54   12.98
   3   4 -13   24.35   11.65
  -3  -4  12    5.72    8.39
  -3  -4  12    2.10    8.09
   3   4 -12    6.29   10.93
   3   4 -12    9.33    8.26
  -3  -4  12   11.51   11.15
  -3  -4  11  288.56   33.47
   3   4 -11  295.95   35.34
   3   4 -11  257.02   31.76
  -3  -4  11  262.33   33.72
   3   4 -10  534.57   46.22
   3   4 -10  490.32   41.42
  -3  -4  10  565.01   47.17
  -3  -4  10  546.83   44.07
   3   4  -9   70.39   16.31
  -3  -4   9   79.50   17.52
   3   4  -9   84.60   15.59
  -3  -4   9   75.51   15.58
   3   4  -9   75.08   13.08
  -3  -4   8  657.66   43.96
   3   4  -8  701.79   48.75
   3   4  -8  705.62   43.41
   3   4  -8  694.18   41.14
  -3  -4   8  643.96   46.15
  -3  -4   7 1529.91   68.42
   3   4  -7 1557.50   74.00
   3   4  -7 1679.31   68.66
  -3  -4   7 1473.88   71.34
   3   4  -7 1530.40   64.45
  -3  -4   6 1905.39   74.40
  -3  -4   6 1832.15   67.07
   3   4  -6 1919.73   79.92
   3   4  -6 1948.76   75.98
   3   4  -6 1803.41   66.71
  -3  -4   6 1841.78   77.62
   3   4  -6 1792.66   49.13
  -3  -4   5    5.07    5.23
  -3  -4   5    1.14    3.33
  -3  -4   5    3.40    4.28
   3   4  -5   -1.26    5.61
   3   4  -5    5.92    3.44
   3   4  -5    5.52    3.02
   3   4  -5    2.04    3.88
  -3  -4   4 1031.52   48.42
   3   4  -4 1009.63   36.29
   3   4  -4  989.76   50.29
   3   4  -4 1070.21   52.87
  -3  -4   4  970.37   49.43
  -3  -4   4 1015.05   44.58
   3   4  -4 1029.37   40.76
   3   4  -3 3653.54  118.64
   3   4  -3 3770.44  107.24
  -3  -4   3 3669.66  113.62
  -3  -4   3 3570.13  107.96
  -3  -4   3 3537.40  111.65
   3   4  -2  624.62   39.55
  -3  -4   2  652.26   35.39
   3   4  -2  620.93   35.17
   3   4  -1  490.63   34.70
   3   4  -1  557.48   34.63
  -3  -4   1  505.03   32.14
   3   4   0 2553.92   94.64
   3   4   0 2709.64   77.95
  -3  -4   0 2607.50   91.30
   3   4   0 2567.73   94.14
  -3  -4  -1  590.98   21.61
   3   4   1  588.86   38.69
   3   4   1  618.65   31.25
  -3  -4  -1  547.61   36.99
   3   4   1  618.94   41.24
   3   4   2   37.71   11.19
  -3  -4  -2   33.54   10.03
  -3  -4  -2   38.09    6.17
   3   4   2   46.96    9.12
   3   4   2   25.95    8.96
  -3  -4  -3  791.77   37.14
   3   4   3  851.59   46.68
   3   4   3  828.91   53.23
   3   4   3  767.87   42.48
  -3  -4  -3  778.97   49.52
   3   4   4  109.86   14.81
   3   4   4   90.53   18.44
  -3  -4  -4   82.56   12.50
   3   4   4   91.64   15.41
   3   4   4   95.77   14.97
  -3  -4  -4   98.25   17.93
   3   4   5   36.27   12.85
   3   4   5   28.24    7.65
   3   4   5   41.38   10.11
  -3  -4  -5   36.92   12.16
   3   4   5   50.95   12.62
   3   4   6   51.90   16.16
   3   4   6  102.63   18.80
  -3  -4  -6   65.83   17.11
   3   4   7   56.22   15.77
   3   4   7   97.33   19.09
  -3  -4  -7   84.12   19.65
   3   4   8   96.70   21.22
   3   4   8   99.01   21.94
  -3  -4  -8   86.02   21.22
   3   4   9    6.10    6.58
   3   4   9   -5.74    7.02
  -3  -4  -9    8.25   10.28
   3   4  10  182.14   31.85
   3   4  10  115.24   24.99
  -3  -4 -10  117.74   25.67
   3   4  11   68.11   19.90
  -3  -5  15  238.25   37.37
  -3  -5  15  176.32   32.32
   3   5 -15  252.00   38.39
   3   5 -15  210.45   35.11
  -3  -5  15  172.01   32.53
  -3  -5  14  136.47   27.78
  -3  -5  14  129.59   26.78
   3   5 -14  153.21   28.92
   3   5 -14  150.31   28.24
  -3  -5  14  127.56   26.22
   3   5 -13   13.63    7.79
   3   5 -13   15.38    9.26
  -3  -5  13   53.43   17.34
  -3  -5  13    4.59    7.37
  -3  -5  13   43.70   16.36
  -3  -5  12  482.51   46.54
   3   5 -12  495.88   46.42
   3   5 -12  511.85   49.58
  -3  -5  12  486.95   45.83
  -3  -5  12  477.28   48.47
  -3  -5  11  693.72   52.74
   3   5 -11  738.02   53.88
   3   5 -11  619.96   53.73
  -3  -5  11  649.47   50.54
  -3  -5  11  666.21   54.96
  -3  -5  10  156.33   23.11
   3   5 -10  120.26   22.25
  -3  -5  10  103.20   21.09
   3   5 -10  123.80   20.57
  -3  -5   9  131.41   20.63
   3   5  -9  116.36   21.46
   3   5  -9  143.66   20.33
  -3  -5   9  131.01   22.34
   3   5  -9  132.24   18.88
  -3  -5   8  237.92   26.19
   3   5  -8  304.95   32.51
   3   5  -8  207.75   23.71
   3   5  -8  295.35   27.00
  -3  -5   8  249.19   29.04
   3   5  -7  460.55   39.30
  -3  -5   7  498.82   36.38
   3   5  -7  599.57   40.62
   3   5  -7  543.88   34.31
  -3  -5   7  466.14   38.66
  -3  -5   7  527.82   34.35
  -3  -5   6   80.10   15.55
  -3  -5   6   78.99   13.52
   3   5  -6   56.05   13.98
   3   5  -6   72.31   10.72
   3   5  -6   60.82   12.73
  -3  -5   6   67.07   12.20
   3   5  -5   26.50    6.30
  -3  -5   5   15.99    7.20
   3   5  -5   16.32    4.78
   3   5  -5   43.09   10.49
  -3  -5   5   23.63    7.98
  -3  -5   5   25.88    9.73
   3   5  -4  917.92   41.91
   3   5  -4  837.99   49.54
   3   5  -4  888.19   31.10
  -3  -5   4  815.93   44.75
  -3  -5   4  827.42   47.55
  -3  -5   4  894.32   45.29
   3   5  -3 2586.94   97.97
  -3  -5   3 2600.76   89.73
  -3  -5   3 2436.07   88.79
   3   5  -3 2610.97   87.73
   3   5  -2  307.34   29.06
  -3  -5   2  312.45   26.92
   3   5  -2  358.04   28.06
   3   5  -1  636.63   42.90
  -3  -5   1  666.92   40.59
   3   5  -1  701.38   42.53
   3   5   0 1089.52   57.97
   3   5   0 1159.30   41.69
  -3  -5   0 1075.20   55.52
   3   5   0 1029.97   56.63
  -3  -5  -1   15.62    8.61
   3   5   1   18.91    9.06
   3   5   1   25.46    6.14
   3   5   1   24.75    9.11
   3   5   2    5.56    7.02
   3   5   2    6.37    4.55
  -3  -5  -2    5.15    4.91
   3   5   2    7.40    5.30
   3   5   3  862.37   50.59
   3   5   3  867.49   45.13
  -3  -5  -3  710.97   49.99
   3   5   3  771.68   54.90
  -3  -5  -4  127.20   21.74
   3   5   4  169.50   21.53
   3   5   4  174.89   26.19
   3   5   4  171.77   20.42
  -3  -5  -5   70.84   16.36
   3   5   5   70.02   17.96
   3   5   5   67.91   13.50
   3   5   5   57.93   12.97
   3   5   6  420.33   38.25
  -3  -5  -6  394.11   41.52
   3   5   6  471.89   46.61
  -3  -5  -7   62.22   18.38
   3   5   7   49.67   14.16
   3   5   7   67.89   18.92
  -3  -5  -8   23.43   11.99
   3   5   8   19.66   11.86
   3   5   8   17.48    9.96
   3   5   9  236.12   37.01
  -3  -5  -9  204.91   33.47
   3   5   9  309.06   39.09
   3   5  10  122.04   27.39
   3   6 -14  207.37   34.85
   3   6 -14  181.36   30.97
  -3  -6  14  214.38   34.92
  -3  -6  13  -11.72   10.02
  -3  -6  13    3.38    8.03
   3   6 -13   -9.83    8.48
   3   6 -13    1.47    5.93
  -3  -6  12  899.60   63.76
   3   6 -12  945.80   70.65
   3   6 -12  871.76   62.41
  -3  -6  12  799.18   64.95
  -3  -6  11  553.25   47.40
   3   6 -11  620.83   54.73
   3   6 -11  576.06   47.42
  -3  -6  11  636.17   55.08
  -3  -6  10   10.56    7.93
   3   6 -10   16.78   10.55
   3   6 -10   12.48    8.13
  -3  -6  10    4.25    7.82
   3   6  -9  445.00   35.86
   3   6  -9  427.08   42.03
   3   6  -9  378.71   34.82
  -3  -6   9  423.17   36.83
  -3  -6   9  391.71   39.83
  -3  -6   8  821.18   50.78
   3   6  -8  782.67   56.02
   3   6  -8  763.79   50.25
   3   6  -8  820.88   46.36
  -3  -6   8  726.53   53.44
  -3  -6   7  639.48   42.83
   3   6  -7  593.47   46.60
   3   6  -7  627.67   45.26
   3   6  -7  603.16   36.07
  -3  -6   7  625.05   47.52
  -3  -6   7  665.86   42.47
  -3  -6   6   37.17   10.33
  -3  -6   6   36.37   10.51
   3   6  -6   29.81    6.88
  -3  -6   6   25.80   10.18
   3   6  -6   32.14   10.94
   3   6  -5  310.30   31.31
  -3  -6   5  298.24   26.75
  -3  -6   5  278.20   28.90
  -3  -6   5  312.18   27.65
   3   6  -5  339.35   25.07
  -3  -6   4  919.41   49.69
   3   6  -4 1018.69   58.33
  -3  -6   4  970.50   51.88
   3   6  -4  928.76   47.49
  -3  -6   3   93.33   15.66
  -3  -6   3   89.64   14.70
   3   6  -3   82.82   14.30
   3   6  -3   78.00   15.82
   3   6  -2   38.48   10.74
   3   6  -2   45.29   13.22
  -3  -6   2   31.41    8.73
   3   6  -1  313.19   31.60
  -3  -6   1  346.34   31.48
   3   6  -1  319.35   30.32
   3   6   0  280.50   30.09
  -3  -6   0  353.35   31.93
   3   6   0  347.31   33.19
   3   6   1  584.18   43.68
  -3  -6  -1  503.55   40.41
   3   6   1  534.39   44.03
  -3  -6  -2   15.97    9.04
   3   6   2   33.23   12.71
   3   6   2   16.02    7.27
   3   6   3  543.91   42.10
  -3  -6  -3  504.57   43.57
   3   6   3  459.45   43.97
  -3  -6  -4   76.60   18.55
   3   6   4   61.43   17.16
   3   6   4   50.04   13.42
  -3  -6  -5  211.72   30.29
   3   6   5  149.03   26.43
  -3  -6  -6  399.97   43.63
   3   6   6  487.99   50.06
  -3  -6  -7   27.23   13.56
   3   6   7   34.21   15.67
  -3  -6  -8  102.63   24.16
   3   6   8  138.17   29.31
  -3  -6  -9  366.11   46.67
   3   6   9  384.25   49.55
  -3  -7  14   49.67   17.48
   3   7 -14   21.02   12.44
  -3  -7  13  246.44   37.17
   3   7 -13  274.63   39.96
   3   7 -12  603.23   57.32
  -3  -7  12  502.74   52.12
  -3  -7  11  575.96   48.16
   3   7 -11  502.00   51.04
  -3  -7  11  559.33   52.96
  -3  -7  10    1.81    6.51
  -3  -7  10    5.68    7.14
   3   7 -10   -0.94    6.40
   3   7 -10   21.02    9.64
  -3  -7   9  652.15   47.81
   3   7  -9  568.17   51.43
   3   7  -9  726.07   51.59
  -3  -7   9  642.55   53.64
  -3  -7   8 1493.84   73.89
   3   7  -8 1655.92   81.72
   3   7  -8 1455.09   82.59
  -3  -7   8 1564.25   84.04
  -3  -7   7  151.34   23.56
  -3  -7   7  182.17   22.93
   3   7  -7  178.95   25.71
   3   7  -7  174.04   26.67
  -3  -7   7  161.85   22.17
  -3  -7   6  842.49   49.84
   3   7  -6  849.28   56.80
  -3  -7   6  702.22   51.86
  -3  -7   6  836.51   51.52
   3   7  -5  801.96   55.34
  -3  -7   5  843.60   54.99
  -3  -7   5  811.32   51.00
  -3  -7   5  811.30   48.35
   3   7  -5  871.62   46.96
  -3  -7   4  494.10   36.53
   3   7  -4  487.87   42.46
  -3  -7   4  470.90   37.62
   3   7  -4  473.76   35.09
  -3  -7   3  115.48   17.81
   3   7  -3  112.88   17.98
   3   7  -3  140.96   22.76
  -3  -7   3  124.15   19.10
   3   7  -2  377.71   37.81
  -3  -7   2  462.67   38.07
   3   7  -2  456.52   37.70
   3   7  -1  180.87   24.41
  -3  -7   1  123.86   19.95
   3   7  -1  177.04   25.57
   3   7   0   18.26    9.54
  -3  -7   0   15.43    8.45
   3   7   0   23.27   11.08
   3   7   1   11.44    9.50
   3   7   1    0.69    6.94
  -3  -7  -1   -4.19    7.78
   3   7   2  455.21   41.66
  -3  -7  -2  521.35   45.40
   3   7   2  503.79   46.74
  -3  -7  -3  108.57   20.95
   3   7   3  101.32   21.73
   3   7   3   86.69   18.34
  -3  -7  -4   18.40    9.12
   3   7   4   14.84   11.22
   3   7   4   31.69   11.64
  -3  -7  -5  138.02   26.38
   3   7   5  103.67   24.12
  -3  -7  -6   33.01   13.91
   3   7   6   27.69   13.62
   3   7   7   17.01   11.87
  -3  -7  -7   10.20    9.93
   3   8 -13  423.83   51.03
  -3  -8  13  365.25   46.55
   3   8 -12  296.02   40.98
  -3  -8  12  278.61   39.89
  -3  -8  11   59.89   17.38
   3   8 -11   43.26   16.43
  -3  -8  10  137.22   26.21
   3   8 -10  102.62   23.67
   3   8 -10  145.89   23.99
   3   8  -9  608.60   54.83
   3   8  -9  629.20   50.85
  -3  -8   9  518.92   49.95
  -3  -8   8  415.14   39.07
   3   8  -8  452.68   45.53
   3   8  -8  434.89   42.83
  -3  -8   8  510.45   47.35
  -3  -8   8  507.32   40.78
  -3  -8   7    0.20    6.18
  -3  -8   7    7.66    6.02
   3   8  -7    1.98    5.56
  -3  -8   7    5.34    6.20
  -3  -8   6  242.94   27.04
  -3  -8   6  257.35   29.70
   3   8  -6  269.59   33.27
  -3  -8   6  316.79   35.17
   3   8  -5  848.25   60.92
  -3  -8   5  960.63   54.91
  -3  -8   5  954.09   62.21
  -3  -8   5  910.14   57.67
   3   8  -4   42.05   12.32
  -3  -8   4   40.12   10.74
  -3  -8   4   44.26   13.16
   3   8  -4   53.86   15.74
   3   8  -3  325.75   36.71
  -3  -8   3  278.15   29.00
  -3  -8   3  319.62   33.31
   3   8  -3  284.07   30.62
  -3  -8   2  849.80   53.07
   3   8  -2  801.36   59.77
  -3  -8   2  901.07   58.41
   3   8  -2  924.37   59.31
   3   8  -1  100.61   19.90
  -3  -8   1   83.84   17.96
   3   8  -1   82.06   18.74
   3   8   0  280.95   34.45
   3   8   0  243.94   31.78
  -3  -8   0  263.04   32.28
   3   8   1  682.59   54.62
  -3  -8  -1  745.69   56.50
   3   8   1  728.53   58.04
   3   8   2  226.37   33.78
   3   8   2  270.73   33.98
  -3  -8  -2  226.95   32.28
   3   8   3  390.48   40.97
  -3  -8  -3  353.67   40.40
   3   8   3  408.09   45.69
   3   8   4  198.23   33.30
  -3  -8  -4  208.82   32.15
   3   8   5   98.14   24.81
  -3  -8  -5  110.51   24.41
   3   8   6    8.16    9.59
  -3  -8  -6  -19.08   12.03
  -3  -9  12   33.69   16.45
   3   9 -12   35.04   17.47
  -3  -9  11   94.18   22.68
   3   9 -11  142.68   30.19
   3   9 -10  294.23   39.98
   3   9 -10  350.03   40.07
  -3  -9  10  327.54   42.00
   3   9  -9   92.07   22.29
  -3  -9   9  117.00   24.67
   3   9  -9  152.61   26.34
  -3  -9   8   56.43   16.45
   3   9  -8   43.77   15.59
  -3  -9   8   17.77   11.24
   3   9  -8   47.16   15.74
  -3  -9   7   64.75   17.42
  -3  -9   7   57.04   16.31
   3   9  -7   59.27   17.41
  -3  -9   6   59.94   15.66
  -3  -9   6   91.47   20.85
   3   9  -6   68.79   18.49
  -3  -9   5  285.94   30.00
   3   9  -5  314.43   38.29
  -3  -9   5  319.14   37.63
  -3  -9   5  269.88   32.76
   3   9  -4    6.83    8.54
  -3  -9   4    7.98    8.11
  -3  -9   4    3.24    5.44
   3   9  -4   12.78   10.08
   3   9  -3  253.80   34.62
  -3  -9   3  333.17   36.54
  -3  -9   3  322.76   32.44
   3   9  -3  349.00   36.22
  -3  -9   2  156.73   25.81
   3   9  -2  161.34   26.20
   3   9  -2  193.68   30.26
  -3  -9   2  205.41   25.99
   3   9  -1   -1.05    6.56
  -3  -9   1    7.65    8.84
   3   9  -1   -0.78    7.06
  -3  -9   0  217.20   31.82
   3   9   0  272.22   36.44
   3   9   0  296.31   37.36
   3   9   1  608.75   54.41
  -3  -9  -1  519.85   49.95
   3   9   1  584.25   55.36
   3   9   2   16.52   10.68
   3   9   2   10.39    8.04
  -3  -9  -2    7.22    8.87
   3   9   3  417.94   44.77
  -3  -9  -3  322.43   41.68
  -3  -9  -4  538.29   55.63
   3   9   4  561.71   59.45
   3   9   5   65.36   21.65
  -3  -9  -5   23.73   14.13
  -3 -10  10  280.96   40.74
   3  10 -10  201.73   35.58
   3  10 -10  205.22   32.48
   3  10  -9   30.70   14.18
   3  10  -9   20.08   11.34
  -3 -10   9   46.54   17.32
  -3 -10   8  154.95   26.97
  -3 -10   8  114.48   24.64
   3  10  -8  156.69   28.92
  -3 -10   7  262.22   37.19
  -3 -10   7  304.65   37.34
   3  10  -7  295.65   39.16
  -3 -10   6  187.00   30.80
  -3 -10   6  150.32   26.36
   3  10  -6  195.49   32.17
  -3 -10   5   30.47   11.66
   3  10  -5   56.07   18.19
  -3 -10   5   24.87   12.34
  -3 -10   4   64.33   18.02
   3  10  -4   38.35   17.56
   3  10  -3    8.48    8.26
  -3 -10   3    1.00    6.95
   3  10  -3    4.17    7.01
  -3 -10   2   -3.26    8.60
   3  10  -2   13.25    9.83
   3  10  -2    2.90    6.59
   3  10  -1   50.16   17.88
   3  10  -1   43.97   15.70
  -3 -10   1   55.72   16.39
   3  10   0   87.22   21.80
   3  10   0  115.83   25.17
  -3 -10   0   89.98   22.51
   3  10   1  140.96   28.05
  -3 -10  -1  133.66   27.40
   3  10   1  131.09   27.29
   3  10   2   76.65   23.02
  -3 -10  -2   87.66   22.67
   3  10   2   81.00   22.27
   3  10   3  177.12   31.56
  -3 -10  -3  156.38   30.72
   3  10   3  196.76   35.61
   3  11 -10  214.16   34.89
   3  11  -9    5.12    9.59
   3  11  -8  413.04   49.28
  -3 -11   8  457.47   51.90
  -3 -11   8  316.51   41.29
  -3 -11   7  244.95   35.67
  -3 -11   7  263.24   38.94
   3  11  -7  219.36   36.00
  -3 -11   6    7.56    9.35
   3  11  -6  -15.48   11.62
  -3 -11   6   20.80   13.14
  -3 -11   5  306.26   40.30
   3  11  -5  252.20   39.07
  -3 -11   5  346.25   43.40
   3  11  -4  307.53   42.68
  -3 -11   4  267.38   37.55
  -3 -11   3    9.05    8.39
   3  11  -3    1.19    7.65
   3  11  -2   97.62   22.88
  -3 -11   2   90.49   23.24
   3  11  -2   56.49   19.44
  -3 -11   1  126.71   26.89
   3  11  -1  135.30   27.99
   3  11  -1  110.54   26.33
   3  11   0   38.32   16.99
   3  11   0   88.95   23.52
  -3 -11   0   54.90   18.22
   3  11   1   65.08   19.75
   3  11   1   97.61   23.70
   3  11   2  117.04   27.38
   3  12  -2  417.88   50.42
   4 -12  -3   40.83   15.47
   4 -12  -2  314.56   41.87
   4 -12  -1   45.12   16.71
  -4  12   1   98.74   26.16
   4 -12  -1   48.06   17.50
  -4  12   0   13.13   10.62
   4 -12   0   -4.49    7.88
   4 -12   0   15.96    9.13
   4 -12   1  217.55   34.72
  -4  12  -1  226.83   37.50
  -4  12  -2   63.96   19.76
   4 -12   2  127.64   25.73
  -4  12  -3   10.77   11.12
   4 -12   3  -13.06   10.20
  -4  12  -4  134.91   28.82
   4 -12   4  153.41   29.58
   4 -12   5   13.00   10.77
  -4  11   6  430.85   50.48
  -4  11   5  270.73   39.48
   4 -11  -4   46.66   15.96
  -4  11   4   39.31   15.29
  -4  11   4   41.84   16.13
   4 -11  -4   49.67   16.87
   4 -11  -3  263.73   36.00
   4 -11  -3  306.52   41.42
  -4  11   3  302.69   42.54
   4 -11  -2  316.49   39.57
   4 -11  -2  391.91   45.70
  -4  11   2  266.37   39.34
   4 -11  -1  188.63   30.30
  -4  11   1  241.58   37.79
   4 -11  -1  234.17   34.68
  -4  11   0   44.32   17.68
   4 -11   0   96.91   22.31
   4 -11   0  110.80   23.74
  -4  11  -1  493.36   52.76
   4 -11   1  475.66   47.74
  -4  11  -2   20.90   11.48
   4 -11   2   45.65   15.31
   4 -11   2   56.11   16.96
   4 -11   3  179.01   28.20
   4 -11   3  150.35   27.38
  -4  11  -3  149.12   29.34
  -4  11  -4  290.23   40.20
   4 -11   4  382.17   44.61
  -4  11  -5  132.69   26.99
   4 -11   5   73.35   20.29
  -4  11  -6   17.72   10.30
  -4  11  -6   22.23   12.11
   4 -11   6   36.07   15.74
  -4  11  -7  190.57   31.06
  -4  11  -7  238.72   35.41
  -4  11  -8  146.68   28.02
  -4  10   7  150.47   30.31
   4 -10  -7  114.28   25.73
  -4  10   6  282.64   39.83
   4 -10  -6  237.20   36.30
  -4  10   6  266.98   38.19
  -4  10   5    8.80    8.42
   4 -10  -5   26.13   13.35
  -4  10   5   26.19   13.73
   4 -10  -4   73.31   18.41
  -4  10   4   73.13   19.59
  -4  10   4   61.65   18.57
   4 -10  -4   47.42   16.03
   4 -10  -3  129.24   23.63
  -4  10   3  131.09   25.10
  -4  10   3   94.80   24.35
   4 -10  -3  122.55   24.36
   4 -10  -2  101.28   20.81
   4 -10  -2   75.31   19.42
  -4  10   2   79.83   22.79
   4 -10  -1   13.73    9.67
  -4  10   1   10.46   12.03
   4 -10  -1   10.60    8.63
   4 -10   0  329.66   37.62
   4 -10   0  295.62   32.56
   4 -10   0  285.37   35.32
  -4  10   0  207.14   32.73
   4 -10   1  229.17   29.96
  -4  10  -1  210.67   33.11
   4 -10   1  256.29   32.80
   4 -10   2  115.43   21.58
   4 -10   2  104.15   21.44
  -4  10  -2  133.09   21.93
  -4  10  -2  103.18   22.60
  -4  10  -3  228.12   34.06
  -4  10  -3  258.65   31.61
   4 -10   3  345.98   39.11
   4 -10   3  306.57   34.81
  -4  10  -4  448.21   42.80
   4 -10   4  465.43   47.15
  -4  10  -4  440.42   46.99
  -4  10  -5  118.26   24.62
  -4  10  -5  146.12   25.02
   4 -10   5  118.42   24.87
  -4  10  -6  403.25   44.01
  -4  10  -6  374.96   41.31
   4 -10   6  303.21   40.96
  -4  10  -7  515.72   49.87
  -4  10  -7  551.62   52.09
   4 -10   7  547.23   56.64
  -4  10  -8  211.08   33.43
   4 -10   8  242.66   38.63
  -4  10  -9   34.72   14.48
  -4   9   9   15.19   11.90
   4  -9  -9   10.54    9.36
  -4   9   8   64.70   19.30
   4  -9  -8   66.27   19.39
  -4   9   7  631.58   56.05
   4  -9  -7  687.50   60.23
  -4   9   7  590.14   57.78
  -4   9   6   19.62   12.46
   4  -9  -6   40.97   16.06
  -4   9   6   34.38   15.56
  -4   9   5  157.08   28.11
   4  -9  -5  209.36   28.08
  -4   9   5  138.49   26.32
   4  -9  -5  174.44   29.07
   4  -9  -4  163.18   24.62
  -4   9   4  245.61   33.83
  -4   9   4  179.48   28.96
   4  -9  -4  265.17   34.70
   4  -9  -3   -6.68    6.82
  -4   9   3   -2.05    7.18
   4  -9  -3   10.01    8.65
  -4   9   3   13.45   12.51
   4  -9  -2   37.84   12.22
  -4   9   2   16.49    9.79
  -4   9   2   35.14   14.16
   4  -9  -2   44.75   14.60
   4  -9  -1  163.58   25.61
   4  -9  -1  144.76   23.10
   4  -9  -1  163.12   21.88
  -4   9   1  116.56   23.59
   4  -9   0  348.94   36.85
   4  -9   0  304.93   31.73
  -4   9   0  290.52   36.07
   4  -9   0  310.21   34.25
   4  -9   1  -11.44    7.84
  -4   9  -1   -2.98    6.38
   4  -9   1    2.05    4.65
   4  -9   2   53.59   14.60
  -4   9  -2   39.11   13.98
   4  -9   2   70.86   16.49
   4  -9   3  290.33   31.97
  -4   9  -3  265.10   30.76
   4  -9   3  277.94   33.76
  -4   9  -3  241.86   32.96
   4  -9   4  221.72   27.36
  -4   9  -4  169.39   25.06
  -4   9  -4  201.77   30.12
   4  -9   4  184.65   28.65
  -4   9  -5    0.10    4.51
   4  -9   5    8.36    8.70
  -4   9  -5   16.65   11.50
  -4   9  -6  277.50   34.74
  -4   9  -6  361.68   38.68
   4  -9   6  309.55   39.37
  -4   9  -7  382.04   42.08
   4  -9   7  397.45   46.10
  -4   9  -8  207.26   32.20
   4  -9   8  138.43   27.84
  -4   9  -9  239.06   35.78
   4  -9   9  199.27   34.94
  -4   8  10  305.34   41.82
  -4   8  10  286.96   41.65
   4  -8 -10  340.78   42.07
  -4   8   9    7.48   11.11
   4  -8  -9   -7.43    8.63
  -4   8   8   85.65   21.39
   4  -8  -8   62.94   18.42
  -4   8   7  395.16   44.90
  -4   8   7  362.81   39.88
   4  -8  -7  331.91   38.74
  -4   8   6   -5.72    7.80
  -4   8   6   -2.28    6.86
   4  -8  -6   -3.87    8.97
   4  -8  -5  159.43   22.59
  -4   8   5  154.15   25.58
  -4   8   5  152.42   24.85
   4  -8  -5  115.73   22.64
   4  -8  -4  234.71   31.54
   4  -8  -4  239.49   27.65
  -4   8   4  256.90   31.86
  -4   8   4  279.69   33.78
  -4   8   3   40.97   12.96
  -4   8   3   37.07   12.18
   4  -8  -3   49.60   14.49
   4  -8  -3   45.43   12.43
  -4   8   2  159.31   23.86
  -4   8   2  115.04   21.64
   4  -8  -2  184.27   21.28
   4  -8  -2  141.25   20.91
   4  -8  -2  199.08   27.19
   4  -8  -1 1196.18   60.83
   4  -8  -1 1111.56   66.86
   4  -8  -1 1147.95   64.29
  -4   8   1 1204.77   71.39
  -4   8   1 1279.97   69.01
   4  -8   0    1.65    6.48
  -4   8   0    1.69    7.70
   4  -8   0   -2.03    6.89
   4  -8   0   -3.19    5.00
   4  -8   1  363.15   34.22
  -4   8  -1  379.85   38.17
   4  -8   1  407.65   37.34
   4  -8   2  798.64   54.70
  -4   8  -2  776.99   56.61
  -4   8  -3  145.36   22.30
   4  -8   3  151.67   23.74
  -4   8  -3  135.01   22.90
   4  -8   3  161.58   22.76
   4  -8   4    2.46    7.02
  -4   8  -4    5.84    7.24
   4  -8   4   -1.18    6.49
  -4   8  -4  -11.02    8.02
  -4   8  -5  143.81   23.62
  -4   8  -5  115.66   21.37
   4  -8   5  135.56   23.77
  -4   8  -6  182.06   26.28
   4  -8   6  180.16   28.89
  -4   8  -6  172.61   26.77
  -4   8  -7  138.24   25.02
   4  -8   7  181.43   30.00
  -4   8  -8   13.68   10.24
   4  -8   8   19.27   11.86
  -4   8  -9  492.23   51.19
   4  -8   9  445.89   50.31
  -4   8 -10  424.07   49.30
   4  -8  10  453.63   51.86
  -4   7  11  125.82   26.82
  -4   7  10   26.85   13.58
  -4   7  10    3.17    7.47
   4  -7 -10    9.65    8.54
   4  -7 -10    0.12    5.64
  -4   7   9   19.22   11.35
   4  -7  -9   11.55    9.42
   4  -7  -9    2.18    5.98
   4  -7  -8  278.71   36.36
  -4   7   8  270.17   31.52
   4  -7  -8  224.53   31.34
  -4   7   8  293.49   37.88
  -4   7   7  171.51   24.96
   4  -7  -7  140.25   24.84
  -4   7   7  170.56   27.48
   4  -7  -7  127.75   23.20
  -4   7   6    0.06    6.02
   4  -7  -6    7.67    7.80
  -4   7   6    2.92    7.07
   4  -7  -6   16.33   10.08
  -4   7   5   74.55   17.03
   4  -7  -5   78.36   14.72
  -4   7   5   78.25   16.66
   4  -7  -5   77.32   18.68
  -4   7   4  401.76   37.56
   4  -7  -4  409.88   38.75
   4  -7  -4  408.73   33.42
  -4   7   4  395.08   37.61
   4  -7  -3   11.42    7.42
   4  -7  -3    9.14    8.29
   4  -7  -3    7.60    4.67
  -4   7   3    3.21    6.93
  -4   7   3   16.15   10.09
   4  -7  -2  750.74   42.84
  -4   7   2  718.13   51.02
   4  -7  -2  797.20   52.71
   4  -7  -2  785.78   47.29
  -4   7   2  754.57   49.71
   4  -7  -1 1233.23   62.58
   4  -7  -1 1276.23   60.74
  -4   7   1 1272.68   69.25
   4  -7  -1 1307.81   68.30
  -4   7   1 1305.89   65.82
   4  -7   0   50.50   12.67
   4  -7   0   35.51   10.27
  -4   7   0   30.08   10.51
  -4   7   0   28.63    9.52
   4  -7   1  577.49   41.63
   4  -7   1  540.95   40.73
  -4   7  -1  558.00   43.82
   4  -7   2  979.59   58.51
  -4   7  -2 1070.11   61.75
   4  -7   2 1009.17   56.68
   4  -7   3  299.84   31.96
  -4   7  -3  241.97   27.40
  -4   7  -3  250.49   28.88
   4  -7   3  258.64   26.87
   4  -7   4  227.16   24.95
  -4   7  -4  189.32   24.98
   4  -7   4  237.59   29.62
   4  -7   4  172.83   21.56
  -4   7  -4  195.69   25.24
  -4   7  -5 1131.16   67.81
   4  -7   5 1186.15   71.88
   4  -7   5 1347.76   62.96
   4  -7   5 1166.83   61.82
   4  -7   5 1313.19   61.12
  -4   7  -5 1163.54   65.55
  -4   7  -6  473.55   43.54
  -4   7  -6  540.56   41.99
   4  -7   6  437.31   43.39
   4  -7   6  506.17   41.07
  -4   7  -7   70.60   17.90
   4  -7   7   83.18   20.40
   4  -7   7   78.55   17.68
  -4   7  -8  358.47   41.11
   4  -7   8  318.01   39.06
   4  -7   8  362.51   38.29
  -4   7  -9  143.76   26.48
   4  -7   9  149.51   28.19
   4  -7   9  174.28   28.46
  -4   7 -10   74.26   21.32
   4  -7  10   45.91   16.61
   4  -7  10   72.19   19.33
   4  -7  11   -6.52    8.50
   4  -7  11    5.30    7.20
  -4   6  12  256.45   39.04
  -4   6  11   30.71   15.77
   4  -6 -11   32.79   14.04
  -4   6  10   91.38   20.15
  -4   6  10   68.60   19.53
   4  -6 -10   86.32   20.76
   4  -6 -10  125.14   22.81
  -4   6   9  236.39   33.74
   4  -6  -9  260.41   34.30
   4  -6  -9  226.65   29.85
  -4   6   8   69.20   17.95
  -4   6   8  101.81   18.48
   4  -6  -8   69.59   17.91
   4  -6  -8   72.21   16.68
  -4   6   7  165.29   25.88
  -4   6   7  164.99   22.94
   4  -6  -7  140.53   22.77
   4  -6  -7  146.59   24.02
   4  -6  -6  391.77   38.34
  -4   6   6  323.92   32.30
   4  -6  -6  432.70   31.23
   4  -6  -6  397.51   37.12
  -4   6   6  307.81   34.07
  -4   6   5  269.30   30.35
   4  -6  -5  273.02   30.89
  -4   6   5  256.17   28.36
   4  -6  -5  292.45   25.40
   4  -6  -5  237.41   27.86
  -4   6   4    3.78    5.08
   4  -6  -4   12.07    6.46
   4  -6  -4    0.87    8.33
   4  -6  -4    6.52    4.46
  -4   6   4    6.95    6.17
   4  -6  -4   -1.90    6.99
   4  -6  -3  292.68   30.01
   4  -6  -3  244.04   20.88
  -4   6   3  261.92   28.01
   4  -6  -3  234.37   22.85
   4  -6  -3  228.45   26.09
  -4   6   3  219.04   25.45
   4  -6  -2  629.66   39.28
   4  -6  -2  648.19   37.69
   4  -6  -2  699.83   46.01
  -4   6   2  681.41   46.22
  -4   6   2  698.48   43.91
  -4   6   1   59.71   12.08
   4  -6  -1   34.08    9.74
   4  -6  -1   59.51   11.99
   4  -6  -1   61.74   12.85
  -4   6   0   22.46    8.05
  -4   6   0   23.45    9.32
   4  -6   0   34.48   10.05
   4  -6   0   24.27    8.49
   4  -6   1  880.16   50.82
  -4   6  -1  908.18   53.24
   4  -6   1  980.51   52.92
   4  -6   2 2333.96   93.86
   4  -6   2 2236.13   88.29
  -4   6  -2 2406.20   94.24
   4  -6   3  182.90   21.07
  -4   6  -3  155.60   21.22
   4  -6   3  179.16   23.33
  -4   6  -3  195.96   23.48
   4  -6   3  212.25   22.12
  -4   6  -4  905.31   55.95
   4  -6   4  914.02   58.20
   4  -6   4  976.94   52.86
  -4   6  -4 1027.24   56.04
   4  -6   4  980.73   51.35
  -4   6  -5 2058.84   94.19
   4  -6   5 2017.12   95.49
   4  -6   5 2194.02   90.58
  -4   6  -5 2148.78   88.51
   4  -6   5 2380.04   85.89
  -4   6  -6  342.85   35.99
   4  -6   6  438.63   41.29
   4  -6   6  455.71   38.21
  -4   6  -6  346.26   31.70
  -4   6  -7   80.38   18.40
   4  -6   7  124.04   23.12
   4  -6   7  120.80   21.50
  -4   6  -8  851.50   63.94
   4  -6   8  932.34   67.08
  -4   6  -9  301.57   38.38
   4  -6   9  304.17   38.07
   4  -6   9  278.81   35.84
  -4   6 -10   34.96   15.51
   4  -6  10   37.77   14.61
   4  -6  10   41.44   15.56
   4  -6  11   20.04   11.63
  -4   6 -11   33.91   15.34
   4  -6  11   51.82   17.83
   4  -6  12  232.92   35.72
  -4   5  12  120.84   26.83
   4  -5 -12  195.76   31.22
  -4   5  11    0.13    6.63
   4  -5 -11    0.88    6.33
   4  -5 -10  342.14   34.85
  -4   5  10  375.97   42.98
   4  -5 -10  348.75   39.76
  -4   5  10  353.36   36.79
  -4   5   9  402.55   42.29
  -4   5   9  322.56   36.93
   4  -5  -9  351.33   38.89
   4  -5  -9  318.79   33.19
  -4   5   8   46.77   14.20
  -4   5   8   32.14   10.81
  -4   5   8   42.97   14.26
   4  -5  -8   37.86   13.75
   4  -5  -8   42.35   12.33
  -4   5   7 1286.08   68.48
   4  -5  -7 1356.86   74.45
  -4   5   7 1336.57   66.16
   4  -5  -7 1269.27   67.71
  -4   5   7 1366.00   74.49
  -4   5   6  805.52   49.25
  -4   5   6  766.57   52.07
   4  -5  -6  726.30   51.72
  -4   5   6  771.26   48.07
   4  -5  -6  824.50   40.69
   4  -5  -6  780.78   49.84
  -4   5   5    6.00    6.04
   4  -5  -5   -0.85    3.25
  -4   5   5    5.81    4.90
  -4   5   5    0.11    5.56
   4  -5  -5   -0.03    5.63
   4  -5  -5   10.67    7.54
  -4   5   4  891.83   45.11
   4  -5  -4  965.62   55.28
  -4   5   4  873.16   51.07
   4  -5  -4  989.51   41.27
   4  -5  -4  941.97   43.90
   4  -5  -4  838.94   50.53
  -4   5   4  907.61   52.08
  -4   5   3 1401.80   54.15
   4  -5  -3 1412.25   67.39
  -4   5   3 1440.17   67.11
   4  -5  -3 1404.22   55.39
   4  -5  -3 1416.81   66.26
   4  -5  -3 1427.25   57.05
  -4   5   3 1378.50   64.08
  -4   5   2  479.54   33.07
  -4   5   2  476.77   24.42
   4  -5  -2  441.97   34.14
   4  -5  -2  455.43   29.56
   4  -5  -2  427.66   29.11
  -4   5   2  459.11   34.88
   4  -5  -2  497.00   35.89
   4  -5  -1  180.01   18.90
  -4   5   1  207.02   12.31
  -4   5   1  206.11   22.76
   4  -5  -1  192.96   21.52
  -4   5   1  235.82   21.69
   4  -5   0  681.71   40.60
  -4   5   0  699.04   43.19
   4  -5   0  743.04   43.45
  -4   5   0  724.52   38.79
   4  -5   1 1253.47   60.95
   4  -5   1 1396.93   62.30
  -4   5  -1 1479.66   65.14
   4  -5   2  308.46   26.76
   4  -5   2  314.14   29.12
  -4   5  -2  359.88   29.33
   4  -5   2  334.05   26.79
   4  -5   3  257.71   23.78
  -4   5  -3  225.03   24.76
   4  -5   3  245.09   26.72
  -4   5  -3  281.06   25.90
   4  -5   3  325.80   27.47
   4  -5   4 1677.62   68.17
  -4   5  -4 1558.55   74.34
   4  -5   4 1581.32   76.18
  -4   5  -4 1663.65   69.86
   4  -5   4 1526.41   70.28
   4  -5   4 1641.91   60.27
   4  -5   5  962.07   59.63
  -4   5  -5  947.65   58.30
   4  -5   5 1019.07   57.19
  -4   5  -5 1141.15   54.68
   4  -5   5 1063.70   52.32
  -4   5  -6  198.55   26.98
   4  -5   6  190.39   26.48
   4  -5   6  135.00   20.70
  -4   5  -6  161.37   19.30
   4  -5   7  410.61   40.09
   4  -5   7  371.37   37.04
  -4   5  -7  367.98   38.13
  -4   5  -8  991.36   67.75
   4  -5   8  957.18   65.07
   4  -5   8  976.96   65.34
  -4   5  -9  430.58   45.73
   4  -5   9  530.69   48.64
   4  -5   9  400.00   42.83
  -4   5 -10    8.59    8.91
   4  -5  10   21.61   12.09
   4  -5  10   10.21    7.70
  -4   5 -11  563.78   57.22
   4  -5  11  640.09   56.85
   4  -5  11  566.86   57.25
  -4   4  13  122.57   26.69
   4  -4 -13  186.90   32.19
  -4   4  12   16.29   10.65
   4  -4 -12   -0.04    6.12
   4  -4 -12   26.76   12.35
  -4   4  12   11.14    8.78
  -4   4  11  126.07   26.02
  -4   4  11  107.65   23.52
   4  -4 -11   90.55   20.65
   4  -4 -11   79.77   20.64
  -4   4  10  274.66   35.26
   4  -4 -10  303.46   30.38
   4  -4 -10  290.43   34.90
  -4   4  10  260.16   34.15
  -4   4   9   17.91    9.02
  -4   4   9    7.47    7.17
   4  -4  -9    9.44    6.90
   4  -4  -9    8.21    7.25
  -4   4   8  250.62   29.57
   4  -4  -8  240.39   29.85
  -4   4   8  219.20   23.65
   4  -4  -8  267.44   27.64
  -4   4   8  224.97   29.37
  -4   4   7  362.85   33.27
   4  -4  -7  379.50   35.85
  -4   4   7  370.74   30.76
   4  -4  -7  333.89   30.38
  -4   4   7  353.31   35.04
  -4   4   6  377.59   31.89
   4  -4  -6  365.49   34.35
  -4   4   6  369.64   30.59
  -4   4   6  408.00   35.11
   4  -4  -6  421.70   24.43
   4  -4  -6  360.31   30.86
  -4   4   5   90.92   15.88
  -4   4   5   64.43   12.61
  -4   4   5   51.41   11.34
   4  -4  -5   57.23   13.04
   4  -4  -5   72.55    9.74
   4  -4  -5   41.16   10.31
  -4   4   4 2796.49   91.98
   4  -4  -4 2764.29   98.76
   4  -4  -4 2770.44   83.24
  -4   4   4 2811.89   99.43
  -4   4   4 2805.17   99.38
   4  -4  -4 2748.80  102.39
   4  -4  -4 2839.75   85.26
  -4   4   3 2734.72   83.87
   4  -4  -3 2616.38   95.86
  -4   4   3 2561.76   93.81
  -4   4   3 2742.37   93.13
   4  -4  -3 2631.37   83.77
   4  -4  -3 2617.91   94.35
   4  -4  -3 2675.34   81.58
  -4   4   2   95.91   10.53
  -4   4   2   77.70   12.06
   4  -4  -2   67.03   12.39
   4  -4  -2   68.37   11.00
  -4   4   2   82.74   13.99
   4  -4  -2   99.09   14.80
   4  -4  -1 2055.92   75.89
  -4   4   1 2012.36   69.08
  -4   4   1 1950.44   75.90
   4  -4  -1 1879.78   70.47
   4  -4  -1 1790.88   73.13
  -4   4   1 1950.33   56.59
  -4   4   0 2696.46   67.34
  -4   4   0 2431.48   89.81
   4  -4   0 2494.34   88.59
   4  -4   0 2549.35   90.22
  -4   4   0 2610.49   81.57
   4  -4   1  453.02   31.58
  -4   4  -1  509.07   18.35
  -4   4  -1  495.24   33.08
   4  -4   1  511.72   34.29
   4  -4   2  588.04   37.95
  -4   4  -2  485.10   32.42
  -4   4  -2  481.25   19.85
   4  -4   2  547.95   34.51
   4  -4   2  496.71   32.66
  -4   4  -3 1178.15   58.15
  -4   4  -3 1175.73   53.24
   4  -4   3 1170.06   53.57
   4  -4   3 1154.55   55.88
   4  -4   3 1131.05   58.47
  -4   4  -4  554.99   39.99
  -4   4  -4  551.92   34.02
   4  -4   4  518.45   37.53
   4  -4   4  567.60   27.51
   4  -4   4  634.11   43.00
   4  -4   4  506.70   34.08
  -4   4  -5   82.55   16.68
   4  -4   5  109.61   18.77
  -4   4  -5  118.15   15.01
   4  -4   5  107.81   14.69
   4  -4   5   76.76   15.18
  -4   4  -6   18.12    9.00
   4  -4   6   21.01   10.55
   4  -4   6   15.77    8.92
   4  -4   6   13.97    5.89
  -4   4  -7  616.58   49.28
   4  -4   7  597.21   47.19
   4  -4   7  616.77   48.49
  -4   4  -8  420.07   42.41
   4  -4   8  378.87   38.96
   4  -4   8  441.24   42.69
  -4   4  -9   37.30   14.26
   4  -4   9   35.30   12.14
   4  -4   9   47.38   16.26
  -4   4 -10  131.16   26.23
   4  -4  10  184.80   28.22
   4  -4  10  179.13   30.19
  -4   4 -11  495.58   52.80
   4  -4  11  281.84   40.11
   4  -3 -14  266.27   40.57
  -4   3  14  221.94   35.89
  -4   3  13   12.84    9.56
  -4   3  13    7.28    9.99
   4  -3 -13    2.13    6.68
   4  -3 -13    9.84   10.57
  -4   3  12  169.56   29.44
  -4   3  12  185.90   31.98
   4  -3 -12  150.37   26.14
   4  -3 -12  133.83   26.68
  -4   3  11  228.34   33.24
   4  -3 -11  186.73   28.56
   4  -3 -11  213.53   31.07
  -4   3  11  211.95   31.46
  -4   3  10   15.66    9.53
  -4   3  10    9.60    9.26
   4  -3 -10    7.76    7.03
   4  -3 -10   12.47    8.48
  -4   3   9   92.65   18.98
  -4   3   9  102.45   15.17
  -4   3   9  111.58   20.64
   4  -3  -9   98.48   19.63
   4  -3  -9   74.81   17.11
   4  -3  -9   93.91   15.28
   4  -3  -8  102.97   19.20
  -4   3   8  106.22   19.03
   4  -3  -8  140.50   21.76
  -4   3   8  144.14   22.22
  -4   3   8  133.77   17.49
   4  -3  -8  144.95   18.68
  -4   3   7  607.61   42.75
   4  -3  -7  681.65   47.15
  -4   3   7  596.94   38.23
  -4   3   7  719.25   48.06
   4  -3  -7  624.76   39.49
  -4   3   6   54.81   12.95
  -4   3   6   47.43   11.26
   4  -3  -6   47.71   12.99
  -4   3   6   56.57   11.60
   4  -3  -6   58.82    7.10
   4  -3  -6   54.79   11.43
  -4   3   5  220.89   21.53
   4  -3  -5  196.88   22.46
  -4   3   5  202.04   20.92
   4  -3  -5  231.81   22.18
  -4   3   5  245.82   24.45
   4  -3  -5  212.92   13.88
  -4   3   4 2358.53   78.10
   4  -3  -4 2155.72   84.07
  -4   3   4 2086.30   80.08
   4  -3  -4 2179.78   80.50
   4  -3  -4 2230.08   64.07
  -4   3   4 2295.25   82.57
   4  -3  -3 1133.25   54.90
  -4   3   3 1175.69   54.25
   4  -3  -3 1172.07   47.88
  -4   3   3 1279.95   49.04
   4  -3  -3 1280.09   55.37
  -4   3   3 1256.78   53.09
  -4   3   2  275.32   18.13
   4  -3  -2  260.66   23.21
  -4   3   2  271.68   23.55
  -4   3   2  301.10   21.71
   4  -3  -2  251.93   20.48
   4  -3  -2  269.13   22.97
  -4   3   1 2695.47   73.68
  -4   3   1 2617.88   88.24
  -4   3   1 2604.37   78.73
   4  -3  -1 2378.55   83.91
   4  -3  -1 2504.55   84.04
   4  -3  -1 2587.73   87.73
  -4   3   0 3028.83   80.02
   4  -3   0 3145.75   94.53
  -4   3   0 2909.93   95.77
   4  -3   0 2820.31   95.33
   4  -3   0 2831.62   95.62
  -4   3   0 3071.85   84.49
  -4   3  -1  679.84   26.42
   4  -3   1  600.01   36.79
   4  -3   1  540.49   33.70
  -4   3  -1  615.59   34.94
   4  -3   1  644.37   36.47
   4  -3   2  391.15   27.81
  -4   3  -2  380.95   26.27
   4  -3   2  385.93   29.60
   4  -3   2  338.83   26.97
   4  -3   3 1648.18   72.08
  -4   3  -3 1700.86   71.83
  -4   3  -3 1743.28   64.78
   4  -3   3 1664.58   70.94
   4  -3   3 1809.56   51.04
   4  -3   3 1841.56   69.10
   4  -3   4  563.40   34.32
  -4   3  -4  487.89   36.80
   4  -3   4  582.71   39.79
  -4   3  -4  541.86   30.71
   4  -3   4  486.54   36.52
  -4   3  -5  194.95   23.75
   4  -3   5  176.58   22.08
   4  -3   5  179.73   19.41
  -4   3  -5  169.63   16.22
   4  -3   5  161.54   22.12
  -4   3  -6  497.12   40.57
   4  -3   6  552.02   41.34
   4  -3   6  431.65   38.57
  -4   3  -7  238.31   29.73
   4  -3   7  283.50   30.71
   4  -3   7  233.52   29.53
   4  -3   8    8.35    7.12
  -4   3  -8    8.76    5.58
   4  -3   8    9.79    8.45
  -4   3  -9   13.98    9.10
   4  -3   9   33.53   12.86
   4  -3   9   43.51   15.41
  -4   3 -10   87.88   21.30
   4  -3  10   81.45   19.08
   4  -3  10  104.62   23.84
  -4   3 -11   41.81   16.47
   4  -3  11   30.88   15.39
  -4   2  14   60.92   22.45
  -4   2  14   64.11   19.66
   4  -2 -14   65.13   19.86
  -4   2  13   67.90   19.38
  -4   2  13  143.92   28.96
   4  -2 -13  156.69   27.33
   4  -2 -13   96.81   23.12
  -4   2  12  668.11   58.65
   4  -2 -12  654.80   55.19
   4  -2 -12  604.59   55.07
  -4   2  12  684.92   58.56
  -4   2  11  299.78   36.71
  -4   2  11  299.11   37.22
   4  -2 -11  329.01   37.32
   4  -2 -11  297.91   36.63
  -4   2  10    3.69    5.18
  -4   2  10   17.51    8.32
   4  -2 -10    1.27    6.40
   4  -2 -10    4.55    5.89
  -4   2   9  555.00   45.30
   4  -2  -9  640.00   38.04
   4  -2  -9  532.69   44.26
  -4   2   9  629.68   38.20
   4  -2  -9  524.62   43.91
  -4   2   9  600.74   47.39
  -4   2   8  682.98   47.87
   4  -2  -8  669.81   48.08
  -4   2   8  771.57   42.33
   4  -2  -8  772.80   50.41
   4  -2  -8  700.11   39.90
  -4   2   8  639.02   47.15
  -4   2   7  308.03   29.53
  -4   2   7  320.73   30.41
  -4   2   7  282.43   24.85
   4  -2  -7  253.58   27.37
   4  -2  -7  230.48   25.63
   4  -2  -7  310.95   24.95
  -4   2   6  519.68   35.92
  -4   2   6  492.83   32.86
   4  -2  -6  485.65   36.74
   4  -2  -6  499.14   17.63
   4  -2  -6  481.08   31.23
  -4   2   6  472.15   35.83
  -4   2   5 2316.94   83.83
  -4   2   5 2352.83   84.63
   4  -2  -5 2565.30   91.88
   4  -2  -5 2407.85   82.95
  -4   2   5 2462.69   88.93
  -4   2   4  396.23   26.54
  -4   2   4  367.85   27.20
   4  -2  -4  400.62   29.65
   4  -2  -4  403.52   27.33
   4  -2  -4  375.24   27.24
  -4   2   4  395.19   27.97
  -4   2   3   98.56   11.90
   4  -2  -3   77.41   12.54
   4  -2  -3   71.45   11.96
  -4   2   3   91.27   13.10
  -4   2   3  104.52   12.97
   4  -2  -3   84.23   12.48
  -4   2   2  152.90   13.52
  -4   2   2  155.38   16.69
   4  -2  -2  131.01   15.00
   4  -2  -2  164.83   15.68
   4  -2  -2  140.12   16.66
   4  -2  -2  151.42   16.61
  -4   2   2  183.74   15.50
  -4   2   1 1607.92   52.05
   4  -2  -1 1494.70   59.53
  -4   2   1 1560.98   60.50
   4  -2  -1 1523.93   56.85
   4  -2  -1 1473.00   57.82
  -4   2   1 1582.33   50.55
   4  -2  -1 1528.79   61.50
   4  -2   0 2405.21   76.39
  -4   2   0 2403.64   81.53
  -4   2   0 2542.98   73.18
   4  -2   0 2475.96   83.62
  -4   2   0 2625.44   68.42
   4  -2   0 2479.11   85.43
   4  -2   0 2503.45   84.05
  -4   2  -1  458.11   28.22
   4  -2   1  527.87   31.90
   4  -2   1  476.37   30.91
   4  -2   1  483.99   31.11
   4  -2   1  445.81   29.66
  -4   2  -2 2041.68   69.43
   4  -2   2 2163.38   75.96
   4  -2   2 1912.79   75.01
   4  -2   2 1963.71   75.46
  -4   2  -3 2518.39   91.44
  -4   2  -3 2663.91   82.67
   4  -2   3 2625.10   94.44
   4  -2   3 2564.82   93.01
   4  -2   3 2713.71   90.06
  -4   2  -4  636.35   41.04
  -4   2  -4  699.47   32.76
   4  -2   4  589.27   39.84
   4  -2   4  609.45   41.32
  -4   2  -5   97.67   16.54
  -4   2  -5   86.97   10.20
   4  -2   5   71.98   14.02
   4  -2   5   90.07   16.17
  -4   2  -6  650.17   46.85
   4  -2   6  738.91   46.92
   4  -2   6  693.55   49.24
  -4   2  -7  240.77   29.59
   4  -2   7  245.33   27.41
   4  -2   7  153.71   24.79
  -4   2  -8   23.31   10.67
   4  -2   8   45.78   12.65
   4  -2   8   38.35   13.86
  -4   2  -9  271.05   34.82
   4  -2   9  382.26   36.96
   4  -2   9  344.08   40.49
  -4   2 -10  117.24   24.56
   4  -2  10  130.00   27.04
  -4   2 -11    2.27    6.93
   4  -2  11    3.45    8.71
  -4   1  15   78.66   21.96
  -4   1  14    6.93    8.30
  -4   1  14    7.76    8.86
   4  -1 -14   19.46   10.84
   4  -1 -14   13.84   10.13
  -4   1  13  155.04   28.66
  -4   1  13  190.65   33.06
   4  -1 -13  242.86   33.39
   4  -1 -13  206.86   32.90
  -4   1  12  389.06   43.26
  -4   1  12  446.04   47.15
   4  -1 -12  426.65   43.07
   4  -1 -12  424.26   44.96
  -4   1  11  119.88   22.48
  -4   1  11  109.73   22.75
   4  -1 -11  144.92   24.03
   4  -1 -11  118.46   22.91
  -4   1  10  314.12   35.12
  -4   1  10  214.01   28.74
   4  -1 -10  256.58   31.08
   4  -1 -10  232.59   29.93
  -4   1   9 1303.84   71.81
  -4   1   9 1269.24   70.53
  -4   1   9 1384.46   59.73
   4  -1  -9 1258.06   70.16
   4  -1  -9 1274.17   69.83
   4  -1  -9 1366.82   55.37
  -4   1   8 2461.54  100.91
  -4   1   8 2679.28  105.21
   4  -1  -8 2640.48  104.78
   4  -1  -8 2424.01   99.67
  -4   1   8 2699.78   91.36
   4  -1  -8 2555.16   84.87
  -4   1   7  229.63   25.32
  -4   1   7  185.67   22.17
   4  -1  -7  176.45   22.84
   4  -1  -7  213.69   23.65
   4  -1  -7  192.20   18.69
   4  -1  -7  193.17   18.12
   4  -1  -6 1838.68   77.08
   4  -1  -6 1745.45   64.68
   4  -1  -6 1701.82   71.63
   4  -1  -6 1979.88   68.94
  -4   1   6 1725.18   74.21
  -4   1   6 1812.81   73.50
   4  -1  -5 1787.28   65.03
  -4   1   5 1792.94   69.70
   4  -1  -5 1818.35   73.80
   4  -1  -5 1930.25   69.33
  -4   1   5 1755.69   71.05
  -4   1   4  387.58   26.22
   4  -1  -4  331.88   26.23
   4  -1  -4  365.55   26.33
  -4   1   4  340.53   25.34
   4  -1  -4  362.11   24.68
   4  -1  -3  281.43   21.75
  -4   1   3  269.70   20.31
  -4   1   3  306.35   21.65
   4  -1  -3  292.73   22.85
   4  -1  -3  293.81   23.22
   4  -1  -2 2366.56   77.74
  -4   1   2 2528.07   76.06
   4  -1  -2 2337.09   81.82
   4  -1  -2 2367.29   80.01
  -4   1   2 2511.44   73.82
  -4   1   1 2174.62   68.88
   4  -1  -1 2176.31   75.48
   4  -1  -1 2180.57   69.12
  -4   1   1 2271.16   63.06
   4  -1  -1 2211.65   74.33
   4  -1  -1 2069.67   75.80
   4  -1   0  190.16   14.50
   4  -1   0  220.51   19.57
   4  -1   0  219.55   19.96
   4  -1   0  198.26   18.29
   4  -1   0  216.81   19.49
  -4   1   0  212.89   10.60
   4  -1   1  154.79   18.01
   4  -1   1  157.29   11.61
   4  -1   1  154.51   16.82
   4  -1   1  178.20   17.67
   4  -1   1  159.94   17.20
   4  -1   1  165.95   17.34
  -4   1  -2 1410.76   56.42
  -4   1  -2 1316.10   50.10
   4  -1   2 1291.27   58.52
   4  -1   2 1355.84   57.52
   4  -1   2 1153.42   52.07
   4  -1   2 1336.58   58.25
   4  -1   2 1356.16   56.93
  -4   1  -3 1204.05   45.17
   4  -1   3 1120.78   53.39
   4  -1   3 1082.97   48.23
   4  -1   3 1163.29   56.04
   4  -1   3 1043.63   54.35
  -4   1  -3 1102.99   52.11
   4  -1   4    9.34    4.90
  -4   1  -4    5.95    5.85
   4  -1   4    0.24    4.22
  -4   1  -4    7.71    3.38
   4  -1   4   -2.08    4.94
   4  -1   4    5.70    4.63
   4  -1   5  171.03   22.71
  -4   1  -5  176.55   21.82
   4  -1   5  155.66   19.75
   4  -1   5  136.92   20.82
  -4   1  -6  764.81   50.49
   4  -1   6  813.42   48.22
   4  -1   6  767.96   52.89
   4  -1   6  767.98   51.75
  -4   1  -7  438.10   39.53
   4  -1   7  435.90   35.55
   4  -1   7  440.73   41.76
   4  -1   7  385.07   37.39
   4  -1   8  202.46   27.76
  -4   1  -8  219.87   29.38
   4  -1   8  201.72   25.24
   4  -1   8  144.00   25.33
   4  -1   9  377.17   39.68
  -4   1  -9  291.57   36.05
   4  -1   9  352.82   41.58
   4  -1  10   67.44   17.57
  -4   1 -10   37.66   14.55
   4  -1  10   52.16   18.23
  -4   1 -11  111.83   25.27
   4  -1  11  190.90   33.82
  -4   1 -11  153.40   29.06
  -4   0  15   14.97   10.34
  -4   0  15   22.82   13.25
  -4   0  14   18.76   10.77
  -4   0  14    6.67    7.87
   4   0 -14   -6.81    7.75
   4   0 -14    9.09    8.72
  -4   0  13  330.57   42.07
   4   0 -13  381.62   42.27
   4   0 -13  389.62   44.62
  -4   0  13  365.16   42.90
  -4   0  12   88.22   19.90
  -4   0  12  108.50   23.15
   4   0 -12   84.17   20.27
   4   0 -12   84.97   19.51
  -4   0  11   13.01    7.62
   4   0 -11   11.59    9.45
  -4   0  11   12.36   10.42
   4   0 -11    1.77    5.25
  -4   0  10  615.23   49.08
  -4   0  10  668.26   39.20
   4   0 -10  671.05   50.64
   4   0 -10  537.16   45.47
  -4   0  10  631.37   49.66
  -4   0   9 1064.28   63.50
  -4   0   9 1147.95   64.80
   4   0  -9 1156.45   65.47
   4   0  -9  974.24   59.56
  -4   0   8  860.30   52.24
   4   0  -8  770.74   48.87
   4   0  -8  842.06   53.23
   4   0  -8  829.64   38.11
   4   0  -8  877.88   41.96
  -4   0   8  844.08   52.62
  -4   0   7  146.67   20.44
   4   0  -7  205.42   17.33
   4   0  -7  196.82   23.31
   4   0  -7  230.05   23.79
   4   0  -7  230.45   20.12
  -4   0   7  193.01   22.42
   4   0  -6 2637.82   83.86
  -4   0   6 2765.56   96.01
   4   0  -6 2623.61   97.98
   4   0  -6 2665.23   92.80
   4   0  -6 2777.25   90.00
  -4   0   6 2638.16   96.85
  -4   0   5 2731.81   92.35
   4   0  -5 2713.66   95.91
   4   0  -5 2864.18   86.39
   4   0  -5 2799.79   90.88
  -4   0   5 2589.34   92.74
  -4   0   4  178.21   17.71
   4   0  -4  204.06   20.18
   4   0  -4  194.60   17.62
   4   0  -4  163.39   17.73
  -4   0   4  210.36   19.52
  -4   0   3 1330.23   53.11
   4   0  -3 1382.09   55.58
   4   0  -3 1407.84   57.61
  -4   0   3 1427.05   39.44
  -4   0   3 1377.36   52.78
   4   0  -3 1327.22   53.68
  -4   0   2 5090.65  137.74
   4   0  -2 5027.76  140.65
   4   0  -2 5029.73  136.66
   4   0  -2 5045.22  144.02
  -4   0   2 5233.68  127.02
  -4   0   2 4997.38  132.03
   4   0  -1   97.64   10.48
   4   0  -1   91.41   13.11
  -4   0   1   97.71   11.75
   4   0  -1   77.58   11.63
  -4   0   1   78.10    8.26
   4   0  -1   97.13   12.75
   4   0   0  184.01   18.33
   4   0   0  215.74   14.07
   4   0   0  225.04   20.26
   4   0   0  207.00   19.12
   4   0   0  190.37   18.00
  -4   0   0  219.61   11.07
   4   0   0  249.66   21.13
   4   0   1 3097.02   99.85
   4   0   1 2945.68   76.44
   4   0   1 2965.47   96.37
   4   0   1 3228.61   97.94
   4   0   1 3035.48   97.17
   4   0   2  349.60   28.58
  -4   0  -2  335.05   24.18
   4   0   2  388.98   27.50
   4   0   2  314.63   24.02
   4   0   2  302.60   25.57
   4   0   3   11.26    7.81
   4   0   3   12.55    5.28
  -4   0  -3    7.61    4.81
   4   0   3   10.13    5.37
   4   0   3   20.67    8.88
   4   0   4   94.25   16.30
  -4   0  -4  113.71   11.50
  -4   0  -4  125.16   16.72
   4   0   4  113.25   13.77
   4   0   4   98.99   14.87
   4   0   4  124.61   18.13
   4   0   5  203.96   25.57
  -4   0  -5  252.42   25.58
   4   0   5  241.71   24.13
   4   0   5  254.06   20.14
   4   0   5  206.44   25.26
  -4   0  -6  140.12   20.87
   4   0   6  174.90   21.24
   4   0   6  134.40   22.01
   4   0   6  154.84   22.89
   4   0   7    9.89    6.50
  -4   0  -7   11.85    7.73
   4   0   7    8.36    6.68
   4   0   7    7.79    8.80
  -4   0  -8  283.67   33.11
   4   0   8  273.51   33.08
   4   0   8  213.58   30.75
  -4   0  -9   98.10   20.88
   4   0   9   63.81   19.03
  -4   0  -9   80.57   19.91
   4   0   9  115.45   21.95
   4   0  10   -8.06    8.83
  -4   0 -10    3.77    6.77
  -4   0 -10   19.99   12.12
   4   0  10    2.75    6.05
  -4   0 -11  147.36   29.38
  -4   0 -11  145.01   28.26
   4   0  11  151.14   30.71
  -4  -1  15   18.17    9.76
  -4  -1  15   15.17   11.83
   4   1 -15   10.53    9.69
   4   1 -15   15.22   11.06
  -4  -1  15    5.35   15.74
  -4  -1  14  705.66   64.63
   4   1 -14  839.69   65.76
   4   1 -14  721.29   63.68
  -4  -1  14  939.67   71.42
  -4  -1  13  385.54   44.48
   4   1 -13  434.08   44.89
   4   1 -13  419.27   45.81
  -4  -1  13  396.59   44.55
  -4  -1  12   -4.15    7.13
  -4  -1  12    2.58    8.08
   4   1 -12    4.32    7.79
   4   1 -12   -1.86    6.19
  -4  -1  11  233.67   31.27
   4   1 -11  241.27   31.45
   4   1 -11  269.24   32.69
  -4  -1  11  235.16   31.40
  -4  -1  10  461.61   41.77
   4   1 -10  483.80   42.59
   4   1 -10  488.73   41.82
  -4  -1  10  457.78   42.31
  -4  -1   9  921.43   57.43
   4   1  -9  991.51   59.97
   4   1  -9  908.39   55.35
   4   1  -9  998.39   45.27
  -4  -1   9  776.47   54.15
   4   1  -8   73.62   11.76
  -4  -1   8   59.96   14.09
  -4  -1   8   72.66   14.19
   4   1  -8   55.14   13.30
   4   1  -8   73.40    9.83
   4   1  -8   66.35   14.26
  -4  -1   7 1076.79   56.10
   4   1  -7  983.94   56.16
   4   1  -7 1041.12   52.86
   4   1  -7 1086.06   49.26
  -4  -1   7 1116.39   58.27
   4   1  -7 1038.53   42.88
  -4  -1   6 1455.96   64.67
   4   1  -6 1560.11   69.28
   4   1  -6 1455.85   61.35
   4   1  -6 1495.56   54.99
   4   1  -6 1587.74   62.65
  -4  -1   6 1506.22   66.97
   4   1  -5 2289.09   86.26
   4   1  -5 2326.86   78.79
   4   1  -5 2499.72   84.64
  -4  -1   5 2473.56   86.37
  -4  -1   5 2267.94   83.02
   4   1  -5 2296.14   76.09
  -4  -1   4    4.94    2.24
  -4  -1   4    5.18    5.66
  -4  -1   4    5.39    4.61
   4   1  -4    6.60    5.28
   4   1  -4    2.74    4.71
   4   1  -4    7.10    4.52
   4   1  -3 2375.42   71.29
  -4  -1   3 2381.50   78.41
   4   1  -3 2213.45   81.09
  -4  -1   3 2283.48   63.87
   4   1  -3 2264.05   78.09
  -4  -1   3 2274.10   75.05
   4   1  -3 2131.09   75.68
   4   1  -2 3031.78   90.07
  -4  -1   2 2987.34   93.47
   4   1  -2 2864.29   89.75
   4   1  -2 2902.54   98.37
  -4  -1   2 3080.12   84.06
  -4  -1   2 3025.65   87.44
  -4  -1   1   14.98    3.96
   4   1  -1   19.21    6.13
   4   1  -1   15.49    4.42
  -4  -1   1   16.37    5.10
   4   1  -1   25.05    8.05
   4   1   0  597.30   35.01
   4   1   0  571.05   24.55
   4   1   0  609.35   36.08
  -4  -1   0  544.14   30.81
   4   1   0  558.80   31.66
  -4  -1   0  598.59   23.78
   4   1   1 2149.79   79.81
   4   1   1 2071.32   54.44
  -4  -1  -1 2107.04   67.92
   4   1   1 1996.27   75.88
  -4  -1  -1 2122.02   76.02
   4   1   1 2020.30   74.17
  -4  -1  -1 2210.20   57.00
   4   1   2  126.44   17.61
  -4  -1  -2  135.49   14.47
   4   1   2  131.54   15.92
   4   1   2  135.72   16.67
  -4  -1  -2  121.88   16.27
   4   1   3  726.92   46.04
  -4  -1  -3  725.53   38.53
   4   1   3  707.46   38.49
   4   1   3  725.48   40.11
  -4  -1  -3  653.10   42.61
   4   1   3  671.17   41.30
  -4  -1  -4  637.55   38.59
   4   1   4  648.44   45.28
   4   1   4  637.65   35.47
   4   1   4  581.70   36.59
  -4  -1  -4  587.36   42.34
   4   1   4  503.27   38.14
   4   1   5   35.66   10.52
  -4  -1  -5   32.78   10.16
   4   1   5   43.46   10.39
   4   1   5   17.05    7.74
   4   1   5   33.44    7.62
  -4  -1  -5   17.42    8.50
  -4  -1  -6   13.46    8.73
  -4  -1  -6   16.47    7.20
   4   1   6   33.21    9.55
   4   1   6   25.11   10.70
   4   1   6   40.88   13.18
   4   1   7  769.99   56.61
  -4  -1  -7  771.89   52.41
  -4  -1  -7  698.10   54.22
   4   1   7  649.20   52.00
   4   1   8   24.10   11.65
  -4  -1  -8   20.86   10.58
   4   1   8   20.34   11.44
  -4  -1  -8   39.75   14.43
  -4  -1  -9   22.14   10.42
  -4  -1  -9   25.30   11.34
   4   1   9    6.36    9.04
   4   1   9   41.57   15.27
   4   1  10  186.91   30.32
  -4  -1 -10  173.93   30.30
  -4  -1 -10  211.80   31.74
   4   1  10  165.81   30.20
   4   1  11  119.67   25.44
  -4  -1 -11  150.99   29.86
  -4  -1 -11  165.95   29.99
   4   1  11  148.81   30.13
  -4  -2  15  208.03   34.86
  -4  -2  15  160.53   32.41
   4   2 -15  173.38   31.14
   4   2 -15  189.67   33.20
  -4  -2  15  216.40   37.25
  -4  -2  14  768.86   65.90
   4   2 -14  868.66   67.50
   4   2 -14  655.24   60.52
  -4  -2  14  836.01   68.33
  -4  -2  13  216.19   33.12
   4   2 -13  236.63   33.46
   4   2 -13  179.91   29.58
  -4  -2  13  248.42   35.17
  -4  -2  12   54.59   17.53
  -4  -2  12   67.85   17.98
   4   2 -12   57.70   16.48
   4   2 -12   79.45   18.67
  -4  -2  11 1279.20   75.98
   4   2 -11 1313.03   77.32
   4   2 -11 1341.20   75.91
  -4  -2  11 1353.42   78.85
  -4  -2  10 1111.89   67.49
   4   2 -10 1233.20   71.51
   4   2 -10 1208.32   67.59
  -4  -2  10 1123.96   69.06
  -4  -2   9  106.77   19.50
  -4  -2   9  106.39   19.51
   4   2  -9  140.59   22.09
   4   2  -9  179.88   18.92
   4   2  -9  138.65   20.78
  -4  -2   8  940.28   55.30
   4   2  -8 1063.24   60.79
   4   2  -8 1067.19   50.47
  -4  -2   8 1071.65   60.07
   4   2  -8  917.10   52.17
  -4  -2   7 1008.56   55.05
   4   2  -7 1051.65   58.60
   4   2  -7 1147.69   54.14
   4   2  -7 1127.86   52.63
  -4  -2   7 1038.97   57.20
  -4  -2   6  673.66   41.16
   4   2  -6  663.38   43.01
   4   2  -6  678.21   37.41
   4   2  -6  741.75   41.48
  -4  -2   6  692.86   42.76
  -4  -2   5   36.77    9.73
  -4  -2   5   24.66    4.73
  -4  -2   5   23.93    7.86
   4   2  -5   22.13    8.54
   4   2  -5   37.34    7.73
   4   2  -5   37.80    9.44
  -4  -2   4  465.27   30.89
   4   2  -4  422.78   30.65
   4   2  -4  476.56   32.72
  -4  -2   4  506.35   23.39
  -4  -2   4  481.42   30.78
   4   2  -4  456.15   23.70
   4   2  -3 2129.34   67.45
   4   2  -3 1957.71   73.05
   4   2  -3 2040.88   78.37
  -4  -2   3 2099.12   64.34
  -4  -2   3 2091.16   71.96
  -4  -2   3 2078.15   74.87
   4   2  -2  558.05   30.86
   4   2  -2  554.41   30.76
  -4  -2   2  574.45   33.69
   4   2  -2  538.69   35.52
  -4  -2   2  542.37   28.12
  -4  -2   2  523.45   28.54
   4   2  -1  195.18   19.41
   4   2  -1  203.52   16.29
   4   2  -1  187.80   20.13
  -4  -2   1  167.63   16.17
  -4  -2   1  176.16   14.71
   4   2   0  782.15   44.25
  -4  -2   0  862.31   33.08
   4   2   0  827.11   33.34
   4   2   0  840.62   45.01
  -4  -2   0  821.16   41.31
   4   2   0  916.99   41.63
   4   2   1  445.65   33.93
  -4  -2  -1  540.80   26.59
   4   2   1  491.54   20.43
   4   2   1  532.27   34.86
  -4  -2  -1  514.54   33.55
   4   2   1  493.99   31.29
   4   2   2    6.32    5.38
  -4  -2  -2    6.37    6.72
  -4  -2  -2   -0.16    3.20
   4   2   2   -0.54    4.90
   4   2   2    3.77    4.15
  -4  -2  -3  244.53   20.77
   4   2   3  255.27   23.27
  -4  -2  -3  249.27   26.18
   4   2   3  212.53   22.50
   4   2   4  802.91   53.80
  -4  -2  -4  874.03   46.04
   4   2   4  910.34   46.32
  -4  -2  -4  834.54   52.83
   4   2   4  956.36   53.31
   4   2   5   84.64   17.87
  -4  -2  -5   40.66   12.75
  -4  -2  -5   79.72   14.16
   4   2   5   54.16   14.08
   4   2   6  593.28   49.36
  -4  -2  -6  592.53   48.66
   4   2   6  547.97   45.28
   4   2   7  735.13   57.16
  -4  -2  -7  846.42   54.68
  -4  -2  -7  689.15   54.97
   4   2   7  654.02   52.69
   4   2   8   15.34   10.78
  -4  -2  -8    6.85    6.92
   4   2   8    7.37    7.82
  -4  -2  -8   18.20   10.39
   4   2   9  207.05   31.84
  -4  -2  -9  225.91   33.69
  -4  -2  -9  230.55   31.77
   4   2   9  213.91   32.78
   4   2  10  303.96   40.15
   4   2  10  305.39   41.81
  -4  -2 -10  342.80   43.52
   4   2  11   85.83   22.55
  -4  -3  15  529.28   56.98
   4   3 -15  632.00   60.04
  -4  -3  15  659.21   62.90
  -4  -3  15  528.54   55.93
   4   3 -15  470.02   52.45
  -4  -3  14  294.70   40.38
   4   3 -14  339.52   42.34
   4   3 -14  342.78   42.31
  -4  -3  14  300.48   40.32
  -4  -3  13   64.15   19.04
  -4  -3  13   72.50   20.09
   4   3 -13   67.55   19.45
   4   3 -13   66.83   18.37
  -4  -3  12  147.64   26.30
  -4  -3  12  150.81   25.95
   4   3 -12  130.94   25.29
   4   3 -12  154.72   25.69
   4   3 -11 1126.76   72.08
  -4  -3  11 1197.66   72.25
   4   3 -11 1132.14   68.48
  -4  -3  11 1088.01   71.25
  -4  -3  10  655.50   50.19
   4   3 -10  748.52   55.43
   4   3 -10  705.83   49.80
  -4  -3  10  772.38   55.94
  -4  -3   9   98.92   18.94
  -4  -3   9  158.24   22.74
   4   3  -9   95.79   18.82
   4   3  -9  127.94   19.17
   4   3  -9  136.75   17.33
  -4  -3   8 1652.72   76.73
   4   3  -8 1603.70   80.03
   4   3  -8 1778.86   74.29
   4   3  -8 1846.97   73.77
  -4  -3   8 1606.71   79.05
  -4  -3   7 1007.90   55.13
   4   3  -7 1059.82   59.49
   4   3  -7 1077.15   51.47
   4   3  -7 1095.22   54.75
  -4  -3   7 1060.78   58.43
  -4  -3   6  171.57   20.80
  -4  -3   6  168.74   14.66
   4   3  -6  176.27   22.00
   4   3  -6  168.76   17.07
   4   3  -6  179.92   20.68
  -4  -3   6  147.96   19.78
   4   3  -5  967.27   35.23
  -4  -3   5  958.86   49.31
   4   3  -5  930.68   51.10
   4   3  -5  973.01   51.40
   4   3  -5  949.44   40.17
  -4  -3   5  949.39   49.86
  -4  -3   5  967.03   39.49
   4   3  -4 1525.61   53.10
   4   3  -4 1487.14   64.58
   4   3  -4 1462.06   66.25
  -4  -3   4 1582.04   55.04
  -4  -3   4 1426.32   61.74
  -4  -3   4 1494.55   63.61
   4   3  -3  251.59   20.08
  -4  -3   3  239.65   22.27
   4   3  -3  225.17   21.40
   4   3  -3  248.14   24.60
  -4  -3   3  250.00   19.27
  -4  -3   3  261.65   22.12
   4   3  -2  520.30   31.15
   4   3  -2  490.40   35.40
  -4  -3   2  542.80   31.09
  -4  -3   2  503.90   30.07
   4   3  -2  551.80   32.51
   4   3  -1  108.60   15.30
  -4  -3   1  106.25    7.91
   4   3  -1   98.44   12.02
  -4  -3   1  114.29   14.40
   4   3  -1  115.43   16.85
  -4  -3   0  355.28   17.18
   4   3   0  306.00   20.19
   4   3   0  317.77   28.37
   4   3   0  320.83   22.93
  -4  -3   0  310.81   25.80
   4   3   0  342.25   28.86
   4   3   1    9.44    6.46
  -4  -3  -1   15.51    7.30
   4   3   1   21.06    4.64
  -4  -3  -1   18.53    4.35
   4   3   1   25.93    7.61
   4   3   1   15.01    7.87
   4   3   2    6.93    6.17
  -4  -3  -2   14.50    4.47
   4   3   2   12.98    5.61
   4   3   2    6.53    6.95
  -4  -3  -2   17.18    7.91
  -4  -3  -3  294.73   22.53
   4   3   3  272.70   25.83
   4   3   3  246.94   24.86
  -4  -3  -3  243.21   27.10
   4   3   3  291.20   31.31
   4   3   4    1.41    6.29
  -4  -3  -4   18.19    6.69
   4   3   4   22.40    8.89
   4   3   4   13.01    6.10
  -4  -3  -4   13.07    8.54
   4   3   5   47.70   14.97
  -4  -3  -5   57.63   12.07
   4   3   5   52.51   13.02
  -4  -3  -5   68.00   16.48
   4   3   6  843.04   61.91
   4   3   6  948.12   60.11
  -4  -3  -6  823.88   60.19
   4   3   7  209.77   31.07
   4   3   7  140.85   23.62
  -4  -3  -7  129.13   24.32
   4   3   8    3.35    7.58
   4   3   8   -6.53    7.99
  -4  -3  -8    4.20    7.86
   4   3   9  239.90   36.03
   4   3   9  283.19   38.07
  -4  -3  -9  262.69   37.22
   4   3  10  521.51   55.11
   4   3  10  502.08   53.89
  -4  -3 -10  514.35   54.78
  -4  -4  15  161.92   31.13
  -4  -4  15  272.16   40.26
   4   4 -15  250.17   38.45
   4   4 -15  184.17   32.69
  -4  -4  15  172.38   32.24
  -4  -4  14   72.99   20.16
   4   4 -14   94.20   22.67
  -4  -4  14   71.74   21.09
   4   4 -14   97.34   23.07
  -4  -4  14   40.11   16.52
  -4  -4  13    3.35    5.66
   4   4 -13   -2.35    6.68
   4   4 -13   11.50    8.59
  -4  -4  12  457.80   45.50
   4   4 -12  464.93   47.66
   4   4 -12  523.08   47.00
  -4  -4  12  458.81   47.31
  -4  -4  11  471.16   43.51
   4   4 -11  410.17   39.22
   4   4 -11  353.33   40.57
  -4  -4  11  367.42   40.46
  -4  -4  10  270.73   31.41
   4   4 -10  243.09   32.31
   4   4 -10  321.72   32.51
  -4  -4  10  286.06   34.22
  -4  -4   9  190.59   26.37
  -4  -4   9  154.06   22.70
   4   4  -9  150.67   23.82
   4   4  -9  122.11   18.61
   4   4  -9  185.52   22.17
  -4  -4   8  530.84   40.49
   4   4  -8  566.67   45.05
   4   4  -8  498.55   35.47
   4   4  -8  565.64   39.46
  -4  -4   8  490.16   41.20
  -4  -4   7  757.06   47.32
   4   4  -7  714.94   49.41
   4   4  -7  763.24   47.19
   4   4  -7  769.43   41.17
  -4  -4   7  756.24   49.60
  -4  -4   7  765.86   38.96
  -4  -4   6   24.93    8.83
  -4  -4   6   20.96    7.11
  -4  -4   6   18.37    8.15
   4   4  -6   20.62    9.48
   4   4  -6   18.43    5.59
   4   4  -6   12.21    6.61
   4   4  -5 1125.79   41.32
  -4  -4   5  905.79   49.93
   4   4  -5  972.29   54.05
   4   4  -5  904.37   52.38
   4   4  -5  929.23   38.87
  -4  -4   5  963.72   52.37
  -4  -4   5 1056.23   45.64
  -4  -4   4  769.46   44.83
   4   4  -4  853.72   47.17
   4   4  -4  802.60   48.60
  -4  -4   4  790.03   44.96
  -4  -4   4  800.85   40.07
   4   4  -4  858.74   39.14
  -4  -4   3   12.01    5.94
   4   4  -3    9.31    5.39
  -4  -4   3    8.59    5.40
  -4  -4   3    9.33    5.75
   4   4  -3   16.23    7.61
   4   4  -3    6.20    5.43
   4   4  -2  578.91   40.53
   4   4  -2  554.57   34.29
  -4  -4   2  600.88   35.83
   4   4  -2  602.65   36.76
   4   4  -1  666.14   36.28
   4   4  -1  713.26   45.46
  -4  -4   1  727.71   41.57
   4   4  -1  693.59   42.44
  -4  -4   0    2.95    3.97
   4   4   0    4.36    5.96
   4   4   0    6.08    3.51
   4   4   0    7.25    5.72
   4   4   1  627.29   43.34
   4   4   1  745.23   38.45
  -4  -4  -1  686.25   44.21
   4   4   1  718.47   47.94
   4   4   2  341.54   30.99
   4   4   2  334.49   26.91
  -4  -4  -2  355.05   32.67
   4   4   2  338.80   34.03
   4   4   3   36.28   11.49
   4   4   3   52.86   11.69
   4   4   3   56.50   12.42
  -4  -4  -3   47.57   12.56
   4   4   4  190.53   28.00
   4   4   4  256.42   26.09
   4   4   4  213.14   24.71
  -4  -4  -4  201.69   27.50
   4   4   5  357.95   34.09
  -4  -4  -5  349.16   37.48
   4   4   5  334.10   38.46
   4   4   6  124.95   23.97
   4   4   6  143.71   23.04
  -4  -4  -6  166.23   27.88
   4   4   7   27.44   12.62
   4   4   7   32.82   12.73
  -4  -4  -7   24.08   11.00
   4   4   8   37.73   15.24
   4   4   8   25.51   12.30
  -4  -4  -8   27.34   14.38
   4   4   9  578.63   57.72
   4   4   9  557.66   54.12
  -4  -4  -9  487.91   53.47
   4   4  10  465.83   51.97
  -4  -5  15  245.16   37.37
   4   5 -15  224.19   35.71
   4   5 -15  221.58   37.20
  -4  -5  15  201.08   34.98
  -4  -5  14   -5.69    6.66
  -4  -5  14   26.11   12.97
   4   5 -14    1.25    9.02
   4   5 -14   -4.24    7.73
  -4  -5  14   13.60   11.31
  -4  -5  13  177.74   30.10
   4   5 -13  231.00   35.63
   4   5 -13  177.84   28.52
  -4  -5  13  189.33   29.89
  -4  -5  13  202.83   32.72
  -4  -5  12  788.07   60.75
   4   5 -12  831.32   65.79
   4   5 -12  796.68   58.50
  -4  -5  12  799.43   64.02
  -4  -5  11  158.44   25.71
   4   5 -11  140.54   22.98
   4   5 -11  164.98   27.92
  -4  -5  11  172.06   28.29
  -4  -5  10    1.70    6.59
   4   5 -10    1.21    6.14
  -4  -5  10    9.30    6.86
   4   5 -10    4.37    5.28
   4   5 -10    9.44    7.15
  -4  -5   9  195.03   27.63
  -4  -5   9  151.35   22.44
   4   5  -9  167.19   26.70
   4   5  -9  239.16   25.44
   4   5  -9  245.54   27.18
  -4  -5   8  183.43   25.69
  -4  -5   8  193.98   24.56
   4   5  -8  153.58   23.82
   4   5  -8  204.47   21.65
   4   5  -8  149.79   21.29
  -4  -5   7  196.61   23.86
  -4  -5   7  227.29   22.00
   4   5  -7  199.08   26.28
   4   5  -7  206.09   25.39
   4   5  -7  234.76   20.92
  -4  -5   7  244.02   28.39
  -4  -5   6    0.35    4.06
  -4  -5   6   -1.12    5.11
  -4  -5   6    8.20    5.69
   4   5  -6   -0.71    5.65
   4   5  -6    3.72    3.60
   4   5  -6   -2.55    7.29
  -4  -5   5  278.89   26.80
   4   5  -5  242.45   26.67
   4   5  -5  280.58   29.52
  -4  -5   5  217.32   25.33
  -4  -5   5  260.61   23.44
   4   5  -5  271.47   20.84
  -4  -5   4  604.64   40.30
   4   5  -4  604.37   41.19
   4   5  -4  625.03   44.89
  -4  -5   4  650.91   42.46
  -4  -5   4  644.39   38.43
   4   5  -4  597.88   35.28
  -4  -5   3   60.38   12.04
  -4  -5   3   68.91   13.44
   4   5  -3   85.24   14.68
   4   5  -3   83.12   16.35
   4   5  -3   81.62   13.77
  -4  -5   3   82.57   14.40
   4   5  -2  346.64   32.89
  -4  -5   2  364.46   29.57
   4   5  -2  377.56   30.77
   4   5  -1  694.85   48.21
  -4  -5   1  760.04   45.76
   4   5  -1  708.66   45.71
  -4  -5   0   38.94   11.18
   4   5   0   38.55   11.16
   4   5   0   36.12   11.24
   4   5   1  595.55   45.10
   4   5   1  712.05   37.33
  -4  -5  -1  694.91   47.09
   4   5   1  662.36   48.88
   4   5   2  679.64   47.78
   4   5   2  683.68   39.68
  -4  -5  -2  731.61   50.50
   4   5   2  678.78   51.66
  -4  -5  -3   10.11    7.54
   4   5   3   11.07    8.35
   4   5   3   28.77    9.26
   4   5   3   22.57    9.90
   4   5   4  630.29   45.27
   4   5   4  581.03   42.25
  -4  -5  -4  588.08   49.33
   4   5   4  605.52   52.21
   4   5   5  469.40   39.89
  -4  -5  -5  461.81   45.37
   4   5   5  508.50   49.30
  -4  -5  -6   79.37   18.70
   4   5   6   40.40   15.23
   4   5   6   70.70   16.76
   4   5   7  117.16   25.92
  -4  -5  -7  104.40   23.65
   4   5   8  390.32   48.17
  -4  -5  -8  416.12   48.86
  -4  -6  15  242.25   37.10
   4   6 -15  267.78   38.12
  -4  -6  14   -1.51    6.98
   4   6 -14   35.90   14.52
  -4  -6  14   31.43   14.13
   4   6 -14   13.14   10.63
  -4  -6  13  945.03   69.95
   4   6 -13  778.52   68.04
   4   6 -13  961.79   67.65
  -4  -6  13  893.46   72.23
   4   6 -12  187.18   32.29
   4   6 -12  187.50   27.67
  -4  -6  12  198.22   32.48
  -4  -6  11    2.91    7.10
   4   6 -11    1.31    8.92
   4   6 -11   -0.77    4.89
  -4  -6  11   -3.77    7.96
  -4  -6  10  437.93   41.56
   4   6 -10  426.88   45.05
   4   6 -10  481.90   39.00
   4   6 -10  535.32   43.14
  -4  -6  10  466.87   46.37
   4   6  -9  445.51   44.46
   4   6  -9  470.93   40.88
  -4  -6   9  449.42   39.96
  -4  -6   9  457.48   43.82
  -4  -6   8  157.69   22.92
   4   6  -8  163.97   25.89
   4   6  -8  221.63   27.75
  -4  -6   8  204.18   23.31
  -4  -6   8  240.39   30.60
  -4  -6   7    2.24    4.76
  -4  -6   7   13.51    8.56
  -4  -6   7    4.75    6.16
   4   6  -7   10.49    8.94
   4   6  -7   12.89    7.51
  -4  -6   6  266.85   27.94
   4   6  -6  265.19   30.41
   4   6  -6  264.04   30.60
  -4  -6   6  263.39   29.90
  -4  -6   6  276.26   26.54
   4   6  -5   47.87    9.65
  -4  -6   5   50.99   12.22
  -4  -6   5   47.04   12.10
   4   6  -5   53.15   13.60
   4   6  -5   86.79   17.53
  -4  -6   5   31.61   10.80
  -4  -6   4    2.68    6.17
  -4  -6   4    1.02    5.45
  -4  -6   4    4.22    6.06
   4   6  -4    4.60    6.16
   4   6  -4    4.71    5.20
  -4  -6   3  267.58   27.50
   4   6  -3  215.59   27.72
  -4  -6   3  295.74   28.11
   4   6  -3  298.29   27.90
   4   6  -2  151.79   21.28
  -4  -6   2  219.56   24.76
   4   6  -2  151.90   23.22
   4   6  -1   47.05   12.95
  -4  -6   1   23.58    9.86
   4   6  -1   21.79    9.28
   4   6   0   77.79   17.05
  -4  -6   0   50.34   13.84
   4   6   0   50.24   13.46
   4   6   1  536.46   44.37
  -4  -6  -1  481.66   41.25
   4   6   1  476.40   43.19
   4   6   2  454.92   40.95
  -4  -6  -2  499.51   44.03
   4   6   2  600.38   50.24
  -4  -6  -3   10.78    7.76
   4   6   3   31.28   11.64
   4   6   3   31.30   11.39
   4   6   4  733.40   52.35
  -4  -6  -4  693.64   56.95
   4   6   4  830.91   64.35
  -4  -6  -5 1037.95   72.82
   4   6   5 1089.43   77.83
   4   6   6   10.62    9.46
  -4  -6  -6    6.32    7.55
  -4  -6  -7  218.65   35.00
   4   6   7  255.70   39.07
  -4  -7  13  492.88   49.80
   4   7 -13  475.19   53.34
  -4  -7  13  458.80   51.97
  -4  -7  12   66.09   19.22
  -4  -7  12  111.49   22.62
   4   7 -12  100.46   24.93
  -4  -7  11   11.47    9.06
  -4  -7  11   36.26   13.39
   4   7 -11    8.90    8.21
  -4  -7  10  412.68   40.75
   4   7 -10  468.79   48.42
   4   7 -10  470.74   43.02
  -4  -7  10  404.04   44.69
  -4  -7   9  494.23   42.75
   4   7  -9  420.53   44.97
   4   7  -9  472.42   43.70
  -4  -7   9  560.19   50.35
  -4  -7   8   28.95   11.84
  -4  -7   8   45.43   12.64
  -4  -7   8   54.16   13.86
   4   7  -8   37.60   13.51
   4   7  -8   30.55   11.04
  -4  -7   7  807.23   52.95
   4   7  -7  807.47   59.08
   4   7  -7  743.20   55.52
  -4  -7   7  856.23   52.56
  -4  -7   7  881.36   60.07
   4   7  -6  527.80   45.42
  -4  -7   6  607.18   44.32
   4   7  -6  588.30   48.89
  -4  -7   6  587.77   47.52
  -4  -7   6  551.74   41.74
  -4  -7   5    2.40    6.76
  -4  -7   5    2.46    5.41
  -4  -7   5   -0.43    5.04
   4   7  -5    4.50    6.48
  -4  -7   4  958.44   56.78
   4   7  -4  970.48   63.95
  -4  -7   4  907.67   58.50
  -4  -7   4  948.73   56.44
   4   7  -4  999.68   55.13
   4   7  -3  111.87   18.96
  -4  -7   3  150.25   22.05
   4   7  -3  110.59   21.28
  -4  -7   3  116.42   19.52
   4   7  -2    7.66    7.28
  -4  -7   2    7.76    5.63
   4   7  -2   -0.78    6.66
   4   7  -1  289.66   33.86
  -4  -7   1  235.09   28.86
   4   7  -1  220.51   28.48
   4   7   0  523.16   46.46
  -4  -7   0  528.66   45.00
   4   7   0  582.95   48.43
   4   7   1  415.59   41.47
  -4  -7  -1  441.57   42.29
   4   7   1  416.37   43.14
  -4  -7  -2   -3.54    8.33
   4   7   2    7.00    7.03
   4   7   2   -1.69    6.87
   4   7   3  548.29   47.45
   4   7   3  568.47   53.69
  -4  -7  -3  460.66   46.42
  -4  -7  -4  497.93   49.69
   4   7   4  478.12   50.75
   4   7   5  285.22   41.05
  -4  -7  -5  272.12   37.79
  -4  -7  -6   26.21   14.20
   4   7   6   50.49   18.87
  -4  -8  13    8.26   11.68
  -4  -8  12   -0.93    8.15
   4   8 -12    7.98   10.53
  -4  -8  11   80.45   22.20
   4   8 -11   33.36   13.89
  -4  -8  10  333.80   37.00
   4   8 -10  280.78   39.05
   4   8 -10  358.05   39.73
  -4  -8  10  372.35   43.74
  -4  -8   9   37.47   14.32
   4   8  -9   26.97   13.39
   4   8  -9   27.58   12.20
  -4  -8   9   12.90    8.15
  -4  -8   8  145.07   22.82
  -4  -8   8  166.74   24.26
   4   8  -8  192.01   29.73
  -4  -8   8  121.98   24.31
   4   8  -8  111.22   22.72
  -4  -8   7  397.85   37.58
   4   8  -7  404.33   42.62
   4   8  -7  354.31   40.18
  -4  -8   7  464.59   40.67
  -4  -8   7  412.95   42.67
  -4  -8   6   16.13    7.44
   4   8  -6   14.70    9.05
  -4  -8   6   35.30   11.38
   4   8  -6   14.96    8.68
  -4  -8   5  154.33   25.13
  -4  -8   5  104.59   18.63
  -4  -8   5  137.89   21.39
   4   8  -5  108.79   22.09
  -4  -8   4  773.32   52.96
   4   8  -4  745.03   59.29
  -4  -8   4  824.46   58.03
  -4  -8   4  850.62   56.63
   4   8  -4  810.63   52.98
  -4  -8   3  335.88   33.96
   4   8  -3  263.00   34.57
  -4  -8   3  372.73   36.92
   4   8  -3  294.26   32.53
   4   8  -2   57.03   15.48
  -4  -8   2   71.89   17.44
  -4  -8   2   60.48   14.78
   4   8  -2   45.03   15.08
   4   8  -1  788.26   60.65
  -4  -8   1  751.27   56.42
   4   8  -1  756.52   57.59
   4   8   0  915.03   66.29
  -4  -8   0  823.45   60.57
   4   8   0  885.69   64.87
   4   8   1    6.58    7.82
  -4  -8  -1    2.97    6.38
   4   8   1   10.69   11.82
   4   8   2  994.57   69.54
  -4  -8  -2 1050.53   72.31
   4   8   2  972.72   72.99
   4   8   3  659.31   55.44
  -4  -8  -3  598.43   55.89
   4   8   3  465.63   51.76
   4   8   4  247.25   38.40
  -4  -8  -4  210.05   33.94
  -4  -8  -5   13.01    9.70
   4   8   5   28.34   15.11
  -4  -9  11   52.66   17.69
   4   9 -11  100.27   24.79
  -4  -9  10   -6.05    7.91
   4   9 -10    3.37    5.74
   4   9 -10   -5.75    8.21
  -4  -9   9   70.11   19.92
   4   9  -9  109.91   25.56
   4   9  -9   72.85   19.15
  -4  -9   8   28.36   12.09
  -4  -9   8   26.62   11.71
   4   9  -8   50.51   17.03
   4   9  -8   42.18   15.59
  -4  -9   7    7.52    9.27
  -4  -9   7  -10.48    8.06
  -4  -9   7   16.15    9.71
   4   9  -7   -2.56    8.52
   4   9  -7    3.44    8.33
  -4  -9   6   -8.05    7.84
  -4  -9   6    8.49    7.60
  -4  -9   6    3.40    7.30
   4   9  -6  -14.84   10.95
  -4  -9   5  218.60   31.30
  -4  -9   5  247.59   30.10
  -4  -9   5  182.22   27.16
   4   9  -5  210.59   32.64
  -4  -9   4  233.52   29.27
   4   9  -4  199.47   31.93
  -4  -9   4  263.75   32.95
   4   9  -3   69.72   17.73
  -4  -9   3   57.83   15.22
   4   9  -3   79.81   20.61
  -4  -9   3   77.02   18.54
   4   9  -2  104.92   21.97
  -4  -9   2  137.13   25.22
  -4  -9   2  105.28   20.15
   4   9  -2   91.74   22.39
   4   9  -1  924.58   70.72
  -4  -9   1  958.71   67.89
   4   9  -1 1001.25   70.66
   4   9   0  344.24   42.39
  -4  -9   0  391.02   42.51
   4   9   0  287.52   38.64
   4   9   1   97.48   23.36
  -4  -9  -1  114.97   24.61
   4   9   1   75.82   20.58
   4   9   2  667.50   59.48
  -4  -9  -2  676.47   61.06
   4   9   2  705.79   64.26
   4   9   3  308.41   44.70
  -4  -9  -3  329.76   42.87
  -4 -10  10   34.09   15.06
   4  10 -10   19.46   11.99
   4  10 -10   45.89   16.79
  -4 -10   9  186.78   32.66
  -4 -10   9  225.20   33.16
   4  10  -9  209.86   35.54
   4  10  -9  260.25   38.01
  -4 -10   8  105.14   22.67
   4  10  -8   92.97   22.57
   4  10  -8   61.73   19.30
  -4 -10   8  110.65   24.59
   4  10  -7    2.43    6.48
   4  10  -7   -2.85    7.09
  -4 -10   6  185.71   29.62
   4  10  -6  225.82   35.28
  -4 -10   6  206.55   32.63
   4  10  -5  256.76   38.33
  -4 -10   5  305.46   39.38
  -4 -10   5  271.52   36.04
   4  10  -4   38.39   15.81
  -4 -10   4   24.40   12.10
   4  10  -3   22.90   12.31
  -4 -10   3   19.85   11.20
  -4 -10   3   59.55   15.88
   4  10  -3   47.85   17.68
   4  10  -2  164.88   29.01
  -4 -10   2  175.98   27.13
  -4 -10   2  168.24   29.34
   4  10  -2  145.69   29.71
  -4 -10   1  286.04   35.97
   4  10  -1  284.68   40.45
  -4 -10   1  312.18   40.44
   4  10  -1  341.15   42.87
   4  10   0   74.84   20.19
  -4 -10   0  100.56   24.07
   4  10   0   61.95   19.15
   4  10   1   29.06   14.19
  -4 -10  -1   72.58   20.48
   4  10   1   76.71   20.72
   4  10   2  230.81   38.72
   4  10   2  276.83   39.69
  -4 -11   8   60.18   17.97
   4  11  -8   62.82   22.02
   4  11  -8   96.15   24.74
  -4 -11   7  109.53   24.63
   4  11  -7   94.54   24.00
  -4 -11   7   80.05   21.69
   4  11  -7   91.70   24.88
  -4 -11   6  838.14   67.83
   4  11  -6  707.44   67.20
  -4 -11   6  670.06   62.91
   4  11  -5  223.23   37.18
  -4 -11   5  270.43   39.09
  -4 -11   5  275.77   38.60
  -4 -11   4   19.99   11.70
   4  11  -4   12.14   14.13
  -4 -11   4   13.38    7.69
  -4 -11   3  199.30   33.35
   4  11  -3  223.56   37.46
   4  11  -2  448.04   53.66
  -4 -11   2  491.21   52.49
   4  11  -2  368.36   45.30
   4  11  -1  109.34   25.74
   4  11  -1   95.15   24.78
   4  11   0   44.05   18.67
   5 -12   0  324.47   42.98
   5 -12   1   30.89   13.77
   5 -12   2   92.96   22.55
   5 -12   3  180.88   31.89
  -5  11   6   40.36   17.05
  -5  11   5   69.77   22.82
  -5  11   4  275.62   39.84
   5 -11  -4  271.50   39.84
  -5  11   4  228.48   38.22
   5 -11  -3  164.97   30.58
  -5  11   3  210.95   35.68
   5 -11  -2   11.94    8.57
  -5  11   2   20.69   13.98
   5 -11  -2   12.23    7.57
  -5  11   1  391.09   48.60
   5 -11  -1  445.96   48.84
  -5  11   0  362.68   47.22
   5 -11   0  491.18   50.40
   5 -11   1  -12.11    9.30
   5 -11   1    8.15    9.06
  -5  11  -1    6.09   11.10
  -5  11  -2  490.38   46.58
   5 -11   2  417.28   44.86
   5 -11   2  394.99   43.78
  -5  11  -2  406.30   48.39
  -5  11  -3  652.91   55.24
   5 -11   3  620.27   57.25
   5 -11   3  656.58   55.94
  -5  11  -3  660.93   61.83
  -5  11  -4   20.58   11.70
  -5  11  -4   26.54   11.94
   5 -11   4   18.03   10.32
  -5  11  -5    6.08    8.85
  -5  11  -5   19.29   10.87
   5 -11   5    5.34    6.83
  -5  11  -6  313.81   41.46
  -5  11  -6  282.43   38.77
  -5  10   7   58.27   20.69
   5 -10  -7   20.06   12.51
  -5  10   6  101.28   24.02
  -5  10   6   84.75   23.24
   5 -10  -6   34.62   13.83
  -5  10   5   75.64   20.73
  -5  10   5   82.91   21.95
   5 -10  -5   26.20   13.37
  -5  10   4  109.76   24.29
   5 -10  -4   58.81   17.26
  -5  10   4   71.66   20.54
   5 -10  -3   11.68    8.35
  -5  10   3    3.57    6.61
  -5  10   3   10.26   11.14
   5 -10  -3  -12.07    9.72
   5 -10  -2  163.40   28.41
   5 -10  -2   90.58   20.28
  -5  10   2  138.90   25.68
  -5  10   2   89.07   21.96
  -5  10   1  405.01   46.67
   5 -10  -1  498.15   49.19
   5 -10   0  406.02   40.21
  -5  10   0  351.48   43.73
   5 -10   0  387.78   42.86
   5 -10   1   84.09   19.06
  -5  10  -1   62.93   19.41
   5 -10   1   55.00   15.83
  -5  10  -2  578.54   49.49
   5 -10   2  626.48   53.29
  -5  10  -2  521.18   53.12
   5 -10   2  612.93   52.22
  -5  10  -3  645.87   53.56
   5 -10   3  669.08   53.57
   5 -10   3  588.04   53.57
  -5  10  -3  520.46   52.91
  -5  10  -4   60.39   18.29
  -5  10  -4   39.44   14.99
   5 -10   4   63.06   18.42
  -5  10  -5  293.81   37.58
  -5  10  -5  369.47   43.00
   5 -10   5  310.42   41.02
  -5  10  -6  841.30   66.67
   5 -10   6  852.12   71.59
  -5  10  -6 1000.88   71.67
  -5  10  -7  153.73   28.52
   5 -10   7  136.81   29.38
   5  -9  -9  251.05   37.77
  -5   9   8   89.25   23.63
   5  -9  -8  122.35   25.95
  -5   9   7   72.59   21.22
  -5   9   7   55.72   16.92
   5  -9  -7   49.51   17.06
  -5   9   6  406.32   45.83
   5  -9  -6  513.17   51.37
  -5   9   6  575.20   54.87
  -5   9   5  213.89   32.74
  -5   9   5  201.83   31.84
   5  -9  -5  195.19   31.38
  -5   9   4    2.72    6.61
  -5   9   4   -3.57    8.35
   5  -9  -4   10.94    9.81
  -5   9   3  213.12   30.44
   5  -9  -3  223.00   28.53
   5  -9  -3  234.26   32.95
  -5   9   3  157.89   27.37
  -5   9   2  317.86   38.66
   5  -9  -2  384.05   41.55
   5  -9  -2  449.06   40.78
  -5   9   2  434.53   42.31
  -5   9   1  203.47   30.93
   5  -9  -1  124.45   20.60
   5  -9  -1  195.74   29.26
  -5   9   0   57.03   16.90
   5  -9   0   55.82   14.18
   5  -9   0   33.85   12.68
   5  -9   1  181.70   27.16
   5  -9   1  159.34   24.78
  -5   9  -1  164.93   28.00
   5  -9   2  795.62   56.53
   5  -9   2  713.23   55.12
  -5   9  -2  693.27   57.77
  -5   9  -3  332.92   36.62
   5  -9   3  300.69   36.67
  -5   9  -3  393.62   42.43
   5  -9   3  374.82   37.74
   5  -9   4    6.20    7.09
  -5   9  -4    6.59    8.58
   5  -9   4   -0.97    7.76
  -5   9  -4    4.87    5.75
  -5   9  -5  551.02   50.67
   5  -9   5  621.71   56.15
  -5   9  -5  601.70   52.75
  -5   9  -6  647.76   53.90
  -5   9  -6  591.92   54.03
   5  -9   6  563.88   55.52
  -5   9  -7   70.81   18.89
   5  -9   7   23.27   12.06
  -5   9  -8  188.28   32.53
   5  -9   8  185.02   34.08
   5  -8 -10   52.85   17.18
  -5   8   9  253.86   37.87
   5  -8  -9  174.84   29.85
  -5   8   8   58.01   18.57
  -5   8   8   84.43   20.24
   5  -8  -8   58.14   17.54
  -5   8   7  230.81   34.60
  -5   8   7  238.98   33.17
   5  -8  -7  196.97   31.17
  -5   8   6  699.06   56.05
   5  -8  -6  614.87   54.01
  -5   8   6  673.21   56.98
  -5   8   5  375.44   40.42
   5  -8  -5  387.22   41.49
  -5   8   5  387.56   41.02
  -5   8   4   12.81    9.37
   5  -8  -4   14.99    8.34
  -5   8   4   -3.91    8.62
   5  -8  -4    0.66    7.03
  -5   8   3  994.13   66.67
   5  -8  -3  945.86   64.36
   5  -8  -3  933.27   56.68
  -5   8   3 1017.80   64.48
   5  -8  -2 1008.64   65.28
   5  -8  -2  965.13   54.47
  -5   8   2  860.73   62.20
   5  -8  -2  975.89   58.49
  -5   8   2 1028.38   62.70
  -5   8   1   22.23    9.72
  -5   8   1   23.96   10.90
   5  -8  -1   39.63   11.04
   5  -8  -1   31.33   12.59
   5  -8   0  489.55   40.36
  -5   8   0  526.02   46.22
   5  -8   0  432.01   40.83
   5  -8   1  610.62   47.48
  -5   8  -1  720.41   54.55
   5  -8   1  649.19   49.20
   5  -8   2  255.12   30.19
   5  -8   2  270.83   32.19
  -5   8  -2  247.18   31.41
   5  -8   3   29.91   10.70
  -5   8  -3   24.21    9.74
   5  -8   3   22.81   11.09
  -5   8  -3   15.44    8.13
  -5   8  -4  130.56   22.93
   5  -8   4  223.87   31.37
  -5   8  -4  164.67   25.95
   5  -8   4  213.20   26.67
  -5   8  -5  493.06   45.91
   5  -8   5  407.17   43.66
  -5   8  -5  367.26   38.80
  -5   8  -6  164.97   25.81
  -5   8  -6  223.35   32.03
   5  -8   6  168.47   29.28
  -5   8  -7   22.85   12.23
   5  -8   7    3.67    8.89
  -5   8  -8  240.89   36.10
   5  -8   8  255.09   37.78
  -5   8  -9  216.58   34.82
   5  -8   9  252.53   38.66
  -5   7  11  166.07   32.21
   5  -7 -11   90.42   23.69
  -5   7  10  209.79   34.58
   5  -7 -10  157.89   29.39
   5  -7 -10  165.21   27.81
  -5   7   9   97.53   23.22
   5  -7  -9  108.92   22.16
  -5   7   8   21.93   11.78
  -5   7   8   12.81    8.21
   5  -7  -8   36.38   15.03
   5  -7  -8   19.90    8.80
  -5   7   7  384.13   41.92
   5  -7  -7  313.61   38.49
  -5   7   7  391.22   39.33
   5  -7  -7  338.80   38.02
   5  -7  -6  428.59   44.00
  -5   7   6  446.62   41.95
   5  -7  -6  455.55   43.18
  -5   7   6  367.29   39.98
   5  -7  -5  427.66   42.30
  -5   7   5  415.00   40.28
  -5   7   5  402.75   39.55
   5  -7  -5  354.54   37.60
  -5   7   4  168.34   25.60
   5  -7  -4  204.74   22.78
   5  -7  -4  169.88   25.90
  -5   7   4  224.10   28.57
   5  -7  -3 2307.57   91.13
   5  -7  -3 2359.85   87.54
  -5   7   3 2205.79  101.52
   5  -7  -3 2398.71  104.42
  -5   7   3 2362.92  100.04
   5  -7  -2 1265.78   70.86
   5  -7  -2 1320.60   63.36
  -5   7   2 1271.04   71.89
  -5   7   2 1262.46   66.79
   5  -7  -1    5.85    6.35
  -5   7   1   10.44    7.10
  -5   7   1   11.35    9.64
   5  -7  -1   14.59    8.55
   5  -7   0  983.88   56.36
  -5   7   0  839.60   57.11
   5  -7   0  943.91   58.07
  -5   7   0  957.62   53.37
   5  -7   1 1317.43   69.06
   5  -7   1 1189.79   66.10
  -5   7  -1 1285.24   71.11
   5  -7   2   77.80   17.34
   5  -7   2   86.97   16.96
   5  -7   3  371.33   34.17
  -5   7  -3  326.06   34.51
   5  -7   3  407.73   39.07
  -5   7  -3  390.07   37.25
  -5   7  -4  647.91   50.64
   5  -7   4  637.97   51.78
   5  -7   4  721.25   47.83
  -5   7  -4  715.08   50.72
   5  -7   5  311.39   31.16
  -5   7  -5  244.55   31.63
   5  -7   5  253.21   33.21
   5  -7   5  265.34   30.22
  -5   7  -5  292.58   31.71
  -5   7  -6    5.44    6.52
   5  -7   6    1.85    7.41
   5  -7   6   17.83    9.79
  -5   7  -7  165.39   27.88
   5  -7   7  148.39   27.43
   5  -7   7  216.90   30.05
  -5   7  -8  160.60   28.89
   5  -7   8  183.33   30.83
   5  -7   8  245.73   33.45
  -5   7  -9   17.80   10.35
   5  -7   9    8.54    8.56
   5  -7   9    4.40    7.73
   5  -7  10   34.65   15.15
   5  -7  10   -9.50    9.85
  -5   6  12  163.78   31.55
   5  -6 -12  165.24   31.17
   5  -6 -11  376.04   45.09
  -5   6  11  404.72   48.76
  -5   6  10  155.09   29.16
   5  -6 -10  217.62   33.52
   5  -6 -10  262.68   33.00
  -5   6   9   61.02   17.60
  -5   6   9   64.79   17.79
   5  -6  -9   48.55   16.06
   5  -6  -9   32.42   11.10
  -5   6   8  611.67   48.97
   5  -6  -8  529.19   49.76
  -5   6   8  588.72   46.56
  -5   6   8  600.47   52.85
   5  -6  -8  600.41   48.86
  -5   6   7  797.54   53.37
   5  -6  -7  772.13   58.99
  -5   6   7  801.68   54.59
   5  -6  -7  761.94   54.71
  -5   6   7  723.86   56.47
  -5   6   6  234.59   26.23
   5  -6  -6  208.41   29.14
  -5   6   6  198.12   26.35
   5  -6  -6  208.43   27.70
  -5   6   6  230.83   29.47
  -5   6   5   42.81   12.35
  -5   6   5   60.27   14.47
  -5   6   5   73.34   13.64
   5  -6  -5   64.36   15.42
   5  -6  -5   46.18   13.21
  -5   6   4 1232.54   66.05
   5  -6  -4 1178.56   67.91
   5  -6  -4 1192.16   53.31
  -5   6   4 1159.96   65.85
   5  -6  -4 1137.94   65.39
   5  -6  -4 1187.47   54.86
  -5   6   3 1324.34   66.25
   5  -6  -3 1357.23   71.38
   5  -6  -3 1314.05   58.73
  -5   6   3 1174.06   66.07
   5  -6  -3 1115.02   64.60
  -5   6   2   93.12   17.66
   5  -6  -2   69.97   15.31
  -5   6   2   86.05   14.89
   5  -6  -2   68.30   13.01
  -5   6   1  113.97   18.95
   5  -6  -1  166.23   22.97
   5  -6  -1  130.47   18.53
  -5   6   1  168.32   20.07
   5  -6   0 1216.10   62.94
  -5   6   0 1339.00   68.83
   5  -6   0 1333.52   67.33
  -5   6   0 1320.33   59.56
   5  -6   1 1858.06   83.28
   5  -6   1 1914.09   83.72
  -5   6  -1 1969.04   86.23
   5  -6   2   36.13   10.91
  -5   6  -2   43.28   12.53
   5  -6   2   32.51   10.96
   5  -6   3  786.83   48.38
  -5   6  -3  736.61   50.93
   5  -6   3  720.57   51.30
  -5   6  -3  698.68   47.45
  -5   6  -4 1143.02   67.52
   5  -6   4 1265.59   63.38
   5  -6   4 1172.71   69.72
  -5   6  -4 1222.65   64.33
   5  -6   4 1204.35   64.58
  -5   6  -5   70.40   16.80
  -5   6  -5   86.84   16.17
   5  -6   5   64.50   17.35
   5  -6   5   56.16   14.43
   5  -6   5   58.14   12.64
  -5   6  -6  489.00   45.58
   5  -6   6  456.22   44.63
   5  -6   6  576.35   46.77
  -5   6  -7  533.21   49.67
   5  -6   7  575.46   51.28
   5  -6   7  602.36   50.42
  -5   6  -8   25.71   13.20
   5  -6   8   36.28   15.92
   5  -6   8   48.64   15.83
  -5   6  -9   16.38   11.77
   5  -6   9   -6.42    8.70
   5  -6   9   13.70   11.14
  -5   6 -10   83.77   22.52
   5  -6  10   85.82   22.43
   5  -6  10  117.43   26.51
   5  -5 -13    5.41   11.98
  -5   5  12  403.25   47.97
   5  -5 -12  426.16   48.65
  -5   5  12  356.45   45.76
  -5   5  11  522.98   52.50
   5  -5 -11  598.64   56.34
  -5   5  11  557.60   55.40
  -5   5  10  255.22   36.13
  -5   5  10  263.43   35.19
   5  -5 -10  285.86   37.37
   5  -5 -10  290.14   32.59
  -5   5   9  272.76   35.78
  -5   5   9  302.23   35.54
   5  -5  -9  295.50   36.53
  -5   5   9  304.50   31.53
   5  -5  -9  322.84   33.82
  -5   5   8 1580.32   80.12
   5  -5  -8 1378.60   80.79
  -5   5   8 1474.93   74.28
   5  -5  -8 1396.19   74.26
  -5   5   8 1396.90   80.81
  -5   5   7  455.37   38.88
  -5   5   7  379.24   38.47
   5  -5  -7  419.21   41.33
  -5   5   7  453.70   38.31
   5  -5  -7  426.43   37.73
  -5   5   6   32.30   10.61
  -5   5   6   21.98    8.69
   5  -5  -6   41.33   13.10
   5  -5  -6   26.48   10.20
  -5   5   6   32.22   10.53
  -5   5   5 1648.66   69.23
   5  -5  -5 1550.79   78.20
  -5   5   5 1536.20   75.00
  -5   5   5 1470.16   73.78
   5  -5  -5 1499.86   74.08
   5  -5  -5 1613.82   59.71
  -5   5   4 1954.56   71.82
   5  -5  -4 1754.95   82.93
  -5   5   4 1772.62   81.15
   5  -5  -4 1828.62   66.48
   5  -5  -4 1783.57   68.71
  -5   5   4 1825.33   79.76
   5  -5  -4 1802.73   81.19
  -5   5   3    5.44    4.38
  -5   5   3   20.66    6.38
  -5   5   3   21.09    8.05
   5  -5  -3    9.14    7.14
   5  -5  -3   23.18    7.27
   5  -5  -3    6.74    5.50
  -5   5   2  100.55   11.03
  -5   5   2   98.76   14.99
   5  -5  -2   91.67   15.86
   5  -5  -2   70.10   12.49
  -5   5   2   93.21   16.80
   5  -5  -2   97.11   16.42
  -5   5   1  350.58   31.71
   5  -5  -1  341.10   28.84
   5  -5  -1  381.38   32.22
  -5   5   1  380.40   28.05
  -5   5   0 1059.04   57.49
   5  -5   0 1020.13   55.16
   5  -5   0 1088.87   57.45
  -5   5   0 1147.18   50.03
   5  -5   1  254.19   25.95
   5  -5   1  255.93   27.05
  -5   5  -1  266.28   26.86
   5  -5   2  239.78   26.92
  -5   5  -2  255.41   26.13
   5  -5   2  268.03   26.67
   5  -5   3  767.12   46.45
  -5   5  -3  642.69   46.06
   5  -5   3  700.51   49.17
  -5   5  -3  761.91   46.22
   5  -5   3  736.50   46.69
  -5   5  -4  292.11   31.34
   5  -5   4  249.66   29.74
  -5   5  -4  354.67   30.03
   5  -5   4  333.59   32.16
   5  -5   4  354.30   31.02
  -5   5  -5   21.07    7.39
  -5   5  -5    2.89    5.30
   5  -5   5   12.65    8.49
   5  -5   5    8.72    7.15
   5  -5   5   15.56    7.45
  -5   5  -6  304.65   34.79
   5  -5   6  270.01   33.19
   5  -5   6  316.64   34.60
  -5   5  -7  214.52   30.65
   5  -5   7  214.74   30.11
   5  -5   7  239.90   31.05
  -5   5  -8    2.95    6.25
   5  -5   8   -8.78   11.15
   5  -5   8   -9.95    8.87
  -5   5  -9  212.53   33.59
   5  -5   9  174.37   29.30
   5  -5   9  214.51   33.17
  -5   5 -10  515.77   54.49
   5  -5  10  543.58   53.02
   5  -5  10  541.19   55.69
   5  -5  11   29.99   14.99
  -5   4  13   82.90   22.60
  -5   4  13   90.49   25.00
   5  -4 -13  149.53   30.17
  -5   4  12  267.03   38.64
  -5   4  12  316.04   42.58
   5  -4 -12  349.46   42.69
  -5   4  11  466.72   48.27
   5  -4 -11  441.99   46.75
  -5   4  11  386.51   44.82
  -5   4  10   -3.68    8.87
  -5   4  10    2.10    6.67
   5  -4 -10   -2.98    9.02
   5  -4 -10   12.52    8.01
  -5   4   9  615.04   49.80
   5  -4  -9  623.28   52.20
  -5   4   9  592.33   43.01
   5  -4  -9  580.15   43.71
  -5   4   9  613.88   51.84
  -5   4   8 1163.60   66.57
   5  -4  -8 1033.40   67.24
  -5   4   8 1212.73   63.01
   5  -4  -8 1104.55   61.31
  -5   4   8 1119.18   68.70
  -5   4   7  551.54   42.02
   5  -4  -7  592.52   47.43
  -5   4   7  544.43   40.63
   5  -4  -7  520.64   39.97
  -5   4   7  567.73   45.17
  -5   4   6  237.69   24.97
   5  -4  -6  241.47   28.51
  -5   4   6  250.49   26.66
   5  -4  -6  218.24   24.92
  -5   4   6  220.99   26.45
  -5   4   5 1277.59   58.41
   5  -4  -5 1123.57   63.19
  -5   4   5 1159.61   61.04
   5  -4  -5 1225.24   62.15
  -5   4   5 1257.04   63.14
  -5   4   4 1361.09   56.98
   5  -4  -4 1233.72   64.92
  -5   4   4 1237.20   63.39
   5  -4  -4 1340.96   55.75
   5  -4  -4 1264.91   62.92
  -5   4   4 1419.96   63.94
   5  -4  -3   21.45    8.99
  -5   4   3   27.50    8.51
  -5   4   3   20.05    6.24
   5  -4  -3   18.84    7.83
   5  -4  -3   21.87    7.48
  -5   4   3   34.57   11.58
  -5   4   2  795.98   35.00
   5  -4  -2  743.22   44.81
  -5   4   2  758.85   45.91
   5  -4  -2  751.45   41.66
   5  -4  -2  741.39   45.03
  -5   4   2  712.78   38.91
  -5   4   1 1756.17   62.87
  -5   4   1 1627.83   53.68
   5  -4  -1 1698.12   69.97
  -5   4   1 1665.98   71.81
   5  -4  -1 1568.25   67.71
   5  -4  -1 1589.86   70.54
  -5   4   0  386.67   19.88
  -5   4   0  336.02   28.99
   5  -4   0  395.93   31.25
   5  -4   0  399.24   31.68
  -5   4   0  387.26   24.14
  -5   4  -1  451.45   21.70
   5  -4   1  449.14   33.80
  -5   4  -1  492.16   34.73
   5  -4   1  462.41   35.44
  -5   4  -2  227.76   23.03
   5  -4   2  206.63   24.30
   5  -4   2  214.84   23.62
   5  -4   2  195.31   21.95
  -5   4  -3    6.27    4.54
   5  -4   3    3.00    4.95
  -5   4  -3    4.82    6.12
   5  -4   3   -1.70    7.90
   5  -4   3    2.82    5.69
  -5   4  -4   16.10    6.74
  -5   4  -4   11.91    7.00
   5  -4   4   13.20    8.59
   5  -4   4   27.19   10.40
   5  -4   4    3.71    4.02
  -5   4  -5   28.20    7.81
  -5   4  -5   42.05   13.20
   5  -4   5   17.87   10.53
   5  -4   5   29.77   11.61
   5  -4   5   31.73    9.69
  -5   4  -6   65.45   16.13
   5  -4   6   70.58   16.30
   5  -4   6   51.24   13.84
  -5   4  -7   67.31   16.86
   5  -4   7   66.15   16.84
   5  -4   7   34.28   13.50
  -5   4  -8    6.70    7.38
   5  -4   8    4.06    6.39
   5  -4   8   -2.84    7.23
  -5   4  -9  239.16   34.90
   5  -4   9  266.96   34.91
   5  -4   9  224.12   34.05
  -5   4 -10  106.71   25.17
   5  -4  10  203.25   30.92
   5  -4  10  144.96   28.33
  -5   3  14   -5.02    6.75
  -5   3  14   14.77   12.31
   5  -3 -14    6.14    7.03
  -5   3  13  619.93   60.50
   5  -3 -13  626.94   58.12
   5  -3 -13  661.89   61.13
  -5   3  13  518.48   55.13
  -5   3  12  440.70   48.72
   5  -3 -12  441.02   47.51
   5  -3 -12  393.49   45.22
  -5   3  12  351.35   43.38
  -5   3  11    5.90    7.29
  -5   3  11   20.77   10.49
   5  -3 -11   10.06    8.53
  -5   3  10  295.23   35.67
   5  -3 -10  252.05   33.75
  -5   3  10  226.37   31.85
   5  -3 -10  261.18   27.15
  -5   3   9  651.09   52.35
  -5   3   9  739.51   53.65
  -5   3   9  734.90   46.37
   5  -3  -9  670.10   53.50
   5  -3  -9  669.22   44.26
  -5   3   8  604.51   45.13
   5  -3  -8  496.09   43.79
  -5   3   8  535.66   39.23
   5  -3  -8  537.93   38.50
  -5   3   8  534.97   44.45
  -5   3   7  482.64   38.01
   5  -3  -7  418.89   38.64
  -5   3   7  423.50   34.51
   5  -3  -7  487.90   35.89
  -5   3   7  489.76   40.56
  -5   3   6  196.62   21.99
   5  -3  -6  149.78   22.13
  -5   3   6  131.77   18.81
   5  -3  -6  159.02   19.92
  -5   3   6  166.84   21.94
  -5   3   5 2432.82   85.81
  -5   3   5 2177.30   87.64
   5  -3  -5 2195.14   91.11
   5  -3  -5 2276.91   87.16
  -5   3   5 2289.64   88.88
  -5   3   4  934.20   44.93
  -5   3   4  839.21   48.67
   5  -3  -4  889.81   50.82
   5  -3  -4  896.91   49.21
  -5   3   4  974.84   48.84
  -5   3   3   -5.97    4.58
  -5   3   3    6.61    4.80
   5  -3  -3    0.77    4.54
   5  -3  -3    0.17    4.19
  -5   3   3    3.42    5.01
   5  -3  -3    6.71    5.38
  -5   3   2 1304.43   49.56
  -5   3   2 1367.80   52.60
  -5   3   2 1241.57   59.07
   5  -3  -2 1213.18   57.71
   5  -3  -2 1246.22   58.92
   5  -3  -2 1307.49   56.75
  -5   3   1 2003.79   64.04
  -5   3   1 1952.72   62.17
  -5   3   1 1799.44   74.12
   5  -3  -1 1711.38   69.46
   5  -3  -1 1814.35   73.06
   5  -3  -1 1837.06   75.22
   5  -3   0    3.07    4.84
  -5   3   0    1.94    2.03
  -5   3   0    2.22    3.21
   5  -3   0   10.47    4.74
   5  -3   0    1.39    4.11
  -5   3   0   11.17    6.32
  -5   3  -1  700.59   40.40
   5  -3   1  602.29   39.41
  -5   3  -1  700.44   31.60
   5  -3   1  642.84   41.48
   5  -3   1  670.17   41.58
  -5   3  -2  693.29   39.29
   5  -3   2  622.38   42.25
   5  -3   2  646.52   41.90
   5  -3   2  636.34   40.28
  -5   3  -3   19.16    8.32
   5  -3   3   19.28    8.66
   5  -3   3   10.37    7.23
  -5   3  -3   21.93    6.91
   5  -3   3   14.61    6.99
  -5   3  -4   15.50    7.01
   5  -3   4   17.89    9.64
   5  -3   4   16.65    8.51
   5  -3   4   16.31    6.91
  -5   3  -4   18.18    6.40
  -5   3  -5  328.63   33.18
   5  -3   5  363.74   34.91
   5  -3   5  348.85   34.57
  -5   3  -6   10.50    9.03
   5  -3   6   20.38   10.22
   5  -3   6   12.56    8.62
  -5   3  -7   97.94   20.76
   5  -3   7  160.94   24.45
   5  -3   7  155.85   25.48
  -5   3  -8  172.13   28.42
   5  -3   8  140.62   24.09
   5  -3   8  157.48   27.58
  -5   3  -9   56.02   17.08
   5  -3   9   49.94   16.50
   5  -3   9   83.38   22.79
  -5   3 -10   26.48   12.49
   5  -3  10   22.35   12.50
  -5   3 -11  139.47   28.62
  -5   2  14  449.55   52.75
   5  -2 -14  335.51   43.40
   5  -2 -14  373.24   47.15
  -5   2  14  398.17   48.67
  -5   2  13 1016.58   76.94
  -5   2  13  956.62   74.21
   5  -2 -13  982.97   72.98
   5  -2 -13  940.25   73.14
  -5   2  12  193.20   31.73
  -5   2  12  134.55   26.72
   5  -2 -12  177.48   29.61
   5  -2 -12  165.10   28.69
  -5   2  11   71.70   18.97
  -5   2  11   37.38   14.18
   5  -2 -11   34.59   13.23
   5  -2 -11   36.66   14.34
  -5   2  10  683.68   55.10
   5  -2 -10  688.85   54.92
  -5   2  10  686.89   44.43
   5  -2 -10  675.56   53.54
  -5   2  10  763.93   56.48
   5  -2  -9  903.93   48.90
  -5   2   9  928.06   59.67
  -5   2   9  989.29   53.42
   5  -2  -9  877.74   60.21
   5  -2  -9  827.83   57.14
  -5   2   9  862.66   59.63
  -5   2   8  416.99   37.11
  -5   2   8  430.96   34.03
   5  -2  -8  456.12   40.65
  -5   2   8  432.30   39.33
   5  -2  -8  492.24   34.23
   5  -2  -7  662.05   40.54
  -5   2   7  730.92   46.70
  -5   2   7  707.45   43.91
   5  -2  -7  677.85   48.42
  -5   2   7  710.90   48.10
  -5   2   6 1120.86   55.83
  -5   2   6 1066.05   54.97
   5  -2  -6 1011.30   57.71
   5  -2  -6 1076.02   53.70
   5  -2  -6 1069.15   52.50
  -5   2   6  987.05   55.39
  -5   2   5 1386.38   60.11
  -5   2   5 1261.47   60.44
  -5   2   5 1494.83   65.01
   5  -2  -5 1267.83   63.41
   5  -2  -5 1291.62   60.82
   5  -2  -5 1289.43   59.00
  -5   2   4  114.44   14.89
   5  -2  -4  131.71   17.92
   5  -2  -4  121.60   17.13
  -5   2   4  123.36   17.05
   5  -2  -4  116.89   15.91
  -5   2   4  142.22   17.15
  -5   2   3   20.74    6.30
   5  -2  -3   12.57    6.85
  -5   2   3   13.65    4.98
   5  -2  -3   20.11    7.53
  -5   2   3   22.32    8.51
   5  -2  -3   24.79    7.98
  -5   2   2  799.00   36.80
  -5   2   2  788.96   35.50
   5  -2  -2  720.47   41.61
  -5   2   2  750.69   42.78
   5  -2  -2  677.56   38.57
   5  -2  -2  777.25   41.46
   5  -2  -2  748.73   43.84
  -5   2   1  904.95   40.16
  -5   2   1  964.28   48.52
   5  -2  -1  922.89   43.44
   5  -2  -1  947.28   47.54
   5  -2  -1  878.62   48.83
   5  -2  -1  941.41   48.48
  -5   2   1 1018.26   37.38
  -5   2   0   24.14    4.41
   5  -2   0   27.26    9.04
  -5   2   0   17.12    5.22
   5  -2   0   22.94    6.41
  -5   2   0   22.53    7.16
   5  -2   0   27.24    7.98
   5  -2   0   13.02    6.52
  -5   2  -1  805.53   42.52
   5  -2   1  804.12   46.04
   5  -2   1  841.95   46.31
   5  -2   1  822.93   46.38
   5  -2   1  877.49   47.21
  -5   2  -2 1022.76   52.03
  -5   2  -2 1013.86   47.68
   5  -2   2 1000.08   53.61
   5  -2   2 1007.91   51.56
   5  -2   2 1005.18   53.50
   5  -2   2 1062.18   53.83
   5  -2   3   16.63    6.72
  -5   2  -3   34.94    9.66
   5  -2   3   37.69   10.79
  -5   2  -3   20.33    5.74
   5  -2   3   43.36   12.23
  -5   2  -4 1117.32   60.21
  -5   2  -4 1170.20   49.80
   5  -2   4 1106.99   60.20
   5  -2   4 1107.07   61.80
  -5   2  -5  661.30   46.87
   5  -2   5  604.47   43.96
   5  -2   5  581.48   45.66
  -5   2  -6   19.17    8.47
   5  -2   6   15.69    7.87
   5  -2   6   21.26   10.78
  -5   2  -7  367.50   38.34
   5  -2   7  354.89   35.79
   5  -2   7  394.17   41.19
  -5   2  -8  488.92   46.95
   5  -2   8  464.66   42.58
   5  -2   8  490.95   48.51
  -5   2  -9    5.96    7.53
   5  -2   9    8.25    9.15
  -5   2 -10   90.15   22.86
   5  -2  10   74.90   20.91
  -5   2 -11  284.37   40.95
   5  -1 -15  -10.09    9.35
  -5   1  14  352.36   46.09
   5  -1 -14  324.38   42.82
   5  -1 -14  283.35   39.29
  -5   1  14  346.06   44.68
  -5   1  13  447.37   49.75
   5  -1 -13  458.85   48.32
   5  -1 -13  505.83   51.29
  -5   1  13  407.59   47.02
  -5   1  12  148.93   27.30
  -5   1  12  109.51   23.81
   5  -1 -12  160.18   27.62
   5  -1 -12  159.24   27.54
  -5   1  11  248.00   32.92
  -5   1  11  267.29   34.15
   5  -1 -11  194.38   29.99
   5  -1 -11  202.74   29.69
  -5   1  10 2020.65   97.16
  -5   1  10 1992.56   82.36
   5  -1 -10 1849.36   94.95
   5  -1 -10 1942.21   94.43
  -5   1  10 2006.11   97.98
  -5   1   9  911.39   59.07
   5  -1  -9  918.67   46.81
  -5   1   9  972.26   52.71
   5  -1  -9  893.21   60.24
   5  -1  -9  891.38   57.73
  -5   1   9  984.85   62.31
   5  -1  -8   66.86   11.76
   5  -1  -8   66.92   12.38
  -5   1   8   46.44   12.44
  -5   1   8   55.75   11.97
   5  -1  -8   98.50   19.44
  -5   1   8   62.17   15.24
   5  -1  -8   72.63   15.50
  -5   1   7 1720.46   76.78
   5  -1  -7 1663.51   67.68
   5  -1  -7 1681.80   80.17
   5  -1  -7 1887.87   73.14
  -5   1   7 1728.71   79.16
   5  -1  -6  899.11   45.89
  -5   1   6  918.79   50.10
   5  -1  -6  923.74   53.46
  -5   1   6  924.13   52.03
   5  -1  -6  939.58   49.58
   5  -1  -5    5.61    4.93
  -5   1   5    7.52    5.49
   5  -1  -5   13.64    7.27
  -5   1   5    6.25    5.52
   5  -1  -5    9.50    5.04
   5  -1  -4  460.20   32.73
   5  -1  -4  456.90   33.18
   5  -1  -4  471.95   32.00
  -5   1   4  451.70   15.61
  -5   1   4  487.73   31.42
  -5   1   4  468.12   30.96
  -5   1   3  392.15   26.54
   5  -1  -3  374.34   27.69
  -5   1   3  388.90   25.32
   5  -1  -3  400.74   30.70
   5  -1  -3  355.84   27.69
  -5   1   2  886.49   40.71
   5  -1  -2  782.26   39.51
   5  -1  -2  782.43   44.93
   5  -1  -2  734.58   41.99
  -5   1   2  846.92   35.71
   5  -1  -1   18.96    7.78
  -5   1   1   12.58    3.79
  -5   1   1    4.98    3.12
   5  -1  -1    3.17    3.68
   5  -1  -1    5.97    7.63
   5  -1  -1    8.74    5.98
  -5   1   0  171.56    9.30
   5  -1   0  148.35   14.11
   5  -1   0  194.05   20.32
   5  -1   0  178.21   20.37
   5  -1   0  149.84   18.54
   5  -1   1  515.57   24.20
   5  -1   1  522.54   35.32
   5  -1   1  493.64   34.57
   5  -1   1  458.77   33.22
   5  -1   1  480.69   34.36
   5  -1   2   95.88   16.58
   5  -1   2   92.69   14.46
  -5   1  -2  108.97   13.82
  -5   1  -2   86.56   13.78
   5  -1   2   98.19   15.48
   5  -1   2   97.76   16.19
   5  -1   3  132.42   19.97
  -5   1  -3  188.84   21.42
  -5   1  -3  200.15   18.28
   5  -1   3  175.51   21.18
   5  -1   3  162.60   18.74
   5  -1   3  170.29   22.05
  -5   1  -4  865.97   50.82
  -5   1  -4  877.39   40.24
   5  -1   4  883.80   55.56
   5  -1   4  910.88   52.25
   5  -1   4  835.70   45.09
   5  -1   4  834.44   52.86
   5  -1   5  232.11   29.21
  -5   1  -5  296.49   30.26
   5  -1   5  325.86   30.95
   5  -1   5  292.63   31.92
   5  -1   6   96.01   19.23
  -5   1  -6   86.12   17.22
   5  -1   6   85.32   16.84
   5  -1   6  122.53   22.33
   5  -1   7  798.85   58.70
  -5   1  -7  736.39   54.82
   5  -1   7  749.47   52.02
   5  -1   7  754.80   58.01
   5  -1   8  571.87   50.64
  -5   1  -8  602.53   51.47
   5  -1   8  530.46   44.22
   5  -1   8  588.12   53.42
   5  -1   9    8.94    6.54
  -5   1  -9   11.04    7.23
   5  -1   9    2.68    7.22
   5  -1  10  560.73   53.95
  -5   1 -10  626.44   57.85
  -5   1 -10  555.52   56.36
   5  -1  10  565.72   57.89
  -5   1 -11  601.98   59.67
  -5   0  15  114.75   26.42
   5   0 -15  107.76   24.91
  -5   0  14  744.60   67.09
   5   0 -14  856.95   68.52
   5   0 -14  706.41   64.09
  -5   0  14  788.25   67.16
  -5   0  13  219.66   34.33
  -5   0  13  216.97   34.80
   5   0 -13  268.60   37.02
   5   0 -13  265.33   36.08
  -5   0  12   46.84   15.17
  -5   0  12    9.07    9.27
   5   0 -12   60.65   17.55
   5   0 -12    7.66    6.72
  -5   0  11  429.30   43.03
   5   0 -11  420.61   43.02
   5   0 -11  372.93   39.59
  -5   0  11  390.09   41.72
  -5   0  10  960.74   62.82
   5   0 -10  970.24   64.68
   5   0 -10  870.09   59.07
  -5   0  10  975.43   64.27
  -5   0   9  236.44   29.26
   5   0  -9  235.35   29.69
   5   0  -9  211.34   26.33
   5   0  -9  233.56   22.94
  -5   0   9  256.46   30.06
   5   0  -9  265.78   22.25
  -5   0   8  556.71   42.53
   5   0  -8  606.74   46.00
   5   0  -8  576.01   41.92
   5   0  -8  627.85   38.66
  -5   0   8  548.34   43.23
   5   0  -8  621.95   35.84
  -5   0   7  748.20   47.13
   5   0  -7  796.48   51.20
   5   0  -7  802.01   44.80
  -5   0   7  729.45   48.33
   5   0  -7  810.26   41.45
  -5   0   6  823.92   46.89
   5   0  -6  755.18   48.01
   5   0  -6  839.78   45.97
  -5   0   6  802.36   47.44
   5   0  -6  778.09   41.24
   5   0  -5    5.12    6.08
  -5   0   5    8.33    5.92
  -5   0   5    2.81    4.55
   5   0  -5    6.57    4.23
   5   0  -5    5.26    5.26
  -5   0   4 1452.22   61.02
   5   0  -4 1379.29   59.63
   5   0  -4 1313.53   60.98
   5   0  -4 1337.02   62.52
  -5   0   4 1505.53   40.36
  -5   0   4 1416.05   59.81
  -5   0   3 1273.89   54.86
   5   0  -3 1294.87   55.80
   5   0  -3 1324.40   60.71
   5   0  -3 1208.04   55.89
  -5   0   3 1315.11   42.62
  -5   0   3 1305.38   52.33
   5   0  -2   68.52   13.08
  -5   0   2   63.65   10.98
   5   0  -2   88.28   12.16
   5   0  -2   78.36   13.12
  -5   0   2   81.93    9.72
  -5   0   2   77.45   10.10
   5   0  -1 1983.84   74.23
  -5   0   1 1967.59   71.15
   5   0  -1 1915.81   64.31
   5   0  -1 1772.63   75.20
  -5   0   1 2022.58   59.61
   5   0  -1 1931.62   76.26
   5   0   0  368.57   29.48
   5   0   0  338.83   20.19
  -5   0   0  372.53   15.59
   5   0   0  331.57   28.52
   5   0   0  392.30   28.91
   5   0   0  404.52   31.01
   5   0   1   85.51   14.31
   5   0   1   85.53    7.78
  -5   0  -1   79.33   11.88
   5   0   1   63.81   12.97
   5   0   1   78.37   13.46
   5   0   1   89.50   14.56
   5   0   2  469.25   37.11
  -5   0  -2  551.16   34.12
   5   0   2  496.40   35.39
   5   0   2  502.45   34.66
   5   0   2  517.00   36.72
  -5   0  -3  313.08   27.06
   5   0   3  325.64   28.82
   5   0   3  313.13   26.53
   5   0   3  305.76   29.40
   5   0   3  274.17   29.49
   5   0   4   45.37   12.65
   5   0   4   40.50    9.62
  -5   0  -4   55.68   12.60
   5   0   4   33.81   10.28
   5   0   4   54.17   13.56
   5   0   5  219.68   28.77
  -5   0  -5  211.95   25.10
   5   0   5  271.50   27.69
   5   0   5  263.98   23.56
   5   0   5  277.20   31.32
   5   0   6  512.52   45.18
  -5   0  -6  469.45   40.31
   5   0   6  515.86   40.15
   5   0   6  457.26   42.70
   5   0   7  881.86   62.40
  -5   0  -7  751.47   55.09
   5   0   7  893.98   54.95
  -5   0  -7  746.96   58.76
   5   0   7  849.36   61.89
   5   0   8   47.62   16.11
  -5   0  -8   38.81   13.86
   5   0   8    3.65    7.24
  -5   0  -8   17.77   11.12
  -5   0  -9   78.85   20.52
   5   0   9   54.38   16.90
  -5   0  -9   60.81   17.73
   5   0  10  676.37   60.44
  -5   0 -10  738.18   62.69
  -5   0 -10  633.43   60.75
   5   0  10  599.87   60.41
  -5   0 -11  203.13   34.76
  -5  -1  15  650.25   64.70
   5   1 -15  695.72   63.59
   5   1 -15  715.63   65.21
  -5  -1  15  583.39   59.84
  -5  -1  14  409.05   48.04
  -5  -1  14  449.23   50.72
   5   1 -14  445.63   49.30
   5   1 -14  502.57   51.93
  -5  -1  13    7.95    7.45
  -5  -1  13    3.92   10.69
   5   1 -13    0.04    7.26
   5   1 -13    0.69    5.72
  -5  -1  12  264.23   34.97
   5   1 -12  260.35   34.96
   5   1 -12  225.05   31.71
  -5  -1  12  251.73   34.61
  -5  -1  11  561.78   50.03
   5   1 -11  642.69   53.40
   5   1 -11  704.55   53.50
  -5  -1  11  663.07   54.43
  -5  -1  10  143.59   24.19
  -5  -1  10  130.92   22.72
   5   1 -10  176.69   26.47
   5   1 -10  141.99   22.51
  -5  -1   9   10.71    7.70
  -5  -1   9   17.02    9.98
   5   1  -9   29.02   10.95
   5   1  -9   21.18   10.39
   5   1  -9   18.47    8.43
  -5  -1   8  171.70   23.54
   5   1  -8  189.50   25.88
   5   1  -8  162.01   21.28
   5   1  -8  205.11   22.09
  -5  -1   8  177.75   24.10
   5   1  -8  187.55   18.14
  -5  -1   7  244.21   26.53
   5   1  -7  226.54   26.94
   5   1  -7  216.82   22.88
   5   1  -7  269.91   25.57
  -5  -1   7  237.56   26.87
   5   1  -7  258.43   21.74
  -5  -1   6  633.42   40.58
   5   1  -6  555.29   40.69
   5   1  -6  568.86   38.40
   5   1  -6  567.36   33.72
  -5  -1   6  522.12   37.94
  -5  -1   5  519.50   35.53
   5   1  -5  510.67   37.02
   5   1  -5  581.96   38.39
  -5  -1   5  545.10   19.98
  -5  -1   5  569.14   36.96
   5   1  -5  525.54   33.42
  -5  -1   4  924.55   48.38
   5   1  -4  994.65   50.85
   5   1  -4  996.79   52.98
  -5  -1   4 1062.31   35.15
  -5  -1   4  999.39   48.23
   5   1  -4  923.42   47.34
   5   1  -3  481.16   31.23
   5   1  -3  428.94   33.61
  -5  -1   3  461.14   23.71
  -5  -1   3  468.23   29.03
  -5  -1   3  476.95   32.21
   5   1  -3  464.24   32.18
   5   1  -3  467.67   28.79
   5   1  -2  297.30   24.56
  -5  -1   2  309.44   25.22
   5   1  -2  354.62   24.47
   5   1  -2  290.32   27.68
  -5  -1   2  354.96   22.23
  -5  -1   2  366.45   23.16
   5   1  -1  809.54   36.00
   5   1  -1  794.19   42.94
   5   1  -1  718.78   44.64
  -5  -1   1  859.64   39.92
  -5  -1   1  787.62   33.44
   5   1   0  500.37   35.72
   5   1   0  525.25   24.74
   5   1   0  460.90   34.87
  -5  -1   0  534.99   33.04
   5   1   0  553.43   34.89
  -5  -1   0  514.10   22.95
  -5  -1  -1  541.21   31.30
   5   1   1  568.43   21.23
   5   1   1  619.81   39.98
  -5  -1  -1  571.52   37.08
   5   1   1  574.68   37.02
  -5  -1  -1  592.70   21.82
   5   1   1  543.61   39.22
   5   1   2 1013.11   58.54
  -5  -1  -2 1169.41   51.41
   5   1   2 1103.52   55.26
  -5  -1  -2 1123.68   57.67
   5   1   2 1015.99   54.65
   5   1   3  455.62   39.13
  -5  -1  -3  457.15   32.27
   5   1   3  488.64   34.76
  -5  -1  -3  485.72   38.51
   5   1   3  468.37   36.99
   5   1   4   10.23    5.44
  -5  -1  -4   12.66    6.41
   5   1   4    6.54    6.83
   5   1   4   16.61    8.45
  -5  -1  -4   11.26    7.89
   5   1   5 1003.18   64.57
  -5  -1  -5  982.36   55.92
  -5  -1  -5  934.07   61.15
   5   1   5  957.18   60.19
   5   1   6  785.41   58.80
  -5  -1  -6  704.16   49.40
  -5  -1  -6  737.53   55.97
   5   1   6  729.38   54.95
  -5  -1  -7   39.66   14.38
   5   1   7   23.38   10.76
  -5  -1  -7   19.31    9.23
   5   1   7   19.65   11.52
   5   1   8  165.74   28.21
  -5  -1  -8  216.40   29.93
   5   1   8  121.51   24.16
  -5  -1  -8  145.01   26.76
   5   1   9  221.48   34.64
  -5  -1  -9  270.95   35.31
  -5  -1  -9  263.79   37.30
   5   1   9  198.27   33.09
   5   1  10  330.37   43.17
  -5  -1 -10  365.29   46.45
   5   1  10  380.07   47.71
  -5  -2  15  804.20   71.28
   5   2 -15  964.76   75.61
   5   2 -15  735.40   66.63
  -5  -2  15  821.25   71.07
  -5  -2  14    8.91    9.17
   5   2 -14   21.98   11.70
   5   2 -14   15.99    9.82
  -5  -2  13   94.93   22.75
  -5  -2  13  129.45   26.44
   5   2 -13  129.55   26.34
   5   2 -13  141.31   26.18
  -5  -2  12  430.34   45.70
   5   2 -12  550.93   51.58
   5   2 -12  579.43   50.36
  -5  -2  12  576.38   52.84
  -5  -2  11  684.63   54.53
   5   2 -11  644.32   53.77
   5   2 -11  627.64   50.53
  -5  -2  11  715.02   57.03
  -5  -2  10   12.56    7.63
   5   2 -10   10.57    8.76
   5   2 -10   -3.45    5.89
  -5  -2   9  340.24   34.62
   5   2  -9  383.22   38.39
   5   2  -9  343.75   32.38
   5   2  -9  404.19   31.86
  -5  -2   9  319.96   34.56
  -5  -2   8  122.91   19.49
  -5  -2   8  149.28   22.47
   5   2  -8  119.91   20.70
   5   2  -8  150.57   20.02
   5   2  -8  131.57   18.50
  -5  -2   7    7.44    7.56
   5   2  -7    5.47    6.47
   5   2  -7    6.48    4.56
  -5  -2   7   12.86    7.92
   5   2  -7    4.10    4.93
  -5  -2   6   19.37    7.06
  -5  -2   6   46.39    6.27
  -5  -2   6   44.65   10.96
   5   2  -6   50.74   12.39
   5   2  -6   56.15   13.28
  -5  -2   5  359.01   30.22
   5   2  -5  339.89   30.21
   5   2  -5  303.76   28.44
  -5  -2   5  362.34   19.41
  -5  -2   5  333.34   28.25
  -5  -2   4   55.17   10.83
   5   2  -4   43.61    8.59
  -5  -2   4   54.38   11.78
   5   2  -4   42.02    9.76
  -5  -2   4   59.93    8.32
   5   2  -4   40.64   10.86
  -5  -2   3   50.04    8.36
  -5  -2   3   58.37   10.51
   5   2  -3   58.87   10.43
  -5  -2   3   54.38   11.58
   5   2  -3   69.58   12.37
   5   2  -3   55.14   12.32
   5   2  -2  456.68   31.57
  -5  -2   2  433.92   32.01
   5   2  -2  470.83   29.56
   5   2  -2  416.61   34.21
  -5  -2   2  470.81   28.28
  -5  -2   2  490.62   28.51
   5   2  -1  320.63   27.74
   5   2  -1  354.70   23.08
   5   2  -1  339.41   30.47
  -5  -2   1  360.41   26.32
  -5  -2   1  318.56   21.56
   5   2   0  275.98   27.03
  -5  -2   0  306.43   20.24
   5   2   0  286.16   18.27
   5   2   0  280.69   27.76
  -5  -2   0  280.21   24.82
   5   2   0  286.99   24.50
  -5  -2   0  293.15   18.90
   5   2   1  390.89   34.25
  -5  -2  -1  438.96   26.33
   5   2   1  406.23   33.32
  -5  -2  -1  396.52   32.02
   5   2   1  487.53   33.58
  -5  -2  -1  444.18   22.38
   5   2   2  819.67   53.36
  -5  -2  -2  970.83   43.94
   5   2   2  833.33   49.50
  -5  -2  -2  815.03   50.48
   5   2   2  859.64   49.19
   5   2   3  844.22   55.94
  -5  -2  -3  809.87   43.46
   5   2   3  839.69   48.80
  -5  -2  -3  859.32   53.59
   5   2   3  771.48   48.89
   5   2   4  247.65   31.17
  -5  -2  -4  244.28   24.30
   5   2   4  300.64   27.32
  -5  -2  -4  220.54   28.20
   5   2   4  274.69   29.68
   5   2   5 1167.59   72.73
  -5  -2  -5 1302.68   63.96
   5   2   5 1220.78   69.52
   5   2   6  735.30   58.43
  -5  -2  -6  777.99   51.34
  -5  -2  -6  716.44   56.51
   5   2   6  750.43   55.95
   5   2   7   35.62   13.96
   5   2   7    7.42   10.60
  -5  -2  -7   21.40   11.81
   5   2   8  255.91   36.37
   5   2   8  323.73   40.08
  -5  -2  -8  243.57   35.42
   5   2   9  601.67   58.54
  -5  -2  -9  495.35   53.88
   5   2   9  598.51   58.26
   5   2  10  104.23   24.18
  -5  -3  15  158.43   31.44
   5   3 -15  177.03   32.40
  -5  -3  15  149.19   29.54
   5   3 -15  153.38   29.52
  -5  -3  14   66.26   19.42
  -5  -3  14   33.27   15.07
   5   3 -14   10.20    9.53
   5   3 -14   66.52   19.16
  -5  -3  13   85.51   22.16
  -5  -3  13   77.50   19.97
   5   3 -13   70.57   19.99
   5   3 -13  100.25   21.49
  -5  -3  12  621.40   54.70
   5   3 -12  806.77   63.12
   5   3 -12  630.46   52.73
  -5  -3  12  703.44   59.27
  -5  -3  11   65.57   17.72
  -5  -3  11   79.03   18.96
   5   3 -11   45.09   15.72
   5   3 -11   72.46   16.80
  -5  -3  10  135.42   24.51
  -5  -3  10  147.39   24.20
   5   3 -10  173.97   27.31
   5   3 -10  179.79   22.68
   5   3 -10  147.21   22.04
  -5  -3   9  709.13   51.51
   5   3  -9  742.10   55.09
   5   3  -9  756.92   48.34
   5   3  -9  793.94   48.97
  -5  -3   9  823.93   56.53
  -5  -3   8   66.14   15.36
   5   3  -8   82.78   17.79
   5   3  -8   57.10   11.77
  -5  -3   8   89.09   17.62
   5   3  -8   88.17   15.91
  -5  -3   7   -3.75    7.22
  -5  -3   7    2.32    7.07
   5   3  -7    8.48    7.27
   5   3  -7    2.12    3.50
   5   3  -7   10.20    6.35
  -5  -3   6  952.50   54.23
   5   3  -6  914.89   55.57
   5   3  -6 1022.87   56.87
  -5  -3   6  976.77   55.08
  -5  -3   6  976.78   40.02
  -5  -3   5  125.60   18.04
   5   3  -5   84.92   10.62
  -5  -3   5  108.82   17.13
   5   3  -5  114.35   17.55
  -5  -3   5  103.79   12.19
   5   3  -5   92.06   16.72
   5   3  -4  571.80   32.39
  -5  -3   4  575.12   38.96
   5   3  -4  567.64   38.31
   5   3  -4  465.41   37.83
  -5  -3   4  557.27   30.91
  -5  -3   4  626.66   38.43
   5   3  -3  568.20   34.99
   5   3  -3  523.23   35.54
   5   3  -3  596.78   42.67
  -5  -3   3  626.04   34.11
  -5  -3   3  595.49   35.80
  -5  -3   3  603.05   39.69
  -5  -3   2  407.87   32.49
   5   3  -2  470.18   33.16
   5   3  -2  451.63   30.25
   5   3  -2  430.61   36.05
  -5  -3   2  493.75   31.48
  -5  -3   2  545.82   32.00
  -5  -3   1   58.70   10.01
  -5  -3   1   72.70   12.61
  -5  -3   1   64.58    7.64
   5   3  -1   60.26   12.78
   5   3  -1   47.80    9.05
   5   3  -1   56.02   13.16
   5   3   0  323.57   30.25
  -5  -3   0  314.90   18.92
   5   3   0  342.14   21.89
   5   3   0  286.51   29.41
  -5  -3   0  322.60   28.14
   5   3   0  324.39   26.11
  -5  -3   0  311.41   22.40
   5   3   1  675.87   47.55
   5   3   1  682.38   46.20
  -5  -3  -1  646.51   43.80
   5   3   1  722.02   41.91
   5   3   2  509.32   42.63
   5   3   2  509.03   39.03
  -5  -3  -2  431.86   36.99
   5   3   2  457.35   34.64
   5   3   3  131.43   23.08
   5   3   3  116.43   18.51
   5   3   3  115.81   18.41
  -5  -3  -3  104.71   19.52
   5   3   4  366.24   39.94
   5   3   4  475.13   36.88
  -5  -3  -4  464.85   42.32
   5   3   4  503.35   40.44
   5   3   5 1146.50   74.16
   5   3   5 1126.31   66.80
  -5  -3  -5 1047.42   68.97
   5   3   6  420.36   45.18
   5   3   6  335.96   37.41
  -5  -3  -6  416.35   43.98
   5   3   7   41.29   13.92
   5   3   7   34.82   13.31
  -5  -3  -7   13.67   11.30
   5   3   8  341.86   43.62
   5   3   8  422.69   46.74
  -5  -3  -8  342.44   43.45
   5   3   9  871.00   73.05
   5   3   9  859.50   70.79
  -5  -3  -9  791.71   69.22
  -5  -4  15   35.12   14.38
   5   4 -15   30.22   15.96
   5   4 -15   37.70   14.21
  -5  -4  14    9.57    9.40
  -5  -4  14    5.15    6.75
   5   4 -14   18.24   14.55
   5   4 -14    6.46    7.48
  -5  -4  13  108.17   22.63
   5   4 -13  115.77   25.07
   5   4 -13  130.89   24.70
  -5  -4  13  101.64   24.19
  -5  -4  12  354.16   40.53
   5   4 -12  368.91   43.42
   5   4 -12  316.90   36.08
  -5  -4  12  282.93   37.69
  -5  -4  11    0.99    7.58
  -5  -4  11   -0.25    6.56
   5   4 -11    4.79    7.07
   5   4 -11   -8.89    6.97
  -5  -4  10   75.80   18.48
   5   4 -10   85.61   16.67
  -5  -4  10   85.61   18.78
   5   4 -10   79.68   18.77
   5   4 -10   69.22   15.20
  -5  -4   9  150.57   24.55
  -5  -4   9  170.05   24.66
   5   4  -9  149.21   24.97
   5   4  -9  202.25   23.75
   5   4  -9  199.48   24.82
  -5  -4   8   62.56   15.25
  -5  -4   8   87.85   17.32
   5   4  -8  110.42   20.87
   5   4  -8  113.61   16.11
   5   4  -8  136.35   20.66
  -5  -4   7  188.82   24.02
   5   4  -7  166.33   24.14
   5   4  -7  198.86   25.08
   5   4  -7  224.07   20.85
  -5  -4   7  210.38   26.46
  -5  -4   7  189.31   17.80
  -5  -4   6  871.02   52.94
   5   4  -6  865.20   54.95
   5   4  -6  997.56   58.27
  -5  -4   6  899.41   54.20
  -5  -4   6  971.89   44.67
  -5  -4   5  129.85   19.17
  -5  -4   5   93.45   16.97
   5   4  -5   84.72   16.00
   5   4  -5  138.83   14.72
  -5  -4   5  120.23   14.85
   5   4  -5  117.82   19.15
   5   4  -4  401.70   28.18
  -5  -4   4  350.70   31.61
   5   4  -4  368.95   31.64
   5   4  -4  362.95   34.26
  -5  -4   4  393.97   27.95
  -5  -4   4  344.95   29.49
   5   4  -3 1451.84   62.83
   5   4  -3 1477.10   65.36
   5   4  -3 1293.26   69.50
  -5  -4   3 1496.35   61.64
  -5  -4   3 1369.98   62.42
  -5  -4   3 1333.18   65.97
   5   4  -2  166.30   20.78
   5   4  -2  139.70   17.29
  -5  -4   2  167.06   19.11
  -5  -4   2  168.10   18.96
   5   4  -2  131.05   20.67
   5   4  -1  157.51   20.92
   5   4  -1  145.01   16.49
  -5  -4   1  157.84   20.08
  -5  -4   1  163.92   18.12
   5   4  -1  174.23   23.61
   5   4   0 2060.50   71.29
   5   4   0 1893.31   88.38
  -5  -4   0 2039.39   84.89
   5   4   0 2137.70   91.38
   5   4   1  814.83   53.37
   5   4   1  850.61   46.29
  -5  -4  -1  836.98   52.64
   5   4   1  758.21   53.17
   5   4   2  172.19   21.16
   5   4   2  124.84   20.58
   5   4   2  143.29   23.94
  -5  -4  -2  172.71   23.90
   5   4   3  357.09   33.88
   5   4   3  372.95   33.11
  -5  -4  -3  367.40   37.31
   5   4   3  281.93   34.35
   5   4   4  777.71   60.23
   5   4   4  737.55   49.65
   5   4   4  762.63   51.21
  -5  -4  -4  775.68   57.67
   5   4   5  198.84   30.81
   5   4   5  193.61   27.07
  -5  -4  -5  149.15   26.41
   5   4   6   16.32    9.99
   5   4   6   31.79   12.38
  -5  -4  -6   34.10   13.90
   5   4   7   66.29   18.60
   5   4   7   56.48   17.43
  -5  -4  -7   79.66   21.02
   5   4   8  614.51   61.28
   5   4   8  582.55   55.13
  -5  -4  -8  706.43   64.62
   5   4   9  285.38   39.36
  -5  -5  15    9.51    9.57
   5   5 -15   -6.42   10.64
  -5  -5  14  111.40   25.93
  -5  -5  14  116.21   25.91
   5   5 -14  181.09   33.40
   5   5 -14  127.63   25.15
  -5  -5  13  174.34   29.77
   5   5 -13  217.02   35.58
  -5  -5  13  133.32   27.18
   5   5 -13  193.11   29.44
  -5  -5  12   30.76   14.51
  -5  -5  12   28.19   11.80
   5   5 -12   36.88   14.73
   5   5 -12   45.59   14.31
  -5  -5  11   78.02   20.12
  -5  -5  11   37.95   13.40
   5   5 -11   62.30   18.43
   5   5 -11   48.54   13.59
  -5  -5  10  166.70   27.15
  -5  -5  10  102.79   21.06
   5   5 -10  143.89   25.92
   5   5 -10  148.25   21.55
   5   5 -10  166.05   24.00
  -5  -5   9   24.05   10.44
  -5  -5   9   20.88    9.01
   5   5  -9   15.56    9.95
   5   5  -9   21.47    8.08
   5   5  -9   23.51    9.64
  -5  -5   8   12.09    8.32
  -5  -5   8    9.81    7.76
   5   5  -8   11.40    9.29
   5   5  -8    6.53    5.45
  -5  -5   7  378.78   35.04
  -5  -5   7  353.94   27.98
   5   5  -7  394.58   38.58
   5   5  -7  407.13   38.08
  -5  -5   7  426.73   38.97
  -5  -5   6  369.84   34.07
   5   5  -6  319.48   33.66
   5   5  -6  394.06   37.58
  -5  -5   6  345.90   33.76
  -5  -5   6  388.37   29.35
  -5  -5   5   13.88    5.82
   5   5  -5   32.94    8.18
  -5  -5   5   39.62    9.68
  -5  -5   5    9.29    7.68
   5   5  -5   16.42    8.49
   5   5  -5   24.53    9.97
  -5  -5   4  198.25   24.72
   5   5  -4  195.65   23.97
   5   5  -4  196.08   26.43
  -5  -5   4  181.87   20.62
  -5  -5   4  222.80   24.68
   5   5  -4  202.16   21.31
  -5  -5   3 1325.48   67.29
   5   5  -3 1286.00   63.17
   5   5  -3 1226.40   70.06
  -5  -5   3 1355.30   62.84
  -5  -5   3 1314.62   63.79
   5   5  -3 1315.66   63.42
   5   5  -2  370.41   30.29
   5   5  -2  435.95   35.71
   5   5  -2  427.25   39.45
  -5  -5   2  443.91   34.73
  -5  -5   2  454.58   34.21
   5   5  -1  581.56   36.57
   5   5  -1  458.75   41.50
  -5  -5   1  535.00   40.24
   5   5  -1  571.07   42.99
   5   5   0 1594.52   82.56
  -5  -5   0 1719.06   80.39
   5   5   0 1735.39   84.46
   5   5   1  665.33   49.99
   5   5   1  694.26   40.86
  -5  -5  -1  620.76   47.08
   5   5   1  583.68   48.68
   5   5   2  115.93   22.22
  -5  -5  -2  129.50   22.47
   5   5   2  126.87   18.03
   5   5   2  123.84   21.69
   5   5   3 1215.41   69.30
  -5  -5  -3 1128.75   71.08
   5   5   3 1260.46   78.71
  -5  -5  -4  780.92   60.78
   5   5   4  948.64   69.59
  -5  -5  -5  113.72   23.62
   5   5   5   65.22   18.22
  -5  -5  -6   66.90   19.41
   5   5   6  142.52   29.08
  -5  -5  -7  146.57   28.65
   5   5   7  137.24   29.10
  -5  -6  14  202.44   35.68
  -5  -6  14  242.61   37.03
   5   6 -14  269.04   41.35
  -5  -6  13   51.74   17.83
  -5  -6  13   68.93   19.77
   5   6 -13   28.24   12.46
  -5  -6  12  185.59   31.23
  -5  -6  12  126.36   25.07
   5   6 -12  188.55   32.68
  -5  -6  11  349.16   39.56
   5   6 -11  358.01   43.77
  -5  -6  11  361.34   43.11
  -5  -6  10   57.90   17.77
  -5  -6  10   55.76   15.72
   5   6 -10   42.29   15.42
   5   6 -10   25.72   10.93
  -5  -6   9  157.42   26.22
  -5  -6   9  161.67   25.08
   5   6  -9  115.55   23.49
   5   6  -9  158.34   25.14
  -5  -6   8  647.66   49.44
   5   6  -8  620.36   52.41
   5   6  -8  750.76   54.92
  -5  -6   8  696.51   54.21
  -5  -6   7  368.65   35.57
   5   6  -7  401.15   40.18
   5   6  -7  395.83   39.57
  -5  -6   7  383.80   38.68
  -5  -6   7  366.80   31.34
  -5  -6   6   -9.54    5.71
  -5  -6   6   -7.28    8.10
  -5  -6   6    0.87    5.85
   5   6  -6   -4.23    8.56
   5   6  -6    7.95    7.34
  -5  -6   5  194.47   25.41
   5   6  -5  251.59   29.34
   5   6  -5  237.92   30.57
  -5  -6   5  229.28   27.71
  -5  -6   5  253.75   26.05
   5   6  -4  713.32   49.78
   5   6  -4  712.53   54.48
  -5  -6   4  778.85   52.18
  -5  -6   4  855.94   53.56
  -5  -6   4  839.71   49.80
   5   6  -4  819.68   48.15
  -5  -6   3  235.78   27.92
   5   6  -3  302.50   29.75
   5   6  -3  270.02   32.72
  -5  -6   3  265.72   27.89
  -5  -6   3  232.88   26.80
   5   6  -3  264.30   27.74
   5   6  -2    0.56    5.37
  -5  -6   2    8.97    8.45
   5   6  -2   -0.83    4.14
   5   6  -2    1.33    6.67
   5   6  -1  827.48   47.67
   5   6  -1  767.10   57.14
  -5  -6   1  805.76   53.05
   5   6  -1  832.18   56.55
   5   6   0  867.52   61.28
  -5  -6   0  939.09   60.03
   5   6   0 1054.57   65.81
   5   6   1  335.06   37.01
  -5  -6  -1  318.19   35.19
   5   6   1  310.03   37.07
  -5  -6  -2  160.97   26.12
   5   6   2  126.59   25.10
   5   6   2  128.84   23.58
   5   6   3 1177.29   71.95
  -5  -6  -3 1237.63   77.94
   5   6   3 1295.37   82.91
  -5  -6  -4  393.71   44.04
   5   6   4  514.30   52.97
  -5  -6  -5   22.51   11.58
   5   6   5    5.94    8.95
  -5  -6  -6  468.59   51.77
   5   6   6  441.35   52.43
  -5  -7  14  141.47   28.07
  -5  -7  13   38.32   14.67
  -5  -7  13   -0.87    8.48
   5   7 -13   45.56   17.78
  -5  -7  12  119.91   24.87
   5   7 -12  102.65   25.01
  -5  -7  12   77.15   22.49
  -5  -7  11  204.80   33.51
  -5  -7  11  198.80   30.31
   5   7 -11  260.17   38.40
  -5  -7  10   34.64   13.79
  -5  -7  10   17.01    9.90
   5   7 -10    9.10    8.18
  -5  -7   9  451.66   43.08
   5   7  -9  497.12   49.29
   5   7  -9  460.74   45.02
  -5  -7   9  487.32   48.34
  -5  -7   8 1156.62   68.76
   5   7  -8 1096.40   73.15
   5   7  -8 1037.13   69.75
  -5  -7   8 1055.33   71.04
  -5  -7   8  997.61   58.47
  -5  -7   7  150.90   21.48
  -5  -7   7  134.33   22.08
  -5  -7   7  133.24   23.96
   5   7  -7  131.37   23.96
   5   7  -7  128.73   23.87
   5   7  -6  691.27   53.90
   5   7  -6  741.55   58.14
  -5  -7   6  691.54   51.14
  -5  -7   6  740.83   55.29
  -5  -7   6  747.20   49.36
  -5  -7   5 1128.68   66.18
   5   7  -5 1174.76   69.42
   5   7  -5 1074.48   71.56
  -5  -7   5 1116.78   67.80
  -5  -7   5 1134.31   62.97
   5   7  -4  532.36   43.90
   5   7  -4  572.33   50.69
  -5  -7   4  535.52   44.47
  -5  -7   4  498.19   40.87
  -5  -7   4  478.46   42.08
   5   7  -4  544.36   41.31
  -5  -7   3    8.40    7.75
   5   7  -3    8.25    7.53
  -5  -7   3   24.98   10.62
  -5  -7   3  -15.44    8.93
   5   7  -3    4.92    5.44
   5   7  -3    2.09    6.01
  -5  -7   2  583.43   46.96
   5   7  -2  499.52   40.30
   5   7  -2  525.97   48.74
  -5  -7   2  565.45   45.56
   5   7  -2  631.41   48.90
   5   7  -1  481.99   47.13
  -5  -7   1  499.91   44.09
   5   7  -1  604.34   49.58
  -5  -7   0  202.11   28.95
   5   7   0  245.18   33.28
   5   7   0  244.30   33.05
  -5  -7  -1    0.57    6.22
   5   7   1  -15.87   10.62
   5   7   1    6.79    7.43
   5   7   2  309.18   37.59
  -5  -7  -2  362.86   40.83
   5   7   2  307.98   39.86
   5   7   3  562.93   50.53
  -5  -7  -3  522.00   51.33
   5   7   3  522.55   54.29
  -5  -7  -4  184.09   31.28
   5   7   4  195.10   33.64
  -5  -7  -5   72.79   21.68
   5   7   5  121.59   26.72
  -5  -8  12  133.20   29.36
   5   8 -12  111.11   26.67
  -5  -8  11   76.54   21.45
  -5  -8  11   92.97   20.92
   5   8 -11  103.67   24.89
  -5  -8  10   15.72   11.59
  -5  -8  10    3.98    7.64
   5   8 -10   19.25   10.64
   5   8 -10   18.07   11.91
  -5  -8   9  298.35   35.97
   5   8  -9  382.53   45.06
   5   8  -9  372.51   42.46
  -5  -8   9  444.69   47.77
  -5  -8   8  308.34   35.42
   5   8  -8  370.26   42.02
   5   8  -8  208.19   32.73
  -5  -8   8  270.30   36.11
  -5  -8   8  283.80   32.33
  -5  -8   7    9.43    7.70
  -5  -8   7   12.01    6.13
  -5  -8   7   11.74    6.70
   5   8  -7   22.84   11.78
   5   8  -7    8.98   11.01
  -5  -8   6  627.57   50.18
   5   8  -6  617.49   53.36
   5   8  -6  655.72   57.38
  -5  -8   6  707.69   56.44
  -5  -8   6  633.38   49.15
  -5  -8   5 1175.98   69.85
   5   8  -5 1087.24   70.23
   5   8  -5 1076.85   75.01
  -5  -8   5 1093.33   70.54
  -5  -8   5 1094.85   66.38
  -5  -8   4  151.99   25.19
  -5  -8   4  164.46   25.21
  -5  -8   4  163.85   24.98
   5   8  -4  146.40   24.11
   5   8  -4  114.23   24.59
   5   8  -3  134.88   22.70
  -5  -8   3  143.21   23.88
  -5  -8   3  113.15   21.19
   5   8  -3  133.82   22.78
   5   8  -3   90.88   21.80
  -5  -8   3  139.07   23.65
  -5  -8   2  873.52   61.29
   5   8  -2  962.05   70.64
  -5  -8   2  783.83   58.55
   5   8  -2  951.90   64.37
   5   8  -1  571.50   53.77
  -5  -8   1  525.18   48.23
   5   8  -1  586.76   52.40
   5   8   0    8.93   10.92
  -5  -8   0    8.09    7.58
   5   8   0    2.29    8.63
   5   8   1  351.62   42.31
  -5  -8  -1  311.28   39.03
   5   8   1  356.43   43.23
   5   8   2  284.02   40.81
   5   8   2  383.47   43.84
  -5  -8  -2  344.66   42.44
   5   8   3   15.57   12.65
  -5  -8  -3    5.04    7.03
  -5  -8  -4  -17.69   12.30
   5   8   4   -7.79   13.56
  -5  -9  11    9.94    8.41
   5   9 -11   38.98   18.31
   5   9 -11   28.46   14.62
  -5  -9  10  269.33   40.21
   5   9 -10  279.96   41.31
   5   9 -10  244.60   36.59
  -5  -9   9  205.11   33.51
   5   9  -9  168.02   31.18
   5   9  -9  200.96   33.09
  -5  -9   8   19.84   11.34
  -5  -9   8   62.66   16.44
  -5  -9   8   39.86   13.08
   5   9  -8   42.89   16.76
   5   9  -8   27.37   13.67
  -5  -9   7    0.80    7.33
  -5  -9   7   15.85    7.57
  -5  -9   7   10.35    9.21
   5   9  -7    5.76    5.41
   5   9  -7   20.95   12.26
  -5  -9   6  216.60   32.49
  -5  -9   6  122.19   23.45
  -5  -9   6  162.35   25.88
   5   9  -6  171.41   28.85
   5   9  -6  208.14   33.72
  -5  -9   5  307.11   35.76
   5   9  -5  256.93   34.88
   5   9  -5  299.64   40.81
  -5  -9   5  297.62   37.53
  -5  -9   5  301.55   36.46
  -5  -9   4  170.08   27.87
  -5  -9   4  133.72   24.08
  -5  -9   4  113.88   21.91
   5   9  -4  147.99   25.61
   5   9  -4  131.81   27.94
  -5  -9   3  269.94   34.25
   5   9  -3  317.27   36.50
  -5  -9   3  336.68   39.07
   5   9  -3  261.41   38.80
  -5  -9   3  312.81   37.76
   5   9  -3  276.54   35.17
  -5  -9   2 1057.90   71.10
   5   9  -2 1071.69   79.39
  -5  -9   2 1124.29   74.49
   5   9  -2 1050.93   72.98
   5   9  -1  302.02   41.08
  -5  -9   1  312.99   39.20
   5   9  -1  323.26   40.77
   5   9   0   46.55   17.33
  -5  -9   0   49.71   17.70
   5   9   0   67.96   20.51
   5   9   1  292.86   41.61
   5   9   1  340.33   44.22
  -5  -9  -1  319.59   42.29
   5   9   2  143.91   30.01
  -5  -9  -2  106.46   24.06
   5   9   2  140.03   28.24
   5  10 -11  294.34   41.67
   5  10 -10  379.80   47.62
  -5 -10   9   92.46   24.62
   5  10  -9   68.85   21.94
   5  10  -9   70.84   21.18
  -5 -10   8  -11.54   10.94
  -5 -10   8  -12.23   10.19
   5  10  -8    9.02    9.12
   5  10  -8  -14.35   10.91
  -5 -10   7  253.24   37.32
  -5 -10   7  225.55   32.74
   5  10  -7  156.55   29.28
   5  10  -7  241.27   37.93
   5  10  -6  393.28   46.47
   5  10  -6  379.61   48.01
  -5 -10   6  400.80   46.42
  -5 -10   6  394.25   44.13
  -5 -10   5   77.15   21.00
  -5 -10   5  118.30   22.55
   5  10  -5  108.16   23.47
   5  10  -5  128.66   28.10
  -5 -10   4    7.53    7.79
  -5 -10   4    3.86    7.25
   5  10  -4   14.05   11.33
   5  10  -4   15.51   11.56
  -5 -10   3  251.44   35.92
  -5 -10   3  228.29   32.99
  -5 -10   3  264.99   36.74
   5  10  -3  211.32   36.17
  -5 -10   2  262.45   35.76
   5  10  -2  342.79   45.70
  -5 -10   2  346.18   42.94
   5  10  -2  326.72   41.50
   5  10  -1   52.62   18.17
  -5 -10   1   33.41   13.87
  -5 -10   1   32.89   14.69
   5  10  -1   11.33   10.25
   5  10   0   99.30   25.46
  -5 -10   0   84.11   21.92
   5  10   0   84.18   22.46
   5  10   1  258.53   40.35
   5  11  -7  772.63   69.50
  -5 -11   7  725.81   63.74
  -5 -11   6  165.25   29.88
   5  11  -6  168.60   31.13
  -5 -11   5   41.38   16.63
  -5 -11   5   36.22   15.36
   5  11  -5   28.08   13.28
  -5 -11   4  282.29   40.36
  -5 -11   4  318.25   42.66
  -5 -11   3  356.28   45.10
   6 -12   2  172.47   31.04
  -6  11   4  150.50   29.62
  -6  11   4  149.49   31.54
  -6  11   3  140.94   30.02
   6 -11  -3  141.62   28.76
  -6  11   2  444.77   53.35
   6 -11  -2  545.59   56.23
  -6  11   1  475.59   55.07
   6 -11  -1  483.56   52.43
   6 -11   0   20.85   11.83
  -6  11   0    5.31    9.39
   6 -11   1  436.84   46.13
  -6  11  -1  335.28   46.10
   6 -11   1  407.51   46.34
  -6  11  -2  270.55   36.76
   6 -11   2  302.33   39.74
  -6  11  -2  339.81   45.71
   6 -11   2  358.84   42.56
  -6  11  -3   26.83   12.79
   6 -11   3   38.13   15.36
  -6  11  -3   47.96   18.94
  -6  11  -4   40.81   16.48
  -6  11  -4   50.78   14.97
   6 -11   4   44.04   17.02
  -6  11  -5  277.44   39.70
  -6  11  -5  246.82   36.86
  -6  10   7  283.71   41.54
  -6  10   6  511.53   54.77
   6 -10  -6  377.12   47.13
  -6  10   6  413.08   49.15
  -6  10   5   84.92   21.75
  -6  10   5   87.92   23.11
   6 -10  -5  150.60   29.91
  -6  10   4  -13.60    9.69
  -6  10   4    6.86    9.56
   6 -10  -4   -3.48    7.59
  -6  10   3  261.33   35.85
  -6  10   3  330.29   43.63
   6 -10  -3  253.41   37.78
  -6  10   2  650.52   61.09
   6 -10  -2  688.22   60.80
   6 -10  -1  403.66   45.37
  -6  10   1  441.45   49.63
   6 -10   0   81.92   19.29
  -6  10   0   74.79   20.92
   6 -10   0   83.21   20.40
   6 -10   1  574.64   51.44
  -6  10  -1  490.41   52.20
   6 -10   1  542.92   51.24
  -6  10  -2  470.94   47.07
   6 -10   2  452.82   47.24
   6 -10   2  499.76   48.69
  -6  10  -2  524.26   53.57
   6 -10   3    4.52    8.45
  -6  10  -3    6.35    6.77
   6 -10   3    1.58    7.20
  -6  10  -3    8.94   10.14
  -6  10  -4  443.44   47.25
   6 -10   4  442.86   49.81
  -6  10  -4  412.80   47.61
  -6  10  -5  556.59   54.59
   6 -10   5  563.17   57.29
  -6  10  -5  588.31   55.84
  -6  10  -6    7.13    7.00
  -6   9   8  294.55   41.69
  -6   9   8  228.19   34.73
   6  -9  -8  222.16   35.22
  -6   9   7  568.60   55.13
   6  -9  -7  527.23   54.05
  -6   9   7  630.54   59.76
  -6   9   6  464.10   49.40
   6  -9  -6  402.52   46.99
  -6   9   6  545.91   53.82
  -6   9   5  -11.84    9.40
  -6   9   5    5.28   10.13
   6  -9  -5    4.12    9.02
  -6   9   4  237.89   33.05
   6  -9  -4  271.34   36.91
  -6   9   4  281.13   38.30
   6  -9  -3  426.59   46.01
  -6   9   3  480.07   49.60
  -6   9   3  563.60   49.47
  -6   9   2  210.32   32.90
   6  -9  -2  232.74   33.53
  -6   9   2  272.74   33.33
  -6   9   1   16.95   11.27
   6  -9  -1   10.74    7.26
   6  -9  -1   -6.15    7.38
   6  -9   0  247.88   32.16
  -6   9   0  290.43   37.48
   6  -9   0  296.06   36.60
   6  -9   1  290.14   35.20
  -6   9  -1  351.11   41.31
   6  -9   1  365.66   40.20
  -6   9  -2  142.28   27.09
   6  -9   2  222.41   31.44
   6  -9   2  223.88   30.70
   6  -9   3   15.07    9.22
  -6   9  -3   29.94   12.46
   6  -9   3   10.81    9.63
  -6   9  -3   10.57    9.13
  -6   9  -4  454.97   46.80
   6  -9   4  519.62   51.47
  -6   9  -4  410.29   44.41
  -6   9  -5  108.95   23.09
   6  -9   5  195.51   32.56
  -6   9  -5  167.31   28.11
  -6   9  -6   77.87   21.83
   6  -9   6   51.34   17.97
  -6   9  -7  281.89   40.16
   6  -9   7  294.87   42.25
   6  -8 -10  448.57   53.25
   6  -8 -10  314.97   41.51
  -6   8   9   41.25   15.23
   6  -8  -9   54.63   18.00
   6  -8  -9   60.70   18.12
   6  -8  -8  291.66   41.08
  -6   8   8  272.31   36.33
   6  -8  -8  261.87   36.46
  -6   8   8  307.45   41.32
  -6   8   7  797.39   63.15
   6  -8  -7  836.58   65.67
  -6   8   7  925.82   69.92
  -6   8   6  321.55   39.25
   6  -8  -6  309.86   38.93
  -6   8   6  331.07   39.59
  -6   8   5  143.65   25.27
  -6   8   5  117.79   23.62
   6  -8  -5  115.26   23.03
  -6   8   4 1228.78   77.63
   6  -8  -4 1148.37   75.00
  -6   8   4 1110.81   70.76
  -6   8   3  738.38   58.63
   6  -8  -3  738.95   58.14
  -6   8   3  762.40   55.31
   6  -8  -2    1.57    7.18
  -6   8   2   -2.54    5.59
  -6   8   2    2.03    7.86
   6  -8  -2   17.89    8.23
   6  -8  -1  275.31   30.92
  -6   8   1  240.43   32.61
   6  -8  -1  286.23   34.38
  -6   8   1  273.44   30.40
   6  -8   0  240.09   29.50
  -6   8   0  238.52   32.30
   6  -8   0  247.59   31.76
   6  -8   1   28.00   12.11
  -6   8  -1   46.59   14.57
   6  -8   1   19.27   10.01
   6  -8   2   -5.31    6.96
  -6   8  -2   -5.00    9.56
   6  -8   2    7.59    8.64
   6  -8   3  198.78   27.26
  -6   8  -3  119.69   22.93
  -6   8  -3  164.92   25.56
   6  -8   3  148.83   25.89
  -6   8  -4   81.53   19.53
  -6   8  -4   83.28   18.57
   6  -8   4   93.43   21.02
   6  -8   4  106.19   20.25
  -6   8  -5    0.24    7.01
   6  -8   5    2.64    6.99
  -6   8  -5   -5.86    6.97
  -6   8  -6   12.25   10.21
   6  -8   6    7.24    6.78
  -6   8  -7   93.28   22.89
   6  -8   7  109.51   25.60
  -6   8  -8   94.67   24.07
   6  -8   8   17.21   12.33
   6  -7 -11  480.06   54.64
  -6   7  10  120.79   27.45
   6  -7 -10  148.43   30.24
   6  -7 -10  129.53   24.96
  -6   7   9   68.35   19.67
  -6   7   9   92.47   20.73
   6  -7  -9   84.55   22.53
   6  -7  -9   63.25   17.55
   6  -7  -8  473.55   49.94
  -6   7   8  515.78   47.60
   6  -7  -8  435.91   44.99
  -6   7   8  458.47   48.57
   6  -7  -7  878.50   67.50
  -6   7   7  920.15   64.29
   6  -7  -7  927.45   65.81
  -6   7   7  841.92   64.51
  -6   7   6  146.90   24.98
  -6   7   6  126.50   23.71
   6  -7  -6  130.33   25.06
   6  -7  -6  161.37   26.66
   6  -7  -5  424.27   43.23
  -6   7   5  337.35   37.65
   6  -7  -5  391.36   40.50
  -6   7   5  403.82   39.99
  -6   7   4  977.02   61.56
  -6   7   4  938.82   64.20
   6  -7  -4  939.30   63.76
   6  -7  -3  456.98   36.11
  -6   7   3  461.86   43.59
   6  -7  -3  437.71   42.45
  -6   7   3  491.39   41.12
  -6   7   2  158.57   25.46
  -6   7   2  121.11   19.53
   6  -7  -2  121.70   19.47
   6  -7  -2  122.95   21.34
   6  -7  -1  874.46   55.21
  -6   7   1  873.04   60.02
   6  -7  -1  923.71   61.08
  -6   7   1  898.73   53.09
   6  -7   0  649.12   48.07
  -6   7   0  673.75   51.77
   6  -7   0  659.24   50.25
   6  -7   1   -0.98    5.75
  -6   7  -1   -0.09    5.63
   6  -7   1    4.88    7.53
   6  -7   2  399.96   39.73
  -6   7  -2  389.57   38.68
   6  -7   2  418.28   38.93
  -6   7  -3  166.02   25.03
  -6   7  -3  167.52   25.78
   6  -7   3  133.32   23.98
   6  -7   3  193.48   26.10
   6  -7   4   15.92    9.15
  -6   7  -4   -1.32    7.65
  -6   7  -4    1.29    6.28
   6  -7   4    3.66    7.44
  -6   7  -5  152.51   26.49
  -6   7  -5  160.14   23.92
   6  -7   5  146.93   26.88
   6  -7   5  138.27   23.77
  -6   7  -6   84.27   20.27
   6  -7   6   90.58   22.22
   6  -7   6  106.11   22.09
  -6   7  -7   32.41   13.68
   6  -7   7   21.00   11.79
   6  -7   7   29.65   12.87
  -6   7  -8   23.48   11.56
   6  -7   8   42.31   16.28
   6  -7   9  217.43   34.60
   6  -6 -12  743.42   68.22
  -6   6  11  140.01   28.77
  -6   6  11  146.12   28.26
   6  -6 -11  119.65   26.84
  -6   6  10   20.01   12.95
  -6   6  10   39.16   16.45
   6  -6 -10   39.15   15.32
   6  -6 -10   15.22    7.98
  -6   6   9  647.10   53.90
   6  -6  -9  685.34   60.32
  -6   6   9  591.58   55.63
  -6   6   9  637.75   51.51
   6  -6  -9  656.40   53.65
  -6   6   8  524.44   49.81
  -6   6   8  536.13   45.78
   6  -6  -8  427.30   46.30
  -6   6   8  488.14   44.68
   6  -6  -8  523.13   46.61
  -6   6   7  151.22   24.64
  -6   6   7  144.95   25.31
   6  -6  -7  139.08   25.30
   6  -6  -7  122.69   22.29
  -6   6   6    9.41    6.63
  -6   6   6   25.48   11.28
   6  -6  -6   25.16   13.03
   6  -6  -6   37.53   12.55
  -6   6   5  477.88   41.46
   6  -6  -5  496.30   44.97
  -6   6   5  459.60   42.03
   6  -6  -5  469.42   42.66
   6  -6  -4  334.53   36.33
  -6   6   4  351.69   36.19
   6  -6  -4  413.04   32.31
   6  -6  -4  393.05   38.29
  -6   6   4  405.16   36.26
  -6   6   3    7.72    6.72
   6  -6  -3   10.80    7.78
   6  -6  -3    1.34    3.95
   6  -6  -3    2.14    6.22
  -6   6   3    4.82    7.54
  -6   6   2   78.56   17.11
  -6   6   2  114.23   17.75
   6  -6  -2   74.25   17.30
   6  -6  -2   80.22   15.52
  -6   6   1  810.44   54.67
   6  -6  -1  777.03   49.86
   6  -6  -1  803.18   53.80
  -6   6   1  824.80   46.77
   6  -6   0  213.86   26.99
   6  -6   0  221.14   26.36
  -6   6   0  234.37   28.77
  -6   6   0  280.98   24.87
  -6   6  -1   89.48   17.54
   6  -6   1   90.32   17.43
   6  -6   1   90.90   17.91
   6  -6   2  701.94   52.32
  -6   6  -2  750.60   51.25
   6  -6   2  791.48   52.24
  -6   6  -3  345.78   36.06
   6  -6   3  332.47   35.94
  -6   6  -3  381.23   35.22
   6  -6   3  337.20   33.60
  -6   6  -4  109.89   19.04
  -6   6  -4  131.45   22.93
   6  -6   4   95.85   19.84
   6  -6   4   85.83   17.89
   6  -6   4  122.99   19.86
  -6   6  -5  451.84   44.65
   6  -6   5  433.08   44.29
   6  -6   5  528.72   45.47
   6  -6   5  489.16   40.42
  -6   6  -6  282.65   36.19
   6  -6   6  208.61   31.91
   6  -6   6  264.88   33.72
  -6   6  -7   57.60   17.78
   6  -6   7   39.69   15.17
   6  -6   7   86.23   20.85
  -6   6  -8  401.49   46.62
   6  -6   8  428.82   48.08
   6  -6   8  424.54   46.90
  -6   6  -9  236.19   37.25
   6  -6   9  279.57   39.75
   6  -6   9  258.17   38.13
  -6   5  13  415.41   50.99
   6  -5 -13  440.02   52.23
  -6   5  12  571.58   57.84
   6  -5 -12  481.96   53.86
  -6   5  12  537.00   57.13
  -6   5  11   77.22   21.03
  -6   5  11   92.34   21.85
   6  -5 -11  102.05   24.11
  -6   5  10  320.41   38.20
   6  -5 -10  260.75   36.95
   6  -5 -10  246.02   31.06
  -6   5  10  332.85   41.20
  -6   5   9  779.36   58.02
   6  -5  -9  662.03   58.10
  -6   5   9  731.04   53.19
   6  -5  -9  675.83   51.93
  -6   5   9  690.25   57.91
  -6   5   8  451.51   41.31
   6  -5  -8  293.20   37.85
  -6   5   8  407.13   38.82
   6  -5  -8  388.80   37.97
  -6   5   8  353.54   39.39
   6  -5  -7    6.25    5.57
  -6   5   7   24.68   10.61
  -6   5   7    9.95    6.67
   6  -5  -7   24.65   12.23
  -6   5   7   -4.86    6.27
  -6   5   6  928.20   53.54
   6  -5  -6  886.70   61.31
  -6   5   6  840.25   56.37
  -6   5   6  926.48   59.09
   6  -5  -6  841.76   56.51
  -6   5   5  170.13   20.32
  -6   5   5  160.76   22.61
   6  -5  -5  140.63   22.74
  -6   5   5  145.23   22.35
   6  -5  -5  180.26   24.83
  -6   5   4    0.93    4.08
  -6   5   4   10.16    5.99
   6  -5  -4   10.16    8.25
   6  -5  -4    5.72    5.57
  -6   5   4   10.44    8.98
   6  -5  -4    0.48    6.33
  -6   5   3   70.69   13.62
   6  -5  -3   44.05   12.39
   6  -5  -3   57.20   12.03
  -6   5   3   43.95   11.46
   6  -5  -3   39.77   11.69
   6  -5  -2   15.09    8.80
  -6   5   2   11.46    6.32
   6  -5  -2    9.56    6.57
   6  -5  -2    4.10    5.56
  -6   5   2   13.46    8.73
   6  -5  -1  102.43   18.14
   6  -5  -1   81.96   15.27
  -6   5   1  108.64   19.03
  -6   5   1  124.74   15.81
  -6   5   0   31.09    7.30
   6  -5   0   32.88   11.43
   6  -5   0   28.84   11.06
  -6   5   0   24.71   10.31
  -6   5  -1  255.23   27.89
   6  -5   1  266.28   29.60
   6  -5   1  290.98   30.07
  -6   5  -2  259.84   28.05
   6  -5   2  279.16   30.98
   6  -5   2  256.00   28.28
  -6   5  -3   36.25   10.58
  -6   5  -3   20.28    9.54
   6  -5   3   18.34    8.31
   6  -5   3   43.27   12.85
   6  -5   3   38.56   12.03
   6  -5   4  216.50   26.34
  -6   5  -4  200.91   27.57
   6  -5   4  172.07   26.57
  -6   5  -4  228.13   25.33
   6  -5   4  204.73   27.04
  -6   5  -5  594.89   50.02
   6  -5   5  702.52   47.88
   6  -5   5  597.93   51.34
   6  -5   5  665.28   51.72
  -6   5  -6   35.21   12.93
   6  -5   6   29.47   10.69
   6  -5   6   30.45   13.62
  -6   5  -7   97.72   22.42
   6  -5   7  114.96   23.37
   6  -5   7  101.62   22.25
  -6   5  -8  666.77   59.35
   6  -5   8  572.80   54.72
   6  -5   8  688.64   60.09
  -6   5  -9  329.21   43.05
   6  -5   9  386.25   45.43
   6  -5   9  313.60   42.31
   6  -5  10    6.26    8.88
  -6   4  13  356.42   46.40
   6  -4 -13  346.31   45.73
  -6   4  13  359.28   47.28
  -6   4  12  311.21   41.70
   6  -4 -12  273.64   39.74
  -6   4  12  394.21   47.37
  -6   4  11   36.63   15.56
  -6   4  11   41.55   14.80
   6  -4 -11   25.83   14.59
  -6   4  10  595.66   52.00
   6  -4 -10  502.94   50.83
  -6   4  10  581.65   45.82
  -6   4  10  509.21   50.38
   6  -4 -10  635.44   47.72
  -6   4   9  909.57   61.38
   6  -4  -9  760.66   61.53
  -6   4   9  882.76   56.73
   6  -4  -9  835.83   54.85
  -6   4   9  776.82   60.48
  -6   4   8  365.68   35.87
   6  -4  -8  244.10   32.28
  -6   4   8  260.12   29.73
   6  -4  -8  268.09   29.86
  -6   4   8  272.79   33.63
  -6   4   7   92.12   18.52
  -6   4   7   81.32   15.99
   6  -4  -7   69.04   17.07
  -6   4   7   83.86   16.83
   6  -4  -7  110.62   18.98
  -6   4   6  822.77   49.92
   6  -4  -6  798.69   55.64
  -6   4   6  774.42   52.02
   6  -4  -6  800.36   51.93
  -6   4   6  845.18   53.95
  -6   4   5  217.78   22.97
   6  -4  -5  207.68   26.73
  -6   4   5  216.48   26.41
   6  -4  -5  209.74   25.41
  -6   4   5  228.74   25.38
   6  -4  -4   40.57   11.54
  -6   4   4   72.41   13.60
  -6   4   4   77.16   12.85
   6  -4  -4   72.22   15.24
  -6   4   4   62.52   14.58
   6  -4  -3  217.00   25.34
  -6   4   3  212.86   19.60
   6  -4  -3  170.41   23.01
  -6   4   3  197.22   24.57
   6  -4  -3  176.97   20.60
  -6   4   3  220.79   22.37
  -6   4   2  360.16   24.04
   6  -4  -2  356.12   31.09
  -6   4   2  323.70   31.23
   6  -4  -2  334.41   29.64
   6  -4  -2  340.04   32.00
  -6   4   2  413.63   28.38
  -6   4   1   30.20    7.91
  -6   4   1   25.75    5.68
   6  -4  -1   20.23    7.97
   6  -4  -1   23.16    9.81
   6  -4  -1   22.48    8.59
  -6   4   1   28.78   10.80
  -6   4   0  767.06   48.48
   6  -4   0  724.35   47.09
   6  -4   0  723.59   47.54
  -6   4   0  780.21   35.51
   6  -4   1   47.00   12.84
  -6   4  -1   70.87   14.14
   6  -4   1   37.60   11.10
   6  -4   2   19.04    9.93
   6  -4   2   43.14   12.66
  -6   4  -2   53.10   12.38
   6  -4   2   29.12   10.21
  -6   4  -3  399.95   36.61
  -6   4  -3  515.07   36.81
   6  -4   3  417.39   38.30
   6  -4   3  378.01   35.54
   6  -4   3  464.93   37.66
  -6   4  -4  184.22   25.67
  -6   4  -4  170.99   20.59
   6  -4   4  146.33   23.64
   6  -4   4  165.19   24.43
   6  -4   4  167.25   22.53
  -6   4  -5  204.43   28.28
   6  -4   5  257.19   31.76
   6  -4   5  208.29   28.96
   6  -4   5  246.81   27.38
  -6   4  -6  -14.88    9.56
   6  -4   6    2.53    5.80
   6  -4   6  -16.32   10.18
  -6   4  -7  104.93   22.02
   6  -4   7  119.34   23.36
   6  -4   7   90.90   20.73
  -6   4  -8  586.35   55.15
   6  -4   8  617.33   54.65
   6  -4   8  559.38   54.23
  -6   4  -9  111.94   24.50
   6  -4   9   86.27   20.33
   6  -4   9  118.35   25.58
   6  -4  10  167.85   29.58
   6  -3 -14  337.16   45.65
  -6   3  13  639.75   62.18
   6  -3 -13  474.52   53.33
  -6   3  13  623.88   60.96
  -6   3  12   49.27   16.44
  -6   3  12   77.35   22.34
   6  -3 -12   49.27   16.38
  -6   3  11   28.19   14.25
  -6   3  11  102.70   23.25
   6  -3 -11   79.52   21.04
  -6   3  10  271.94   34.25
   6  -3 -10  386.53   42.98
  -6   3  10  327.61   32.96
   6  -3 -10  362.01   33.50
  -6   3  10  346.64   40.42
  -6   3   9  244.93   30.63
   6  -3  -9  184.68   28.74
  -6   3   9  178.46   24.00
   6  -3  -9  216.79   25.34
  -6   3   9  210.71   30.00
  -6   3   8   78.72   17.57
  -6   3   8   61.40   15.30
   6  -3  -8   59.56   16.65
  -6   3   8   74.89   16.03
   6  -3  -8   70.34   14.97
  -6   3   7  633.16   44.42
  -6   3   7  590.04   43.61
   6  -3  -7  460.59   42.74
  -6   3   7  552.89   44.28
   6  -3  -7  593.71   42.23
  -6   3   6  630.91   41.88
  -6   3   6  523.28   40.93
   6  -3  -6  493.19   41.76
   6  -3  -6  545.00   40.30
  -6   3   6  513.66   40.22
  -6   3   5  483.74   34.52
  -6   3   5  381.04   34.55
   6  -3  -5  469.61   38.51
   6  -3  -5  408.77   34.27
  -6   3   5  475.44   35.93
  -6   3   4  121.44   16.22
  -6   3   4  118.02   16.46
   6  -3  -4   80.77   16.06
  -6   3   4   88.59   16.25
   6  -3  -4  110.58   17.30
  -6   3   3 1098.17   48.97
  -6   3   3 1018.66   56.71
   6  -3  -3  921.54   53.00
   6  -3  -3 1026.01   52.74
   6  -3  -3  999.53   55.49
  -6   3   3  994.02   47.90
  -6   3   2  519.78   30.81
  -6   3   2  516.96   30.37
  -6   3   2  569.14   40.19
   6  -3  -2  492.50   35.78
   6  -3  -2  549.53   37.54
   6  -3  -2  536.73   39.31
  -6   3   1  908.91   41.64
  -6   3   1  918.88   52.07
   6  -3  -1  814.70   45.47
   6  -3  -1  878.45   50.49
   6  -3  -1  889.90   51.86
  -6   3   1  956.97   39.60
  -6   3   0 1392.20   53.24
   6  -3   0 1278.91   65.12
  -6   3   0 1296.51   63.34
   6  -3   0 1324.02   57.22
   6  -3   0 1297.01   65.01
  -6   3  -1   59.45    9.87
   6  -3   1   55.60   13.10
   6  -3   1   49.31   13.52
  -6   3  -1   61.63   12.33
   6  -3   2  110.47   18.60
   6  -3   2  112.50   19.32
  -6   3  -2  121.51   17.11
   6  -3   2  113.94   18.67
  -6   3  -3  633.87   45.65
  -6   3  -3  659.10   40.40
   6  -3   3  625.04   46.05
   6  -3   3  495.32   41.69
   6  -3   3  661.10   45.07
  -6   3  -4  583.60   45.66
  -6   3  -4  660.93   39.83
   6  -3   4  637.91   48.37
   6  -3   4  629.59   48.41
   6  -3   4  671.99   46.50
  -6   3  -5   14.44    9.16
   6  -3   5   14.68    9.86
   6  -3   5   12.68    9.70
  -6   3  -6  388.65   39.83
   6  -3   6  382.35   39.80
   6  -3   6  383.35   40.97
  -6   3  -7  618.39   53.61
   6  -3   7  624.22   52.21
   6  -3   7  616.80   55.06
  -6   3  -8  339.76   40.65
   6  -3   8  267.54   37.38
  -6   3  -9   13.53    9.02
   6  -3   9   39.30   13.51
   6  -3   9   21.47   13.43
  -6   3 -10   88.85   22.54
  -6   2  14  568.83   60.08
   6  -2 -14  475.55   53.69
  -6   2  13  183.13   32.01
  -6   2  13  201.74   34.31
   6  -2 -13  187.96   32.54
  -6   2  12   75.81   20.37
  -6   2  12   62.38   18.28
   6  -2 -12   26.24   14.06
  -6   2  11  509.60   48.93
   6  -2 -11  530.80   51.32
  -6   2  11  482.21   49.13
  -6   2  10  114.05   22.74
  -6   2  10  146.12   24.99
   6  -2 -10  111.01   23.34
  -6   2  10  158.63   22.15
  -6   2   9    5.97    8.49
  -6   2   9    1.07    5.28
   6  -2  -9   19.64    8.52
   6  -2  -9   -3.63    8.06
  -6   2   9   -5.07    8.06
  -6   2   8   96.72   19.57
  -6   2   8   65.21   14.70
   6  -2  -8  121.28   21.71
  -6   2   8  128.46   20.08
   6  -2  -8  120.42   18.09
   6  -2  -7  400.09   32.82
  -6   2   7  417.91   35.58
  -6   2   7  379.15   34.30
   6  -2  -7  365.56   36.25
   6  -2  -7  388.42   34.02
  -6   2   7  379.44   35.70
  -6   2   6   17.16    8.15
   6  -2  -6   28.85   10.11
  -6   2   6   16.83    8.88
   6  -2  -6   46.32   13.43
  -6   2   6    7.14    7.85
   6  -2  -6   19.02    7.29
  -6   2   5  120.68   17.72
  -6   2   5  146.60   18.94
   6  -2  -5  106.81   18.37
  -6   2   5  129.02   19.52
   6  -2  -5  157.55   21.55
   6  -2  -5  121.67   17.82
  -6   2   4  666.77   39.12
  -6   2   4  566.29   41.40
   6  -2  -4  593.70   41.19
  -6   2   4  738.83   40.86
   6  -2  -4  648.09   42.40
   6  -2  -4  565.39   41.66
  -6   2   3  524.85   32.51
  -6   2   3  481.14   36.71
   6  -2  -3  401.46   31.90
   6  -2  -3  495.85   38.18
   6  -2  -3  431.55   34.52
  -6   2   3  511.59   31.00
  -6   2   2    2.83    2.87
   6  -2  -2    3.41    6.01
  -6   2   2   -3.00    3.38
   6  -2  -2    1.98    4.04
  -6   2   2    1.71    5.18
   6  -2  -2    6.11    5.99
   6  -2  -2    1.04    4.34
  -6   2   1 1064.91   38.81
  -6   2   1  991.68   46.26
  -6   2   1  942.49   52.77
   6  -2  -1 1041.96   48.50
   6  -2  -1  978.79   53.58
   6  -2  -1 1024.49   56.89
   6  -2  -1  940.04   53.71
  -6   2   0  455.94   29.60
  -6   2   0  448.89   33.55
   6  -2   0  429.33   27.55
   6  -2   0  406.99   33.62
   6  -2   0  374.25   33.09
   6  -2   0  436.19   34.68
  -6   2  -1  241.85   24.13
   6  -2   1  237.57   26.11
   6  -2   1  262.44   27.17
   6  -2   1  271.30   27.88
   6  -2   1  270.69   27.57
  -6   2  -2  783.02   48.33
  -6   2  -2  855.57   46.15
   6  -2   2  820.70   51.17
   6  -2   2  754.73   48.28
   6  -2   2  738.63   49.45
   6  -2   2  849.52   51.37
  -6   2  -3 2004.10   87.42
  -6   2  -3 2246.51   81.27
   6  -2   3 2136.98   92.15
   6  -2   3 1888.70   89.50
  -6   2  -4  886.61   55.33
   6  -2   4  863.08   55.82
   6  -2   4  777.19   54.87
  -6   2  -5  331.40   34.72
   6  -2   5  384.83   37.18
   6  -2   5  353.60   37.67
  -6   2  -6 1272.89   74.34
   6  -2   6 1287.99   73.36
   6  -2   6 1109.97   72.90
  -6   2  -7  816.49   61.05
   6  -2   7  836.59   59.86
   6  -2   7  813.17   63.72
  -6   2  -8    0.88    6.15
   6  -2   8    8.04    7.55
   6  -2   8   15.49   12.79
  -6   2  -9  207.30   32.87
   6  -2   9  276.00   39.14
  -6   2 -10  303.96   41.93
   6  -1 -15  120.99   27.37
  -6   1  14  412.27   50.90
   6  -1 -14  491.39   53.45
   6  -1 -14  351.07   45.13
  -6   1  14  436.55   51.22
  -6   1  13   -3.49    7.96
  -6   1  13   15.64   10.51
   6  -1 -13    0.14    7.50
   6  -1 -13   -1.45    6.46
  -6   1  12   93.09   22.75
  -6   1  12  106.03   23.82
   6  -1 -12  128.65   26.10
   6  -1 -12   98.56   22.00
  -6   1  11  623.02   54.02
  -6   1  11  600.24   44.43
   6  -1 -11  599.39   54.33
  -6   1  11  646.12   55.48
  -6   1  10  133.57   24.25
  -6   1  10  150.77   25.09
   6  -1 -10  180.46   28.46
  -6   1  10  134.65   20.93
  -6   1   9  159.40   24.76
  -6   1   9  123.08   21.48
   6  -1  -9  158.01   19.73
   6  -1  -9  147.13   25.12
  -6   1   9  135.01   20.70
   6  -1  -9  167.38   21.05
  -6   1   8  843.10   56.56
  -6   1   8  871.45   55.81
   6  -1  -8  831.87   57.67
   6  -1  -8  976.91   53.76
   6  -1  -8  871.08   49.16
  -6   1   7    2.26    5.78
   6  -1  -7    7.84    5.59
  -6   1   7   11.51    8.73
   6  -1  -7   -1.51    6.45
   6  -1  -7    5.69    5.85
  -6   1   6  690.86   44.64
   6  -1  -6  702.82   48.39
   6  -1  -6  756.85   47.30
  -6   1   6  636.46   43.86
   6  -1  -6  728.20   44.25
  -6   1   5  759.04   44.55
   6  -1  -5  696.56   43.75
   6  -1  -5  701.78   46.17
   6  -1  -5  777.05   48.32
  -6   1   5  752.30   44.68
  -6   1   4   86.90   13.50
   6  -1  -4  115.68   18.40
  -6   1   4  103.20   15.45
   6  -1  -4  102.47   16.36
   6  -1  -4  114.16   16.85
  -6   1   4  113.73    8.83
  -6   1   3  103.19   13.19
   6  -1  -3   86.78   16.45
  -6   1   3   89.21   13.52
   6  -1  -3   66.74   13.11
   6  -1  -3  100.91   14.96
  -6   1   2 1251.40   46.21
  -6   1   2 1180.86   53.14
   6  -1  -2 1116.29   58.03
   6  -1  -2 1041.31   50.55
   6  -1  -2 1083.14   59.41
  -6   1   1  690.71   38.69
   6  -1  -1  655.07   35.72
   6  -1  -1  604.13   42.77
  -6   1   1  722.38   28.64
   6  -1  -1  633.97   42.71
   6  -1   0   64.66   13.11
   6  -1   0   69.54    9.80
   6  -1   0   75.31   14.72
   6  -1   0   55.56   12.97
   6  -1   1   24.77    9.03
  -6   1  -1   15.68    7.04
   6  -1   1   40.50   11.48
   6  -1   1   37.18   10.86
   6  -1   1   12.71    6.84
   6  -1   2 1325.89   70.17
  -6   1  -2 1241.71   61.30
  -6   1  -2 1326.45   59.16
   6  -1   2 1240.39   64.86
   6  -1   2 1238.28   63.16
   6  -1   2 1296.91   66.80
   6  -1   3 1029.81   63.59
  -6   1  -3 1139.01   60.20
  -6   1  -3 1234.55   54.86
   6  -1   3 1074.35   61.42
   6  -1   3 1085.69   57.99
   6  -1   3 1101.76   63.42
   6  -1   4   10.00    8.76
   6  -1   4    2.30    4.00
  -6   1  -4   11.80    8.50
   6  -1   4    4.76    5.66
   6  -1   4   12.16    8.86
   6  -1   5  690.15   55.47
  -6   1  -5  740.78   52.23
   6  -1   5  823.49   58.86
   6  -1   6  851.27   63.32
  -6   1  -6  830.09   58.41
   6  -1   6  923.43   59.94
   6  -1   6  932.99   65.47
   6  -1   7  639.68   56.01
  -6   1  -7  712.39   55.39
   6  -1   7  557.98   47.80
   6  -1   7  615.99   55.30
   6  -1   8   91.40   21.89
  -6   1  -8  125.87   24.14
   6  -1   8   93.00   21.98
  -6   1  -9  503.73   51.29
  -6   1  -9  492.09   53.28
   6  -1   9  469.18   52.88
  -6   1 -10  554.93   56.50
   6   0 -15  128.05   27.76
  -6   0  14  143.20   29.35
  -6   0  14  157.81   30.59
   6   0 -14   92.52   23.65
   6   0 -14  103.38   24.13
  -6   0  13    0.40    9.60
  -6   0  13   21.08   11.77
   6   0 -13   14.79   11.57
   6   0 -13    8.92    8.50
  -6   0  12  325.37   40.16
   6   0 -12  309.86   39.35
   6   0 -12  302.13   37.61
  -6   0  12  288.98   38.40
  -6   0  11  159.67   27.50
   6   0 -11  205.21   31.45
   6   0 -11  211.55   29.86
  -6   0  11  243.83   33.63
  -6   0  10   12.88    9.13
  -6   0  10   44.34   14.81
   6   0 -10   17.52    9.48
   6   0 -10   30.39   11.02
  -6   0   9  280.25   32.14
   6   0  -9  309.32   35.42
   6   0  -9  353.55   31.04
  -6   0   9  269.89   32.36
   6   0  -9  313.53   26.96
  -6   0   8  474.98   39.79
   6   0  -8  414.16   39.49
   6   0  -8  443.02   35.51
  -6   0   8  413.74   38.15
   6   0  -8  428.63   32.23
   6   0  -7   30.79   10.55
  -6   0   7   33.76   10.73
  -6   0   7   24.22    9.48
   6   0  -7   11.92    8.32
   6   0  -7   25.86    8.40
  -6   0   6  230.37   25.28
   6   0  -6  219.55   26.24
   6   0  -6  231.06   25.60
  -6   0   6  204.11   23.81
   6   0  -6  217.37   23.25
  -6   0   5 1135.01   56.82
   6   0  -5 1028.95   56.85
   6   0  -5 1090.22   58.95
  -6   0   5 1080.93   55.04
   6   0  -5 1069.94   55.04
   6   0  -4    1.90    4.47
  -6   0   4    7.28    4.56
   6   0  -4    1.50    4.41
  -6   0   4    1.38    4.61
   6   0  -4    9.13    6.09
  -6   0   4    2.11    1.58
  -6   0   3 1096.53   52.95
   6   0  -3 1020.65   50.64
   6   0  -3 1037.61   57.88
  -6   0   3 1081.14   41.18
  -6   0   3 1018.81   46.46
   6   0  -3  952.79   53.22
  -6   0   2 2696.78   94.21
   6   0  -2 2616.87   99.08
   6   0  -2 2694.42   88.82
   6   0  -2 2386.43   98.55
  -6   0   2 2765.31   84.75
  -6   0   2 2616.89   82.06
   6   0  -1  239.97   24.85
  -6   0   1  274.74   24.91
   6   0  -1  268.23   20.30
   6   0  -1  244.84   26.65
  -6   0   1  252.22   21.72
  -6   0   1  279.15   16.78
   6   0  -1  225.39   25.31
   6   0   0  189.98   22.76
   6   0   0  159.45   21.48
   6   0   0  175.00   14.65
  -6   0   0  176.25   19.76
   6   0   1 1275.44   67.47
  -6   0  -1 1351.69   59.73
   6   0   1 1235.56   64.11
   6   0   1 1371.79   65.99
   6   0   2  584.40   45.31
  -6   0  -2  641.68   40.40
   6   0   2  651.76   44.62
   6   0   2  594.58   41.80
   6   0   2  636.88   44.53
   6   0   3   25.11   10.15
   6   0   3   18.99    8.10
  -6   0  -3   36.27    8.97
  -6   0  -3   17.91    7.66
   6   0   3   12.30    8.31
   6   0   4  169.37   26.33
   6   0   4  144.89   19.78
  -6   0  -4  170.54   22.44
   6   0   4  155.31   22.30
   6   0   4  147.43   23.45
   6   0   5  347.39   38.82
  -6   0  -5  350.10   34.19
   6   0   5  360.17   34.99
  -6   0  -5  279.46   33.77
   6   0   5  300.47   34.58
   6   0   6  543.55   50.54
  -6   0  -6  563.68   46.25
   6   0   6  535.79   44.79
  -6   0  -6  504.13   48.20
   6   0   6  596.77   51.67
   6   0   7   29.23   13.05
  -6   0  -7   47.28   14.61
   6   0   7   53.43   17.52
  -6   0  -7   40.16   14.78
   6   0   8  144.61   27.46
  -6   0  -8  187.10   29.23
   6   0   8  208.45   33.13
  -6   0  -8  206.97   33.34
  -6   0  -9  425.09   46.65
  -6   0  -9  360.54   45.85
   6   0   9  398.45   48.61
   6   0   9  451.02   50.40
   6   0  10  215.52   35.77
   6   1 -15  153.78   32.21
   6   1 -15  120.98   26.98
  -6  -1  14   72.59   21.23
  -6  -1  14   91.40   24.71
   6   1 -14   64.51   21.12
   6   1 -14  104.03   24.15
  -6  -1  13  178.15   31.17
  -6  -1  13  163.16   30.35
   6   1 -13  159.63   29.40
   6   1 -13  125.93   24.82
  -6  -1  12  109.05   23.61
  -6  -1  12  154.27   27.56
   6   1 -12  124.05   25.22
   6   1 -12  115.84   23.01
  -6  -1  11    6.73    7.40
   6   1 -11    2.34    7.13
  -6  -1  11    3.94    6.82
   6   1 -11    5.30    6.34
  -6  -1  10   93.63   19.76
   6   1 -10   90.85   15.87
  -6  -1  10  131.76   23.49
   6   1 -10   82.13   19.73
   6   1 -10   91.20   18.98
   6   1  -9   51.11   12.84
  -6  -1   9   48.01   14.00
  -6  -1   9   46.67   13.22
   6   1  -9   30.09   11.83
   6   1  -8   51.62   12.45
  -6  -1   8   27.12   10.48
  -6  -1   8   37.52   11.39
   6   1  -8   22.25   10.37
   6   1  -8   45.30   10.20
   6   1  -7    6.30    5.52
  -6  -1   7    9.67    7.96
  -6  -1   7   15.16    9.60
   6   1  -7   20.10    9.00
   6   1  -7   13.55    6.23
  -6  -1   6  557.14   40.70
   6   1  -6  594.35   43.68
   6   1  -6  577.96   42.19
   6   1  -6  500.71   35.62
  -6  -1   6  538.51   39.54
  -6  -1   5  821.01   48.70
   6   1  -5  806.92   49.75
   6   1  -5  820.65   47.36
   6   1  -5  803.67   50.97
  -6  -1   5  897.12   49.15
  -6  -1   4    3.88    2.49
  -6  -1   4   -0.45    4.94
   6   1  -4    6.39    5.68
  -6  -1   4    5.89    5.72
   6   1  -4    0.79    4.43
   6   1  -4    3.54    6.20
  -6  -1   3 1741.40   73.76
   6   1  -3 1673.26   69.67
   6   1  -3 1654.76   78.29
  -6  -1   3 1802.51   61.32
  -6  -1   3 1803.15   67.32
   6   1  -2 1691.34   70.87
  -6  -1   2 1610.72   70.20
   6   1  -2 1600.15   63.28
   6   1  -2 1481.54   73.78
  -6  -1   2 1701.19   62.58
  -6  -1   2 1644.49   59.96
   6   1  -1   31.82   10.30
   6   1  -1    9.17    5.71
  -6  -1   1   16.94    4.93
   6   1  -1   22.59    6.13
  -6  -1   1   12.22    4.92
   6   1   0  533.54   39.89
   6   1   0  487.88   25.08
   6   1   0  492.83   39.16
  -6  -1   0  524.35   35.77
   6   1   1 2244.57   95.70
  -6  -1  -1 2322.92   82.47
   6   1   1 2217.55   92.63
  -6  -1  -1 2339.64   91.33
   6   1   1 2233.92   90.79
   6   1   2  741.31   52.12
  -6  -1  -2  808.15   44.03
   6   1   2  699.77   46.83
  -6  -1  -2  730.32   48.49
   6   1   2  702.67   47.53
   6   1   3   12.05    7.02
   6   1   3   -0.16    6.29
  -6  -1  -3    7.34    5.83
   6   1   3    4.15    7.32
  -6  -1  -3    7.81    8.68
   6   1   4  669.71   53.95
  -6  -1  -4  761.24   47.66
   6   1   4  635.37   43.54
  -6  -1  -4  712.68   53.25
   6   1   4  714.60   51.78
  -6  -1  -5  270.19   29.58
   6   1   5  264.81   34.61
  -6  -1  -5  240.75   31.89
   6   1   5  247.56   32.11
   6   1   6  119.13   24.03
  -6  -1  -6   89.52   20.98
  -6  -1  -6   88.14   17.92
   6   1   6   98.38   20.51
  -6  -1  -7   63.69   18.61
   6   1   7   55.10   18.58
  -6  -1  -7   83.11   18.11
   6   1   7   42.24   15.27
   6   1   8  150.19   29.28
   6   1   8  141.31   27.99
  -6  -1  -8  129.03   26.57
   6   1   9  180.51   33.44
   6   1   9  198.43   33.99
   6   2 -15   -1.24    7.25
   6   2 -15    4.61    7.66
  -6  -2  14  132.84   28.06
  -6  -2  14   69.08   22.21
   6   2 -14   93.65   23.46
   6   2 -14  112.99   24.43
  -6  -2  13  144.23   28.83
  -6  -2  13  145.62   27.86
   6   2 -13  220.78   35.00
   6   2 -13  209.52   31.41
  -6  -2  12   -1.84    7.04
   6   2 -12    5.15   10.58
   6   2 -12    4.27    5.89
  -6  -2  11  415.63   43.50
   6   2 -11  484.55   48.13
   6   2 -11  470.44   43.08
  -6  -2  11  442.22   45.54
  -6  -2  10  238.27   31.36
   6   2 -10  193.89   29.28
   6   2 -10  228.78   28.09
   6   2 -10  256.71   27.59
  -6  -2  10  253.31   32.91
   6   2  -9  132.31   20.54
  -6  -2   9  161.75   25.09
  -6  -2   9  166.94   24.77
   6   2  -9  136.31   23.98
   6   2  -9  149.43   21.62
  -6  -2   8   94.81   17.86
  -6  -2   8   80.25   17.50
   6   2  -8   62.54   15.83
   6   2  -8  113.95   18.98
  -6  -2   7  343.02   33.35
   6   2  -7  415.66   38.09
   6   2  -7  372.88   34.44
  -6  -2   7  400.94   35.89
  -6  -2   6  843.45   52.24
   6   2  -6  870.50   54.89
   6   2  -6  883.77   54.76
  -6  -2   6  979.80   55.00
  -6  -2   5   14.08    7.62
  -6  -2   5   25.19    5.52
  -6  -2   5   18.53    8.65
   6   2  -5   12.06    7.23
   6   2  -5   10.61    7.53
   6   2  -4  553.25   33.86
  -6  -2   4  592.99   40.84
   6   2  -4  473.95   35.98
   6   2  -4  494.77   40.43
  -6  -2   4  537.17   28.90
  -6  -2   4  531.01   35.51
   6   2  -3  696.17   41.43
  -6  -2   3  708.95   45.35
   6   2  -3  661.61   40.60
   6   2  -3  689.96   48.36
  -6  -2   3  754.49   37.82
  -6  -2   3  799.29   41.45
   6   2  -2  960.45   52.42
  -6  -2   2 1083.21   56.91
   6   2  -2 1027.80   48.26
   6   2  -2  908.94   57.10
  -6  -2   2 1036.20   48.55
  -6  -2   2 1010.16   46.32
  -6  -2   1   70.50   10.30
   6   2  -1   61.67   13.36
   6   2  -1   75.69   10.85
   6   2  -1   60.04   14.35
  -6  -2   1   74.92   13.26
   6   2   0  826.20   51.84
  -6  -2   0  790.69   38.40
   6   2   0  703.70   49.32
  -6  -2   0  713.90   44.56
   6   2   1 2200.05   96.68
  -6  -2  -1 2386.86   79.72
   6   2   1 2024.49   91.60
  -6  -2  -1 2240.39   91.61
   6   2   1 2170.09   89.34
   6   2   2  553.33   46.71
  -6  -2  -2  607.18   36.84
   6   2   2  608.07   44.69
  -6  -2  -2  582.78   44.12
   6   2   2  637.38   44.66
   6   2   3  278.66   34.00
   6   2   3  313.47   30.86
  -6  -2  -3  298.11   32.81
   6   2   3  262.75   29.70
   6   2   4 1192.57   76.44
   6   2   4 1306.96   66.56
  -6  -2  -4 1226.53   73.79
   6   2   4 1293.03   72.67
   6   2   5  714.81   59.55
  -6  -2  -5  804.39   60.53
   6   2   5  745.14   56.19
   6   2   6    5.71    7.45
   6   2   6    9.29    7.02
  -6  -2  -6    2.77    7.08
   6   2   7  195.22   32.94
  -6  -2  -7  192.54   32.23
   6   2   7  246.93   34.85
   6   2   8  114.83   25.88
   6   2   8  128.74   27.18
  -6  -2  -8  134.12   27.83
   6   3 -15   -2.66    6.31
  -6  -3  14   74.00   21.52
  -6  -3  14   91.10   22.42
   6   3 -14   81.77   21.87
   6   3 -14   76.56   20.98
  -6  -3  13   94.83   23.73
  -6  -3  13   51.59   16.52
   6   3 -13  100.76   24.43
   6   3 -13   95.23   21.50
  -6  -3  12    8.06    9.84
  -6  -3  12    3.54    7.76
   6   3 -12    9.99   10.32
   6   3 -12   18.82   10.93
  -6  -3  11  493.56   47.41
   6   3 -11  480.17   49.31
   6   3 -11  615.02   48.46
  -6  -3  11  539.93   50.90
  -6  -3  10  330.71   37.28
   6   3 -10  339.63   39.45
   6   3 -10  376.51   35.43
   6   3 -10  408.37   36.60
  -6  -3  10  407.27   41.74
  -6  -3   9   13.52    9.97
  -6  -3   9   -7.76    9.14
   6   3  -9   -1.34    7.80
   6   3  -9   -0.69    4.82
   6   3  -9   11.68    8.57
  -6  -3   8 1026.93   62.68
   6   3  -8  959.63   63.89
   6   3  -8 1078.18   62.59
  -6  -3   8 1026.06   63.84
  -6  -3   7 1650.82   81.90
   6   3  -7 1768.91   87.55
  -6  -3   7 1829.82   85.24
  -6  -3   6   53.21   13.35
  -6  -3   6   46.64   12.25
   6   3  -6   82.01   16.93
   6   3  -6   71.13   15.96
   6   3  -5  287.28   23.18
  -6  -3   5  297.56   29.90
   6   3  -5  269.21   28.80
   6   3  -5  257.39   29.85
  -6  -3   5  288.90   21.69
  -6  -3   5  291.74   28.39
   6   3  -4 1072.05   50.70
  -6  -3   4 1010.69   57.16
   6   3  -4  926.15   53.52
   6   3  -4  980.67   60.49
  -6  -3   4 1020.84   46.38
  -6  -3   4  994.92   52.57
   6   3  -3  685.46   42.25
  -6  -3   3  698.40   46.59
   6   3  -3  658.47   41.23
   6   3  -3  605.03   46.95
  -6  -3   3  694.52   38.96
  -6  -3   3  741.53   41.85
  -6  -3   2    3.17    5.13
  -6  -3   2    4.21    4.05
  -6  -3   2    7.36    6.50
   6   3  -2    3.03    3.62
   6   3  -2   12.14    7.40
   6   3  -2    8.04    7.30
   6   3  -1  203.59   24.92
   6   3  -1  197.93   18.61
   6   3  -1  210.78   27.21
  -6  -3   1  167.67   20.76
  -6  -3   1  205.91   19.41
   6   3   0 1372.98   72.62
   6   3   0 1362.44   73.27
  -6  -3   0 1435.94   68.64
   6   3   1  584.36   47.32
   6   3   1  565.46   44.94
  -6  -3  -1  626.44   45.22
   6   3   1  681.45   44.44
   6   3   2   58.19   16.58
   6   3   2   78.87   16.14
   6   3   2   53.66   14.71
  -6  -3  -2   59.88   14.82
   6   3   3  671.77   54.60
   6   3   3  676.77   48.74
  -6  -3  -3  634.87   50.44
   6   3   3  676.34   48.73
   6   3   4  786.96   62.14
  -6  -3  -4  783.13   59.26
   6   3   4  828.13   56.81
   6   3   5  248.02   35.02
   6   3   5  247.49   32.16
  -6  -3  -5  211.52   31.79
   6   3   6   -0.68    8.21
   6   3   6    1.18    6.36
  -6  -3  -6    7.07    8.41
   6   3   7  630.87   60.92
   6   3   7  516.82   51.51
  -6  -3  -7  527.39   54.49
   6   3   8  248.57   39.00
   6   3   8  306.91   40.96
   6   4 -15   19.97   12.55
  -6  -4  14  144.58   30.77
  -6  -4  14  137.37   28.73
   6   4 -14  126.45   28.19
   6   4 -14  153.71   27.25
  -6  -4  13   34.00   14.53
  -6  -4  13   30.80   13.88
   6   4 -13   33.33   13.60
   6   4 -13   37.66   14.02
  -6  -4  12  196.23   32.45
  -6  -4  12  156.28   27.95
   6   4 -12  163.39   29.75
   6   4 -12  232.91   30.51
  -6  -4  11  178.54   29.72
  -6  -4  11  206.72   30.40
   6   4 -11  227.91   34.19
   6   4 -11  188.20   26.20
  -6  -4  10  135.43   24.09
  -6  -4  10  129.57   23.81
   6   4 -10  149.49   26.47
   6   4 -10  141.33   21.27
   6   4 -10   85.56   17.83
  -6  -4   9   77.26   18.42
  -6  -4   9   77.83   17.81
   6   4  -9  103.93   20.93
   6   4  -9   78.96   14.23
   6   4  -9  121.38   21.22
  -6  -4   8 1040.19   64.23
   6   4  -8  889.08   62.80
   6   4  -8 1114.48   65.94
  -6  -4   8  980.18   63.55
  -6  -4   7 1374.16   73.69
   6   4  -7 1379.44   76.20
   6   4  -7 1339.00   74.46
  -6  -4   7 1408.16   74.75
  -6  -4   6   13.38    8.98
  -6  -4   6    4.01    4.11
  -6  -4   6   -0.11    6.64
   6   4  -6   -0.42    5.07
   6   4  -6    8.95    7.97
   6   4  -5 1082.87   50.54
  -6  -4   5  954.23   58.79
   6   4  -5 1014.33   59.70
   6   4  -5 1192.08   68.39
  -6  -4   5 1089.80   50.57
  -6  -4   5 1049.20   58.76
   6   4  -4 1451.92   63.90
  -6  -4   4 1269.70   68.47
   6   4  -4 1307.18   66.69
   6   4  -4 1292.00   73.65
  -6  -4   4 1467.98   61.98
  -6  -4   4 1379.72   66.43
   6   4  -3  811.88   48.47
  -6  -4   3  767.18   51.29
   6   4  -3  759.19   46.48
   6   4  -3  759.07   54.74
  -6  -4   3  799.20   45.41
  -6  -4   3  876.60   48.40
   6   4  -2  271.60   28.11
  -6  -4   2  198.84   25.48
   6   4  -2  233.57   23.20
   6   4  -2  209.50   27.97
  -6  -4   2  245.33   25.52
  -6  -4   2  256.57   24.01
   6   4  -1 1370.34   71.49
   6   4  -1 1170.89   71.17
  -6  -4   1 1425.56   68.26
  -6  -4   1 1379.42   60.18
   6   4   0  499.85   42.80
   6   4   0  426.37   40.76
  -6  -4   0  426.85   37.29
  -6  -4  -1   13.64    8.95
   6   4   1   -1.40    6.76
   6   4   1    0.32    5.33
   6   4   1    9.89    7.71
   6   4   2  284.26   35.23
   6   4   2  326.72   34.96
   6   4   2  274.00   28.90
  -6  -4  -2  297.90   34.06
   6   4   3  219.18   32.33
   6   4   3  229.71   29.09
   6   4   3  246.81   28.81
  -6  -4  -3  256.87   32.95
   6   4   4  117.22   23.99
   6   4   4  199.59   27.55
  -6  -4  -4  159.24   26.91
   6   4   5    1.13   11.72
   6   4   5   19.77   10.84
  -6  -4  -5   10.37    9.16
   6   4   6  107.31   26.12
  -6  -4  -6  134.80   27.49
   6   4   7  180.21   33.80
   6   4   7  227.40   33.60
  -6  -4  -7  138.84   29.25
  -6  -5  14    2.41    7.74
  -6  -5  14   20.30   12.19
   6   5 -14   19.00   11.72
  -6  -5  13  230.26   36.42
  -6  -5  13  208.01   34.21
   6   5 -13  216.19   36.01
  -6  -5  12  441.31   47.10
   6   5 -12  359.97   45.40
  -6  -5  12  401.04   46.91
  -6  -5  11   93.82   21.75
  -6  -5  11  110.82   22.52
   6   5 -11   89.09   22.20
  -6  -5  10  -10.83    9.17
   6   5 -10   -1.74    7.50
   6   5 -10    3.64    6.00
  -6  -5   9  243.67   31.23
   6   5  -9  212.16   31.51
   6   5  -9  231.83   30.48
  -6  -5   9  262.20   34.00
  -6  -5   8  840.73   57.99
   6   5  -8  806.62   59.89
   6   5  -8  783.06   57.31
  -6  -5   8  778.98   57.60
  -6  -5   7  144.86   23.12
  -6  -5   7  119.82   20.79
   6   5  -7  126.67   22.65
   6   5  -7  145.80   24.27
  -6  -5   6   51.99   14.18
  -6  -5   6   52.21   10.81
  -6  -5   6   41.22   12.20
   6   5  -6   85.74   18.36
   6   5  -6   50.92   14.64
  -6  -5   5 1073.61   64.00
   6   5  -5 1097.81   64.07
   6   5  -5 1050.98   67.59
  -6  -5   5 1110.07   55.00
  -6  -5   5 1035.44   60.87
   6   5  -4 2216.43   86.44
  -6  -5   4 2099.80   93.55
   6   5  -4 1953.97   87.54
   6   5  -4 1910.57   96.44
  -6  -5   4 1931.18   81.13
  -6  -5   4 2050.67   88.16
   6   5  -3  182.89   23.09
  -6  -5   3  145.20   19.69
  -6  -5   3  111.25   19.83
   6   5  -3  150.63   20.92
  -6  -5   3  159.15   21.16
   6   5  -3  153.51   25.02
   6   5  -2  473.86   40.36
  -6  -5   2  517.50   43.35
   6   5  -2  466.68   35.10
   6   5  -2  452.81   43.44
  -6  -5   2  476.07   38.18
  -6  -5   2  463.77   35.69
   6   5  -1 1321.77   73.17
   6   5  -1 1285.51   76.21
  -6  -5   1 1243.28   68.01
  -6  -5   1 1384.32   64.46
   6   5   0  272.07   33.15
  -6  -5   0  252.97   29.87
   6   5   0  226.98   30.78
  -6  -5  -1   88.27   18.58
   6   5   1  102.17   21.54
   6   5   1   63.68   17.08
   6   5   2  657.00   56.23
   6   5   2  643.90   52.34
  -6  -5  -2  592.76   50.47
  -6  -5  -3  141.26   25.51
   6   5   3  181.75   30.03
   6   5   3  199.90   28.85
  -6  -5  -4   38.58   15.68
   6   5   4   23.93   13.31
  -6  -5  -5   50.87   18.44
   6   5   5   18.04   10.42
  -6  -5  -6  130.45   27.38
   6   5   6  118.03   27.48
  -6  -6  14   25.74   13.69
  -6  -6  13  602.46   57.56
   6   6 -13  520.81   57.07
  -6  -6  13  452.70   52.81
  -6  -6  12  286.90   40.50
  -6  -6  12  326.08   40.78
   6   6 -12  258.64   39.53
  -6  -6  11   15.72   12.14
  -6  -6  11   15.18   11.78
   6   6 -11    3.30    7.95
   6   6 -11   -0.40    6.63
  -6  -6  10  284.06   35.79
   6   6 -10  272.81   37.84
   6   6 -10  274.00   34.79
  -6  -6  10  269.13   36.80
  -6  -6   9  900.74   63.64
   6   6  -9  863.82   66.57
   6   6  -9  960.80   66.49
  -6  -6   9  995.01   69.52
  -6  -6   8  302.11   34.84
   6   6  -8  284.13   35.88
   6   6  -8  351.74   39.43
  -6  -6   8  402.28   41.81
  -6  -6   7   35.71   12.24
  -6  -6   7   57.17   15.95
   6   6  -7   64.03   16.54
   6   6  -7   62.18   16.78
  -6  -6   6  340.21   35.79
   6   6  -6  288.26   34.01
   6   6  -6  296.73   36.49
  -6  -6   6  237.74   30.26
  -6  -6   6  324.10   29.84
  -6  -6   5  472.76   42.20
   6   6  -5  467.65   41.68
   6   6  -5  442.34   44.44
  -6  -6   5  423.67   39.66
  -6  -6   5  481.97   37.35
   6   6  -4  372.55   33.82
  -6  -6   4  330.21   35.31
   6   6  -4  373.30   35.78
   6   6  -4  353.65   39.90
  -6  -6   4  369.51   33.45
  -6  -6   4  411.54   37.25
  -6  -6   3   16.11    9.31
   6   6  -3   32.86   12.11
  -6  -6   3   24.14    9.05
  -6  -6   3   54.14   15.24
   6   6  -3   24.32    8.96
   6   6  -3   16.40   10.42
  -6  -6   2  747.61   55.26
   6   6  -2  844.47   62.82
  -6  -6   2  765.62   52.44
  -6  -6   2  862.54   53.08
   6   6  -2  726.41   53.45
   6   6  -1  645.37   55.06
  -6  -6   1  724.31   52.46
  -6  -6   1  793.42   50.06
   6   6  -1  721.70   54.88
   6   6   0  175.19   28.06
  -6  -6   0  229.30   29.85
   6   6   0  230.73   32.25
  -6  -6  -1  155.16   25.59
   6   6   1  201.28   31.29
   6   6   1  123.10   23.74
   6   6   2  409.13   43.62
  -6  -6  -2  411.22   43.63
   6   6   2  372.47   43.95
  -6  -6  -3   99.78   22.37
   6   6   3   61.99   19.67
   6   6   4   49.61   16.85
  -6  -6  -4   29.22   14.11
   6   6   5  363.14   47.79
  -6  -6  -5  446.86   51.02
  -6  -7  13  299.43   40.97
  -6  -7  12  302.50   40.06
   6   7 -12  344.56   46.53
  -6  -7  12  387.95   48.08
  -6  -7  11   10.82   10.63
  -6  -7  11   27.16   13.14
   6   7 -11    2.15    6.97
   6   7 -11    5.02    6.95
  -6  -7  10  657.49   56.06
   6   7 -10  591.73   57.70
   6   7 -10  669.92   57.60
  -6  -7  10  636.18   58.83
  -6  -7   9  769.44   59.11
   6   7  -9  699.25   61.21
   6   7  -9  701.40   59.23
  -6  -7   9  765.04   62.46
  -6  -7   8   -1.74    6.17
  -6  -7   8    6.73    9.58
   6   7  -8    0.24    6.88
   6   7  -8  -10.61    9.53
  -6  -7   7  280.18   34.32
   6   7  -7  300.82   37.17
   6   7  -7  348.31   41.46
  -6  -7   7  309.10   37.37
  -6  -7   6  581.08   49.48
   6   7  -6  644.77   53.56
   6   7  -6  643.70   56.76
  -6  -7   6  686.43   54.15
  -6  -7   6  624.73   46.23
  -6  -7   5  315.44   36.11
   6   7  -5  276.92   33.54
   6   7  -5  341.88   40.59
  -6  -7   5  339.02   36.80
  -6  -7   5  274.41   30.47
  -6  -7   4   54.54   15.12
   6   7  -4   46.04   13.74
  -6  -7   4   33.46   11.00
  -6  -7   4   35.50   13.41
   6   7  -4   20.66   10.15
   6   7  -4   26.19   13.11
  -6  -7   3  388.52   39.78
   6   7  -3  288.76   38.31
  -6  -7   3  333.30   35.15
  -6  -7   3  304.65   33.51
   6   7  -3  369.19   37.29
  -6  -7   2  127.92   21.32
   6   7  -2  109.03   21.61
  -6  -7   2  107.31   20.72
  -6  -7   2   97.32   20.43
   6   7  -2  117.86   24.76
   6   7  -1   32.63   10.99
  -6  -7   1   70.31   18.08
   6   7  -1   29.99   14.52
  -6  -7   0   -6.43    8.38
   6   7   0   14.33    9.56
   6   7   0    8.13   11.03
  -6  -7  -1  206.75   31.50
   6   7   1  172.50   29.97
   6   7   1  189.44   30.71
  -6  -7  -2  180.70   30.73
   6   7   2  145.73   28.98
   6   7   2  180.13   30.04
  -6  -7  -3   22.11   14.04
   6   7   3   16.68   12.17
  -6  -7  -4   60.82   20.30
   6   7   4   59.23   19.21
  -6  -8  13  165.90   31.20
  -6  -8  12   62.10   18.79
  -6  -8  11   60.38   18.86
  -6  -8  11   45.99   17.08
   6   8 -11   19.75   12.72
   6   8 -11   82.19   21.49
  -6  -8  10  579.18   53.51
   6   8 -10  493.70   54.56
   6   8 -10  489.67   51.35
  -6  -8  10  563.17   56.55
  -6  -8   9  387.11   42.96
   6   8  -9  374.52   45.98
   6   8  -9  454.11   49.26
  -6  -8   8   -2.75    6.87
  -6  -8   8   -5.49    7.92
   6   8  -8   -1.23    5.03
   6   8  -8    1.74    5.57
  -6  -8   7  183.05   30.01
  -6  -8   7  166.66   28.52
   6   8  -7  182.72   30.08
   6   8  -7  181.49   31.04
  -6  -8   6  658.00   54.09
   6   8  -6  579.43   52.55
   6   8  -6  550.10   54.65
  -6  -8   6  642.44   54.77
  -6  -8   6  481.52   43.89
  -6  -8   5   67.21   18.04
  -6  -8   5   56.65   15.59
  -6  -8   5   81.99   18.82
   6   8  -5   54.37   16.13
   6   8  -5   41.50   16.36
  -6  -8   4  162.65   26.86
  -6  -8   4  130.42   22.76
  -6  -8   4  157.14   26.41
   6   8  -4  183.70   27.53
   6   8  -4  164.48   29.82
  -6  -8   3  432.46   44.12
   6   8  -3  458.62   50.28
  -6  -8   3  437.67   42.85
  -6  -8   3  450.74   44.04
   6   8  -3  427.75   42.83
  -6  -8   2   66.56   17.44
   6   8  -2   34.08   13.83
  -6  -8   2   47.30   15.50
  -6  -8   2   47.13   15.70
   6   8  -2   29.29   12.92
   6   8  -1   17.97   11.25
  -6  -8   1   15.94   11.29
   6   8  -1   20.57   11.93
   6   8   0  162.17   29.63
  -6  -8   0  211.37   32.28
   6   8   0  172.87   31.24
   6   8   1   29.02   14.96
  -6  -8  -1   26.76   12.45
   6   8   1   30.42   13.99
   6   8   2   -1.44    8.01
  -6  -8  -2    2.01    7.94
   6   8   2   22.11   12.81
   6   9 -11  243.68   37.50
  -6  -9  10  247.38   38.74
  -6  -9  10  229.78   34.32
   6   9 -10  248.32   39.66
   6   9 -10  284.12   40.45
  -6  -9   9   93.11   23.12
  -6  -9   9   83.02   21.07
   6   9  -9   93.49   24.42
   6   9  -9   57.36   19.17
  -6  -9   8  -10.80    9.50
  -6  -9   8   -0.32    7.68
   6   9  -8    0.48    6.97
   6   9  -8  -16.57   10.45
  -6  -9   7  265.57   37.70
  -6  -9   7  212.16   32.18
   6   9  -7  258.41   37.02
   6   9  -7  255.62   38.97
  -6  -9   6  409.52   44.07
   6   9  -6  354.17   42.81
  -6  -9   6  446.89   47.30
   6   9  -6  310.11   42.90
  -6  -9   6  323.01   38.03
  -6  -9   5  122.71   24.31
  -6  -9   5   59.49   17.03
  -6  -9   5   71.60   18.87
   6   9  -5   67.64   18.12
   6   9  -5   73.39   21.21
  -6  -9   4  190.53   30.61
  -6  -9   4  261.94   35.18
  -6  -9   4  182.95   28.96
   6   9  -4  210.48   35.22
  -6  -9   3  369.58   42.57
   6   9  -3  340.90   45.34
  -6  -9   3  320.64   39.39
  -6  -9   3  284.90   37.59
  -6  -9   2   45.52   15.76
   6   9  -2   20.28   11.04
  -6  -9   2   76.13   19.87
  -6  -9   2   60.78   17.86
   6   9  -2   50.99   18.43
   6   9  -1  116.83   25.52
  -6  -9   1  121.34   25.27
  -6  -9   1  123.76   25.50
   6   9  -1  102.61   25.62
   6   9   0  419.44   50.77
  -6  -9   0  390.79   47.11
   6   9   0  402.11   48.81
   6   9   1   40.34   16.50
   6   9   1    0.05    6.81
   6  10  -8   92.65   24.38
  -6 -10   7  255.26   38.62
   6  10  -7  344.13   44.95
  -6 -10   6   20.62   10.66
  -6 -10   6   73.83   19.21
  -6 -10   6   47.71   16.09
   6  10  -6   29.47   13.49
   6  10  -6   34.94   15.65
  -6 -10   5   28.67   13.86
  -6 -10   5   12.15   10.34
  -6 -10   5   60.09   18.37
   6  10  -5   33.09   15.59
  -6 -10   4  159.46   29.00
  -6 -10   4  148.78   28.56
  -6 -10   4  163.62   28.64
   6  10  -4  158.13   32.34
  -6 -10   3   78.82   20.03
  -6 -10   3   57.90   18.49
  -6 -10   3   44.59   15.77
  -6 -10   2   46.73   17.20
  -6 -10   2   26.01   12.63
   6  10  -1  108.84   26.55
   7 -11  -1   47.10   17.11
   7 -11   0  217.31   35.04
   7 -11   1   80.27   21.81
   7 -11   1  102.79   24.25
  -7  11  -2   -2.63    6.17
   7 -11   2  -22.76   12.81
   7 -11   2   -3.04    7.00
  -7  10   6  153.77   29.59
  -7  10   6  116.62   27.45
  -7  10   5   32.66   14.62
  -7  10   5   52.57   18.00
   7 -10  -5   34.71   15.15
  -7  10   4  192.61   31.40
  -7  10   4  131.95   28.29
   7 -10  -4  142.80   29.16
  -7  10   3  314.24   43.09
   7 -10  -3  340.54   44.18
  -7  10   3  269.63   36.30
  -7  10   2   16.01   12.38
   7 -10  -2   27.58   13.17
  -7  10   1  146.07   28.96
   7 -10  -1  124.85   26.37
   7 -10   0  472.86   47.33
  -7  10   0  451.45   51.56
   7 -10   0  435.26   48.34
  -7  10  -1  181.91   32.31
   7 -10   1  196.56   31.15
   7 -10   1  173.05   29.97
  -7  10  -2   92.84   22.29
   7 -10   2   63.59   18.96
  -7  10  -2   98.51   23.97
   7 -10   2   90.44   21.60
  -7  10  -3  612.13   57.96
   7 -10   3  622.37   59.55
  -7  10  -3  575.27   58.05
   7 -10   3  618.57   55.61
  -7  10  -4   47.08   16.15
   7 -10   4   47.26   17.49
  -7  10  -4   22.73   12.31
  -7   9   8  507.41   54.02
   7  -9  -7  106.58   24.97
  -7   9   7  100.94   24.14
  -7   9   7  127.50   27.76
  -7   9   6   51.93   17.00
  -7   9   6   14.52    9.78
   7  -9  -6   53.91   18.23
  -7   9   5   77.80   20.33
  -7   9   5   43.86   16.26
   7  -9  -5   79.27   20.74
  -7   9   4   94.18   20.80
  -7   9   4   60.35   18.44
   7  -9  -4   78.77   20.97
  -7   9   3   34.80   13.31
  -7   9   3   16.21   10.43
   7  -9  -3   44.60   16.25
  -7   9   2   88.54   19.73
  -7   9   2   68.00   19.41
   7  -9  -2   66.56   18.48
  -7   9   1  104.68   23.41
   7  -9  -1  149.37   24.74
   7  -9  -1  162.40   28.28
  -7   9   0  101.02   22.46
   7  -9   0  104.58   21.83
   7  -9   0   61.87   17.50
   7  -9   1  -16.30   10.21
  -7   9  -1   -6.55    8.06
   7  -9   1   15.43    8.79
   7  -9   2  251.94   33.81
  -7   9  -2  245.20   34.73
  -7   9  -2  241.71   34.69
   7  -9   2  247.17   34.83
  -7   9  -3  340.51   41.67
   7  -9   3  364.35   43.98
  -7   9  -3  386.09   44.23
   7  -9   3  349.06   40.13
  -7   9  -4    4.47    6.74
   7  -9   4   11.33    8.13
  -7   9  -4   -5.89    6.63
  -7   9  -5  171.02   30.81
   7  -9   5  206.14   35.29
   7  -8 -10   12.81    6.95
  -7   8   9  316.99   43.87
  -7   8   9  222.99   33.95
   7  -8  -9  234.88   38.13
   7  -8  -9  225.75   35.39
  -7   8   8  497.45   53.20
   7  -8  -8  499.33   54.81
  -7   8   8  467.66   49.70
   7  -8  -8  430.55   48.08
  -7   8   7   81.33   20.48
  -7   8   7  125.59   25.93
   7  -8  -7   95.00   24.58
   7  -8  -7  136.48   26.52
  -7   8   6  216.03   32.09
  -7   8   6  164.26   29.40
   7  -8  -6  151.80   28.14
  -7   8   5  320.84   40.09
   7  -8  -5  330.19   40.54
  -7   8   5  342.26   39.25
  -7   8   4   80.00   20.96
  -7   8   4   44.88   14.90
   7  -8  -4   67.31   18.44
  -7   8   3   92.91   21.63
  -7   8   3   96.52   19.31
   7  -8  -3   84.13   20.35
   7  -8  -2  397.91   38.68
  -7   8   2  408.12   44.41
   7  -8  -2  403.19   43.33
  -7   8   2  437.58   40.00
  -7   8   1   -9.59    8.56
   7  -8  -1    0.80    6.28
   7  -8  -1   -1.53    5.69
   7  -8   0   69.53   18.38
  -7   8   0   46.63   14.89
   7  -8   0   42.69   13.14
   7  -8   1  269.11   34.50
  -7   8  -1  261.74   34.61
   7  -8   1  245.56   32.59
  -7   8  -2  123.88   24.05
   7  -8   2  198.10   30.14
   7  -8   2  191.58   28.76
  -7   8  -3    8.38    8.97
   7  -8   3   -4.72    9.38
   7  -8   3   -9.09    7.95
  -7   8  -4   66.13   19.60
  -7   8  -4   85.97   19.00
   7  -8   4   52.35   17.24
   7  -8   4   79.29   18.40
  -7   8  -5   82.58   21.23
   7  -8   5   78.17   19.85
  -7   8  -6  229.96   35.60
   7  -8   6  173.67   32.89
  -7   7  10    6.19    8.27
   7  -7 -10   19.63   10.79
   7  -7 -10    8.46    8.48
   7  -7  -9  458.93   52.64
  -7   7   9  520.43   50.06
   7  -7  -9  433.91   47.01
  -7   7   9  517.17   54.06
   7  -7  -8  378.51   45.88
  -7   7   8  288.63   37.05
   7  -7  -8  318.19   39.47
  -7   7   8  369.37   43.77
  -7   7   7   19.29   11.87
  -7   7   7    1.99    5.95
   7  -7  -7   -0.48    7.08
   7  -7  -7    8.11    8.36
  -7   7   6  193.26   29.13
   7  -7  -6  226.23   33.56
  -7   7   6  257.29   34.61
   7  -7  -6  238.08   33.22
   7  -7  -5  275.46   36.13
  -7   7   5  280.05   35.56
   7  -7  -5  263.69   34.58
  -7   7   5  334.60   36.24
  -7   7   4   -1.44    8.19
  -7   7   4    2.60    5.15
   7  -7  -4   -3.30    7.29
   7  -7  -3  503.75   41.09
  -7   7   3  470.45   46.13
   7  -7  -3  524.57   47.87
  -7   7   3  499.82   41.68
   7  -7  -2  293.06   32.01
  -7   7   2  332.55   38.66
   7  -7  -2  362.57   39.46
  -7   7   2  317.69   31.76
  -7   7   1   21.36   10.45
   7  -7  -1   29.70   11.62
   7  -7  -1    9.43    6.66
   7  -7   0  400.37   39.30
  -7   7   0  376.34   39.78
   7  -7   0  342.44   37.92
   7  -7   1  652.65   52.71
   7  -7   1  609.63   50.24
  -7   7  -1  658.65   53.11
  -7   7  -2   73.96   17.96
   7  -7   2  111.39   22.52
   7  -7   2  102.47   20.23
  -7   7  -3  230.52   32.45
   7  -7   3  332.43   39.30
  -7   7  -3  307.33   35.03
   7  -7   3  337.94   37.17
  -7   7  -4  401.65   44.15
   7  -7   4  376.27   43.72
  -7   7  -4  436.93   41.88
   7  -7   4  399.61   40.88
  -7   7  -5  195.06   31.68
   7  -7   5  169.48   30.27
  -7   7  -6   76.90   20.78
   7  -7   6   55.64   18.62
   7  -7   6   71.08   19.76
  -7   7  -7  127.99   26.84
   7  -7   7  108.27   24.73
   7  -7   7  130.13   27.08
   7  -7   8  210.36   35.16
  -7   6  11    7.08    6.52
   7  -6 -11    6.74    8.71
  -7   6  10  113.61   23.28
  -7   6  10  128.73   26.86
   7  -6 -10  139.08   29.74
   7  -6 -10  113.17   23.38
  -7   6   9   78.40   19.35
  -7   6   9   71.88   19.35
   7  -6  -9   85.79   22.25
   7  -6  -9   73.46   19.17
  -7   6   8   13.15    9.49
  -7   6   8   -5.54    8.37
   7  -6  -8   17.19   10.91
   7  -6  -8   -0.73    6.64
  -7   6   7  126.89   23.74
   7  -6  -7  187.61   30.87
   7  -6  -7  158.97   26.62
  -7   6   7  134.88   24.12
   7  -6  -6  175.36   28.56
   7  -6  -6  151.90   25.32
  -7   6   6  217.40   29.36
  -7   6   6  165.36   27.00
  -7   6   5    5.41    5.48
   7  -6  -5    5.10    8.24
   7  -6  -5   11.93    8.36
  -7   6   5    8.79    6.65
  -7   6   4   -0.35    5.49
  -7   6   4   -2.87    8.06
   7  -6  -4   -0.23    6.77
   7  -6  -4    4.34    6.11
   7  -6  -4   10.59    6.85
   7  -6  -3  358.05   37.33
   7  -6  -3  303.68   34.51
  -7   6   3  345.02   37.16
   7  -6  -3  298.21   30.73
  -7   6   3  352.21   32.65
  -7   6   2  111.22   17.50
   7  -6  -2   75.88   15.54
   7  -6  -2  133.00   22.72
  -7   6   2  117.67   22.03
   7  -6  -1  -15.27    8.70
   7  -6  -1   -6.72    7.46
  -7   6   1    5.37    6.76
  -7   6   0 1036.39   64.90
   7  -6   0  893.82   60.06
   7  -6   0  985.89   63.21
   7  -6   1  830.37   59.00
  -7   6  -1  874.46   58.87
   7  -6   1  918.81   61.21
  -7   6  -2   40.48   13.05
   7  -6   2   14.35    9.87
   7  -6   2   21.83    9.44
  -7   6  -3  546.10   48.87
   7  -6   3  524.20   49.12
  -7   6  -3  561.53   45.63
   7  -6   3  588.37   47.89
  -7   6  -4  770.02   60.46
   7  -6   4  773.23   61.54
  -7   6  -4  838.89   56.12
   7  -6   4  873.30   58.77
  -7   6  -5  468.22   47.57
   7  -6   5  386.84   44.19
   7  -6   5  383.68   42.40
  -7   6  -6   88.01   21.67
   7  -6   6  160.21   29.12
   7  -6   6  110.20   23.12
  -7   6  -7  607.19   57.77
   7  -6   7  654.54   60.81
   7  -6   7  595.26   56.87
   7  -6   8  347.49   45.31
   7  -6   8  372.84   46.10
  -7   5  12   32.14   16.13
  -7   5  12    4.63    8.74
   7  -5 -12   15.72   11.16
  -7   5  11   87.02   22.93
  -7   5  11   69.85   21.20
   7  -5 -11   75.05   21.37
  -7   5  10  308.52   38.37
   7  -5 -10  296.72   40.90
  -7   5  10  343.53   38.04
   7  -5 -10  277.17   34.49
  -7   5  10  300.98   40.54
  -7   5   9   13.25   10.93
  -7   5   9    1.21    8.35
  -7   5   9   11.26    9.08
   7  -5  -9  -12.73   10.18
   7  -5  -9   -3.28    8.06
  -7   5   8  188.93   29.14
   7  -5  -8  182.74   27.05
  -7   5   8  191.71   26.95
   7  -5  -8  212.88   33.76
  -7   5   8  218.67   29.80
  -7   5   7  196.89   28.56
  -7   5   7  238.70   28.27
  -7   5   7  252.91   32.29
   7  -5  -7  165.81   28.50
   7  -5  -7  207.05   28.52
  -7   5   6    0.18    4.04
  -7   5   6    0.17    5.58
   7  -5  -6    3.11    8.01
  -7   5   6   -0.62    8.20
   7  -5  -6   -4.91    6.09
   7  -5  -5  163.14   24.82
   7  -5  -5  147.10   24.56
  -7   5   5  155.15   24.88
  -7   5   5  201.44   25.44
  -7   5   4  373.48   33.19
   7  -5  -4  342.63   35.94
  -7   5   4  366.84   37.40
   7  -5  -4  372.94   33.13
   7  -5  -4  335.08   35.38
   7  -5  -3  147.70   23.17
   7  -5  -3  141.17   20.68
  -7   5   3  155.57   24.06
   7  -5  -3  176.55   25.99
  -7   5   3  162.74   20.30
  -7   5   2    4.70    5.02
   7  -5  -2    5.71    5.13
   7  -5  -2    1.12    5.23
   7  -5  -2   -2.96    6.22
  -7   5   2   -1.37    6.08
  -7   5   1  193.22   26.36
   7  -5  -1  191.06   24.74
   7  -5  -1  193.07   26.36
  -7   5   0  472.29   41.10
   7  -5   0  454.67   40.57
   7  -5   0  493.12   42.47
   7  -5   1  151.61   22.90
   7  -5   1  195.00   27.08
  -7   5  -1  119.38   19.86
   7  -5   2   27.29   11.35
   7  -5   2   35.76   11.84
  -7   5  -2   31.40   11.46
  -7   5  -3  912.57   62.94
   7  -5   3  983.09   66.35
  -7   5  -3  995.93   59.39
   7  -5   3  941.18   61.03
  -7   5  -4  828.54   60.93
   7  -5   4  839.13   62.06
   7  -5   4  770.28   58.52
   7  -5   4  838.57   56.91
  -7   5  -5  194.98   29.79
   7  -5   5  158.78   27.21
   7  -5   5  185.56   29.31
   7  -5   5  201.14   27.46
  -7   5  -6  591.24   54.19
   7  -5   6  516.46   51.35
   7  -5   6  491.19   49.34
  -7   5  -7  674.10   60.47
   7  -5   7  690.35   60.99
   7  -5   7  687.76   61.45
  -7   5  -8  228.12   35.67
   7  -5   8  206.09   33.45
   7  -5   8  182.57   32.76
  -7   4  13  227.69   36.78
   7  -4 -13  217.83   38.02
  -7   4  12   18.22   12.35
  -7   4  12   13.70   10.32
   7  -4 -12   14.06    9.50
  -7   4  11  144.86   28.10
  -7   4  11  176.74   30.20
   7  -4 -11  219.67   35.37
  -7   4  10  249.08   33.94
  -7   4  10  268.17   32.55
   7  -4 -10  205.58   33.41
   7  -4 -10  298.05   33.68
  -7   4  10  322.60   40.43
  -7   4   9    6.73    7.37
  -7   4   9    2.85    6.67
   7  -4  -9    0.29    6.57
  -7   4   9  -17.54    9.36
   7  -4  -9    9.40    8.29
  -7   4   8  432.81   40.01
   7  -4  -8  309.95   38.85
  -7   4   8  355.77   37.34
   7  -4  -8  379.04   37.32
  -7   4   8  324.59   37.58
  -7   4   7  484.63   40.18
   7  -4  -7  438.74   44.57
  -7   4   7  417.77   40.37
   7  -4  -7  435.92   39.94
  -7   4   7  445.52   41.30
  -7   4   6   95.24   18.19
  -7   4   6  122.31   18.66
   7  -4  -6  105.20   20.46
  -7   4   6  122.32   21.29
   7  -4  -6  153.04   22.88
  -7   4   5  606.37   40.68
   7  -4  -5  534.07   45.32
  -7   4   5  501.42   43.86
   7  -4  -5  615.91   46.70
  -7   4   5  603.76   43.15
  -7   4   4 1255.20   57.96
   7  -4  -4 1071.30   64.39
  -7   4   4 1109.45   66.32
   7  -4  -4 1056.83   64.13
  -7   4   4 1310.08   62.30
  -7   4   3   45.09   10.25
  -7   4   3   58.12   10.55
   7  -4  -3   57.95   14.24
   7  -4  -3   69.17   14.37
  -7   4   3   19.96    9.97
   7  -4  -3   55.03   14.20
   7  -4  -2  346.49   32.50
  -7   4   2  443.68   38.91
   7  -4  -2  305.48   31.16
   7  -4  -2  328.49   33.78
  -7   4   2  443.08   29.53
   7  -4  -1 1329.35   64.78
  -7   4   1 1164.37   66.41
   7  -4  -1 1280.15   68.22
   7  -4  -1 1264.98   69.36
   7  -4   0  213.13   27.29
  -7   4   0  222.30   26.95
   7  -4   0  205.13   26.20
   7  -4   1   12.20    8.69
  -7   4  -1   16.82    7.78
   7  -4   1   20.06    8.88
  -7   4  -2  450.25   40.20
  -7   4  -2  400.68   35.31
   7  -4   2  351.51   37.24
   7  -4   2  350.13   35.35
  -7   4  -3  467.12   42.34
  -7   4  -3  436.29   36.39
   7  -4   3  472.14   43.81
   7  -4   3  414.70   40.32
   7  -4   3  462.63   40.86
  -7   4  -4  259.11   32.51
   7  -4   4  294.23   35.43
   7  -4   4  269.11   33.19
   7  -4   4  280.67   32.43
   7  -4   5   26.05   13.70
   7  -4   5   20.73   11.96
  -7   4  -6  401.13   43.59
   7  -4   6  418.72   44.23
   7  -4   6  316.34   39.64
  -7   4  -7  497.69   50.97
   7  -4   7  501.88   50.83
   7  -4   7  552.98   54.31
  -7   4  -8  103.46   24.09
   7  -4   8  123.85   25.51
   7  -4   8  105.90   24.63
   7  -4   9   85.35   21.11
  -7   3  13   -6.06   11.41
  -7   3  13    1.82    9.96
   7  -3 -13   15.95    9.86
  -7   3  12  147.12   29.00
  -7   3  12  168.14   30.77
   7  -3 -12  158.31   30.35
  -7   3  11  166.15   29.39
  -7   3  11  177.54   29.41
   7  -3 -11  190.65   32.62
  -7   3  11  207.64   28.14
  -7   3  10   -1.48    7.82
  -7   3  10    0.62    5.31
   7  -3 -10    4.72   11.05
  -7   3  10    3.81    5.25
   7  -3 -10    6.08    4.85
  -7   3   9  176.83   28.18
  -7   3   9  160.40   25.34
   7  -3  -9  103.21   22.60
  -7   3   9  146.01   23.33
   7  -3  -9  153.48   23.02
  -7   3   8  428.82   39.42
  -7   3   8  387.55   38.02
   7  -3  -8  394.88   42.11
   7  -3  -8  387.99   36.45
  -7   3   8  365.04   38.47
   7  -3  -7  107.50   18.85
  -7   3   7   96.92   18.70
  -7   3   7  108.56   18.61
   7  -3  -7   67.70   16.55
  -7   3   7  114.39   20.69
  -7   3   6  103.59   18.51
  -7   3   6  126.99   19.19
   7  -3  -6  137.16   23.35
  -7   3   6  109.30   19.47
   7  -3  -6  113.22   19.31
  -7   3   5  911.25   51.78
  -7   3   5  860.93   56.86
   7  -3  -5  883.57   57.57
   7  -3  -5  896.69   56.26
  -7   3   5 1008.89   55.09
  -7   3   4 1391.54   63.66
  -7   3   4 1342.35   72.31
   7  -3  -4 1339.91   70.30
   7  -3  -4 1332.92   70.78
  -7   3   4 1438.75   64.26
  -7   3   3   60.33   11.11
   7  -3  -3   48.68   15.21
  -7   3   3   45.38    9.72
   7  -3  -3   45.24   12.24
  -7   3   3   56.53   14.38
   7  -3  -3   47.59   12.95
  -7   3   2 2116.59   76.67
  -7   3   2 1917.76   87.43
   7  -3  -2 1816.36   80.24
   7  -3  -2 1800.39   83.04
   7  -3  -2 1749.26   87.55
   7  -3  -2 2093.78   90.61
  -7   3   2 2125.63   71.87
  -7   3   1 2320.11   83.10
  -7   3   1 2407.51   98.47
   7  -3  -1 2370.98   88.80
   7  -3  -1 2227.00   95.75
   7  -3  -1 2379.70   99.88
  -7   3   0  133.36   16.18
   7  -3   0   83.26   17.26
  -7   3   0  115.69   18.73
   7  -3   0  132.80   21.58
  -7   3  -1  308.66   25.48
   7  -3   1  354.81   34.84
  -7   3  -1  301.43   29.97
   7  -3   1  246.62   29.21
  -7   3  -2 1294.31   70.70
  -7   3  -2 1334.59   66.79
   7  -3   2 1440.05   76.35
   7  -3   2 1328.13   73.31
   7  -3   2 1361.82   73.46
  -7   3  -3  260.01   30.85
  -7   3  -3  292.18   28.65
   7  -3   3  265.79   32.49
   7  -3   3  237.19   30.46
   7  -3   3  253.43   30.20
  -7   3  -4   -0.16    6.22
   7  -3   4   -2.65    7.42
   7  -3   4    9.13    7.20
  -7   3  -5  367.07   39.37
   7  -3   5  427.49   43.17
   7  -3   5  328.55   39.14
  -7   3  -6  312.08   37.75
   7  -3   6  362.93   40.48
   7  -3   6  368.13   42.57
  -7   3  -7  146.80   26.95
   7  -3   7  147.75   26.74
   7  -3   7  204.28   33.23
  -7   3  -8   35.20   15.71
   7  -3   8   60.08   17.36
   7  -3   8   28.21   14.71
  -7   2  14    9.13   10.06
   7  -2 -14   -5.39    8.64
  -7   2  13  691.31   63.96
   7  -2 -13  706.23   65.52
  -7   2  13  649.16   62.48
  -7   2  12  146.17   28.44
  -7   2  12  129.97   26.62
   7  -2 -12  165.71   30.67
  -7   2  11    1.00    9.71
  -7   2  11   -2.01    7.17
   7  -2 -11   18.63   12.39
  -7   2  11    2.22    5.65
  -7   2  10  294.31   37.31
  -7   2  10  263.30   34.09
  -7   2  10  317.70   34.28
   7  -2 -10  229.12   34.00
   7  -2 -10  320.48   31.66
  -7   2   9  337.58   36.58
  -7   2   9  289.74   32.42
   7  -2  -9  244.17   33.36
   7  -2  -9  351.44   33.07
  -7   2   9  327.31   37.23
  -7   2   8   77.93   17.20
   7  -2  -8   44.53   11.69
   7  -2  -8   69.89   16.07
  -7   2   8   95.66   19.20
   7  -2  -8   65.65   16.54
  -7   2   8   36.47   12.24
  -7   2   7  239.23   27.93
  -7   2   7  245.51   28.85
  -7   2   7  230.64   29.03
   7  -2  -7  216.85   29.24
   7  -2  -7  244.63   29.00
   7  -2  -7  233.66   26.76
  -7   2   6  630.80   43.38
  -7   2   6  516.81   43.53
   7  -2  -6  555.66   45.38
   7  -2  -6  614.69   46.79
  -7   2   6  620.15   44.01
   7  -2  -6  575.70   43.47
   7  -2  -5  937.10   56.50
  -7   2   5  961.77   53.11
  -7   2   5  988.29   59.91
   7  -2  -5  949.96   58.33
   7  -2  -5  824.02   55.27
  -7   2   5  936.07   52.30
  -7   2   4  138.27   18.36
   7  -2  -4  165.65   23.81
   7  -2  -4  180.19   23.23
  -7   2   4  161.34   23.10
  -7   2   4  208.34   21.44
   7  -2  -4  130.15   19.90
  -7   2   3  567.38   37.34
  -7   2   3  559.10   43.26
   7  -2  -3  589.20   40.82
   7  -2  -3  533.49   43.56
   7  -2  -3  528.43   41.58
  -7   2   3  611.97   34.94
  -7   2   2 2084.55   78.57
  -7   2   2 1905.96   86.38
   7  -2  -2 1973.90   79.22
   7  -2  -2 1852.59   88.28
   7  -2  -2 1990.09   88.39
  -7   2   1  619.92   38.45
  -7   2   1  626.30   44.49
   7  -2  -1  597.66   37.06
   7  -2  -1  705.60   47.69
   7  -2  -1  604.27   46.14
   7  -2  -1  567.93   44.06
   7  -2   0   17.58    9.57
  -7   2   0   20.80    6.94
   7  -2   0   18.84    6.65
  -7   2   0   24.78    9.48
   7  -2   0   17.49    9.11
   7  -2   0   15.76    8.95
  -7   2  -1 1063.08   53.01
  -7   2  -1  928.51   54.17
   7  -2   1 1001.13   60.74
   7  -2   1  977.93   59.86
   7  -2   1  978.79   60.50
  -7   2  -2 2398.48   98.81
  -7   2  -2 2460.92   94.25
   7  -2   2 2338.52  102.63
   7  -2   2 2170.72   97.09
   7  -2   2 2324.06  101.99
   7  -2   2 2370.13  101.87
  -7   2  -3  377.35   36.14
  -7   2  -3  388.01   31.91
   7  -2   3  405.71   39.42
   7  -2   3  360.76   37.63
  -7   2  -4  195.63   26.58
   7  -2   4  225.37   29.72
   7  -2   4  196.04   28.72
  -7   2  -5  859.72   60.42
   7  -2   5  883.71   61.96
   7  -2   5  880.06   64.71
  -7   2  -6  164.82   26.46
   7  -2   6  158.42   26.81
   7  -2   6  109.52   23.46
  -7   2  -7   44.42   14.56
   7  -2   7   61.33   17.34
  -7   2  -8  263.95   37.37
   7  -2   8  234.04   33.94
   7  -2   8  255.33   38.39
  -7   2  -9   74.27   21.12
  -7   1  14   98.65   24.57
  -7   1  14   75.10   23.00
   7  -1 -14   72.61   21.33
  -7   1  13  190.02   33.12
  -7   1  13  222.37   35.78
   7  -1 -13  155.02   30.18
  -7   1  12   56.42   18.04
  -7   1  12   77.62   20.45
   7  -1 -12   35.75   14.33
  -7   1  11  195.97   30.94
  -7   1  11  203.91   31.31
   7  -1 -11  227.65   34.00
  -7   1  11  188.41   26.41
  -7   1  10  764.69   58.29
  -7   1  10  689.37   51.44
   7  -1 -10  679.51   58.15
   7  -1 -10  787.75   51.98
  -7   1  10  775.87   60.20
  -7   1   9  650.29   51.01
  -7   1   9  582.26   47.20
   7  -1  -9  692.38   56.34
   7  -1  -9  681.22   48.06
  -7   1   9  635.73   51.93
   7  -1  -9  613.44   43.92
  -7   1   8    4.77    7.06
   7  -1  -8   10.54    5.49
  -7   1   8   -0.75    7.95
   7  -1  -8   14.95    8.17
   7  -1  -8   17.27    9.79
  -7   1   7  986.35   59.41
   7  -1  -7  973.28   63.48
   7  -1  -7 1163.38   64.52
  -7   1   7 1025.99   61.33
   7  -1  -7 1075.41   59.70
  -7   1   6  706.04   46.88
   7  -1  -6  585.03   46.04
   7  -1  -6  628.52   46.81
  -7   1   6  612.53   43.78
   7  -1  -6  658.82   45.34
  -7   1   5  161.30   21.38
   7  -1  -5  161.80   23.29
   7  -1  -5  195.86   24.32
  -7   1   5  188.39   21.99
   7  -1  -5  140.53   21.04
  -7   1   4  832.36   48.87
   7  -1  -4  808.64   49.98
   7  -1  -4  846.24   55.43
   7  -1  -4  882.71   53.54
  -7   1   4  885.42   46.03
  -7   1   3  877.83   49.22
   7  -1  -3  837.46   48.44
   7  -1  -3  803.78   54.35
  -7   1   3  958.79   40.97
  -7   1   3  976.98   45.12
   7  -1  -3  865.34   54.14
  -7   1   2  491.06   34.84
   7  -1  -2  479.63   33.41
   7  -1  -2  443.22   39.50
   7  -1  -2  429.90   37.48
  -7   1   1  177.51   20.54
   7  -1  -1  174.63   24.26
   7  -1  -1  195.38   19.19
   7  -1  -1  147.24   22.07
   7  -1   0    8.58    7.51
  -7   1   0    6.10    4.71
   7  -1   0   21.73   10.01
  -7   1  -1 1481.44   69.75
  -7   1  -1 1477.76   69.56
   7  -1   1 1555.86   77.35
   7  -1   1 1382.40   72.98
  -7   1  -2  689.19   46.82
  -7   1  -2  790.72   47.01
   7  -1   2  648.73   48.91
   7  -1   2  737.68   50.32
   7  -1   2  745.90   52.79
   7  -1   3   11.42    7.69
  -7   1  -3    6.94    5.98
   7  -1   3    6.01    8.89
   7  -1   3    6.28    6.94
  -7   1  -4  504.29   42.38
   7  -1   4  463.03   42.43
   7  -1   4  488.53   39.86
   7  -1   4  465.97   44.51
  -7   1  -5  565.51   47.38
   7  -1   5  668.52   52.64
   7  -1   5  586.60   52.01
  -7   1  -6  158.70   26.03
   7  -1   6  145.12   24.56
   7  -1   6  125.87   24.72
  -7   1  -7  138.89   25.19
   7  -1   7  149.78   25.77
   7  -1   7  105.21   24.53
  -7   1  -7   72.95   20.42
  -7   1  -8  192.46   31.45
   7  -1   8  184.24   33.39
  -7   1  -8  180.34   32.37
  -7   1  -9   49.11   17.65
  -7   0  14  161.62   31.17
  -7   0  14  193.81   34.29
   7   0 -14  221.85   36.44
  -7   0  13   44.80   16.09
  -7   0  13   53.28   17.63
   7   0 -13   47.99   15.61
  -7   0  12    1.34    7.65
  -7   0  12   16.95   11.58
   7   0 -12   11.00   10.52
  -7   0  11  158.42   27.92
  -7   0  11  196.60   30.74
   7   0 -11  174.57   29.86
  -7   0  10  980.55   66.73
   7   0 -10  888.78   66.80
   7   0 -10 1055.12   60.35
  -7   0  10  855.52   63.62
   7   0  -9  245.72   26.26
  -7   0   9  206.06   28.73
   7   0  -9  261.51   33.91
   7   0  -9  283.86   30.60
  -7   0   9  275.08   33.32
  -7   0   8  264.11   30.29
   7   0  -8  215.59   29.69
   7   0  -8  285.06   30.94
  -7   0   8  240.58   29.80
   7   0  -8  290.08   28.65
  -7   0   7 1397.27   71.86
   7   0  -7 1334.40   71.15
  -7   0   7 1376.77   71.68
   7   0  -7 1411.58   67.96
  -7   0   6  963.57   56.71
   7   0  -6  899.78   57.83
   7   0  -6 1056.32   61.86
  -7   0   6 1046.96   58.12
   7   0  -6  885.91   53.85
   7   0  -5   27.35   10.49
  -7   0   5   31.19   10.20
  -7   0   5   25.74    8.84
   7   0  -5   31.69   10.63
   7   0  -5   26.97    9.86
  -7   0   4  597.96   41.60
   7   0  -4  633.10   42.61
   7   0  -4  626.51   45.01
   7   0  -4  633.76   47.55
  -7   0   4  684.31   40.05
  -7   0   3 1305.02   63.97
   7   0  -3 1377.81   62.60
  -7   0   3 1404.92   53.21
  -7   0   3 1374.76   56.97
   7   0  -3 1247.00   67.35
   7   0  -2   97.21   18.27
  -7   0   2  154.02   19.89
   7   0  -2  136.95   16.93
  -7   0   2  119.21   14.95
   7   0  -2  105.14   18.29
   7   0  -1   40.53   13.15
  -7   0   1   65.47   13.41
   7   0  -1   73.65   11.19
  -7   0   1   61.18   11.72
   7   0   0  652.34   47.54
   7   0   0  636.37   47.46
  -7   0   0  619.35   41.45
   7   0   1  737.02   53.07
  -7   0  -1  769.17   46.10
   7   0   1  708.02   50.42
  -7   0  -1  740.94   48.29
   7   0   1  726.87   50.46
   7   0   2   10.60    8.00
   7   0   2    6.52    8.74
  -7   0  -2    4.33    4.55
   7   0   2   -0.67    4.97
  -7   0  -2    7.08    6.84
   7   0   3    0.07    7.44
   7   0   3   17.69   10.02
  -7   0  -3   -0.63    4.52
   7   0   3  -10.28    8.22
  -7   0  -3   -0.37    6.45
   7   0   4  141.63   25.60
   7   0   4  126.31   19.85
  -7   0  -4   78.84   16.37
   7   0   4  147.41   24.62
  -7   0  -4  149.67   24.74
   7   0   5  112.60   23.75
  -7   0  -5  133.99   21.96
   7   0   5  114.08   23.53
  -7   0  -5   91.49   21.05
   7   0   6   41.57   15.55
  -7   0  -6   66.15   16.44
   7   0   6   68.83   18.72
  -7   0  -6   71.21   19.30
   7   0   7   64.04   19.51
  -7   0  -7   84.70   19.70
   7   0   7   69.12   19.74
  -7   0  -7  122.39   25.90
   7   0   8   85.48   23.76
   7   0   8  171.88   31.81
  -7   0  -8  178.71   32.76
  -7  -1  14  189.78   33.86
  -7  -1  14  206.03   35.84
   7   1 -14  222.57   36.80
   7   1 -14  168.32   30.66
  -7  -1  13   32.58   13.76
  -7  -1  13   61.27   20.12
   7   1 -13   57.17   19.91
  -7  -1  12  175.35   30.57
  -7  -1  12  216.58   32.64
   7   1 -12  148.69   28.13
  -7  -1  11  374.28   42.03
   7   1 -11  466.99   48.19
  -7  -1  11  409.86   44.46
  -7  -1  10  201.68   29.81
  -7  -1  10  182.26   27.87
   7   1 -10  188.91   30.10
   7   1  -9   14.49    9.78
  -7  -1   9   -4.07    9.75
  -7  -1   9    8.45    7.77
   7   1  -9   19.26   11.83
   7   1  -9    2.67    3.92
  -7  -1   8  409.89   38.38
   7   1  -8  373.32   39.58
   7   1  -8  382.56   36.69
  -7  -1   8  405.95   38.57
   7   1  -8  423.68   34.33
  -7  -1   7 1107.09   63.47
   7   1  -7  924.22   61.39
   7   1  -7 1109.81   64.57
  -7  -1   7 1020.70   61.04
   7   1  -7 1037.22   57.50
  -7  -1   6 1736.07   81.43
   7   1  -6 1706.50   82.86
   7   1  -6 1707.15   84.11
  -7  -1   6 1750.37   79.78
   7   1  -6 1761.01   79.57
   7   1  -5   20.70    9.63
  -7  -1   5   29.64    9.33
  -7  -1   5   21.55    9.08
   7   1  -5    9.45    6.03
   7   1  -5   32.76   11.12
  -7  -1   4 1423.96   70.58
   7   1  -4 1514.96   69.98
   7   1  -4 1456.00   77.16
  -7  -1   4 1558.31   66.25
  -7  -1   3 1336.34   67.71
   7   1  -3 1464.14   64.41
   7   1  -3 1352.93   74.14
  -7  -1   3 1379.00   56.47
  -7  -1   3 1407.63   59.51
   7   1  -2  263.86   27.88
  -7  -1   2  294.61   29.59
   7   1  -2  323.69   25.60
   7   1  -2  260.85   30.79
  -7  -1   2  329.86   26.20
   7   1  -1  427.87   37.17
  -7  -1   1  467.69   37.58
   7   1  -1  462.37   41.06
  -7  -1   1  474.50   34.06
   7   1   0 1170.75   68.47
  -7  -1   0 1349.38   59.90
   7   1   0 1306.57   71.84
  -7  -1   0 1360.64   65.74
   7   1   1  155.56   23.26
   7   1   1  127.29   22.34
  -7  -1  -1  122.84   17.04
   7   1   1  117.56   19.67
  -7  -1  -1  141.51   20.65
   7   1   2   62.05   15.21
   7   1   2  109.08   21.61
  -7  -1  -2   85.23   14.94
   7   1   2   72.92   17.26
  -7  -1  -2   50.33   13.62
   7   1   3  151.86   25.81
   7   1   3  125.89   20.74
  -7  -1  -3  132.05   22.87
  -7  -1  -3  175.21   22.06
   7   1   3  142.85   23.34
   7   1   4  100.40   22.52
   7   1   4  162.93   26.18
  -7  -1  -4  157.96   25.96
   7   1   5   70.75   19.39
   7   1   5   96.28   21.80
  -7  -1  -5   52.82   16.54
   7   1   6   91.32   23.79
   7   1   6  107.79   23.26
  -7  -1  -6  102.79   23.50
   7   1   7   65.85   20.14
   7   1   7   84.32   22.22
  -7  -1  -7   70.63   20.79
   7   2 -15  593.79   59.08
  -7  -2  14  136.16   28.66
  -7  -2  14  167.54   31.77
   7   2 -14  134.33   29.40
   7   2 -14  103.52   23.62
  -7  -2  13  169.04   30.91
  -7  -2  13  153.16   30.00
   7   2 -13  139.36   28.77
   7   2 -13  159.50   27.83
  -7  -2  12  529.36   52.55
   7   2 -12  478.94   51.51
  -7  -2  12  523.63   52.57
  -7  -2  11  447.31   46.19
   7   2 -11  525.05   51.86
  -7  -2  11  505.52   50.04
   7   2 -10   45.59   13.10
  -7  -2  10   29.01   13.17
  -7  -2  10   37.64   13.03
   7   2 -10   50.71   17.92
   7   2  -9  136.45   22.09
  -7  -2   9  143.45   24.92
  -7  -2   9  154.65   25.56
   7   2  -9  182.48   28.51
  -7  -2   8  874.11   58.81
   7   2  -8  959.38   64.30
   7   2  -8  893.79   59.36
  -7  -2   8  926.82   60.92
  -7  -2   7  769.51   53.14
   7   2  -7  722.49   53.69
   7   2  -7  788.99   55.23
  -7  -2   7  750.02   51.93
  -7  -2   6   20.48    9.70
  -7  -2   6    4.94    7.72
   7   2  -6    4.56    5.65
   7   2  -6   17.25    9.17
  -7  -2   5  400.56   36.49
   7   2  -5  424.58   36.82
   7   2  -5  430.27   40.31
  -7  -2   5  432.99   34.89
   7   2  -4 1474.28   66.54
  -7  -2   4 1494.21   74.25
   7   2  -4 1569.62   72.37
   7   2  -4 1392.84   77.59
  -7  -2   4 1601.61   60.01
  -7  -2   4 1513.14   67.75
   7   2  -3  767.07   47.35
  -7  -2   3  683.39   48.02
   7   2  -3  805.43   45.90
   7   2  -3  655.90   51.10
  -7  -2   3  741.62   40.53
  -7  -2   3  777.83   43.37
   7   2  -2   53.96   12.79
  -7  -2   2   50.53   13.83
   7   2  -2   41.59    9.35
   7   2  -2   29.74   12.27
  -7  -2   2   26.24    8.34
   7   2  -1  503.21   41.25
   7   2  -1  462.07   42.73
  -7  -2   1  541.27   38.13
   7   2   0 1300.55   71.90
   7   2   0 1147.83   68.83
  -7  -2   0 1177.03   63.01
   7   2   1   39.88   12.76
   7   2   1   13.70    8.88
   7   2   1   34.94   12.14
  -7  -2  -1   39.31   12.33
   7   2   2  221.71   31.23
   7   2   2  176.28   25.76
   7   2   2  169.44   24.96
  -7  -2  -2  175.72   25.17
   7   2   3  786.82   61.84
   7   2   3  926.01   58.48
  -7  -2  -3  715.45   55.76
   7   2   3  771.41   56.26
   7   2   4  140.98   26.14
   7   2   4  144.99   24.19
  -7  -2  -4  104.68   22.06
   7   2   5  233.09   35.33
   7   2   5  259.85   34.49
  -7  -2  -5  264.69   36.62
   7   2   6  304.66   41.62
  -7  -2  -6  333.87   42.42
   7   2   6  339.42   41.43
   7   2   7    0.83    8.40
   7   2   7   53.29   17.63
  -7  -2  -7   39.86   15.12
   7   3 -15  251.55   37.58
  -7  -3  14   61.17   19.59
  -7  -3  14   56.09   17.45
   7   3 -14   43.74   18.34
   7   3 -14   53.08   16.06
  -7  -3  13  111.13   25.81
  -7  -3  13  112.26   26.02
   7   3 -13  164.18   30.77
   7   3 -13   86.63   20.36
  -7  -3  12  603.38   56.47
   7   3 -12  622.43   59.64
  -7  -3  12  622.32   58.48
  -7  -3  11  409.74   44.46
   7   3 -11  453.75   48.55
  -7  -3  11  478.91   49.09
   7   3 -10   -0.70    5.15
  -7  -3  10   17.17   11.03
  -7  -3  10   29.98   13.53
   7   3 -10   16.35   11.44
  -7  -3   9 1153.49   71.82
   7   3  -9 1122.12   74.21
   7   3  -9 1207.06   71.02
  -7  -3   9 1125.36   71.85
  -7  -3   8 1216.20   71.55
   7   3  -8 1110.25   71.23
   7   3  -8 1225.46   72.05
  -7  -3   8 1113.70   68.88
  -7  -3   7   50.42   13.78
  -7  -3   7   41.92   13.17
   7   3  -7   43.28   13.60
   7   3  -7   70.27   17.45
  -7  -3   6  544.76   44.54
   7   3  -6  521.25   43.99
   7   3  -6  594.45   49.17
  -7  -3   6  573.58   43.74
   7   3  -5  661.26   40.18
  -7  -3   5  600.76   46.25
   7   3  -5  591.87   44.73
   7   3  -5  568.54   48.43
  -7  -3   5  647.28   44.50
  -7  -3   4  132.68   18.98
   7   3  -4  108.96   16.95
  -7  -3   4  122.65   20.21
   7   3  -4  118.59   19.08
  -7  -3   4  130.54   16.31
   7   3  -4  118.06   22.17
  -7  -3   3   65.32   12.30
   7   3  -3   52.08   13.41
  -7  -3   3   31.78   11.23
   7   3  -3   63.01   12.80
   7   3  -3   57.44   15.73
   7   3  -2  172.72   23.34
  -7  -3   2  152.03   23.11
  -7  -3   2  158.66   20.15
   7   3  -2  156.06   24.92
   7   3  -1  609.37   47.53
   7   3  -1  571.96   48.72
  -7  -3   1  689.95   45.65
   7   3   0  245.67   30.38
  -7  -3   0  187.62   24.75
   7   3   0  175.06   26.40
   7   3   1    9.64    6.93
  -7  -3  -1    2.57    5.15
   7   3   2  210.95   30.98
   7   3   2  184.00   26.23
  -7  -3  -2  175.54   26.56
   7   3   2  210.99   28.76
   7   3   3   86.80   18.42
   7   3   3  130.51   25.93
   7   3   3  100.27   19.85
  -7  -3  -3   99.92   20.69
   7   3   4   19.75   11.97
   7   3   4   15.92    8.35
  -7  -3  -4   -3.42    8.25
   7   3   5  490.39   53.28
  -7  -3  -5  594.99   55.88
   7   3   5  555.44   51.31
   7   3   6  344.92   45.95
   7   3   6  335.26   41.41
  -7  -3  -6  272.33   39.62
   7   3   7   -8.20    8.84
  -7  -4  14   19.81   14.11
  -7  -4  14   37.07   15.54
   7   4 -14    1.34    8.09
  -7  -4  13  350.48   45.01
   7   4 -13  358.79   46.43
  -7  -4  13  406.39   48.81
  -7  -4  12  703.26   61.16
   7   4 -12  656.15   61.73
  -7  -4  12  630.10   59.39
  -7  -4  11  326.76   40.01
   7   4 -11  375.60   44.90
   7   4 -11  335.86   37.13
  -7  -4  11  375.26   43.86
  -7  -4  10  152.24   27.21
  -7  -4  10  154.82   26.98
   7   4 -10  121.98   24.57
   7   4 -10  164.28   26.18
  -7  -4   9  997.32   67.21
   7   4  -9  978.79   69.91
   7   4  -9 1038.45   68.13
  -7  -4   9 1050.79   69.86
  -7  -4   8  376.99   39.69
   7   4  -8  416.94   42.82
   7   4  -8  408.37   41.54
  -7  -4   8  425.22   41.56
  -7  -4   7   37.76   12.66
  -7  -4   7   36.73   13.00
   7   4  -7   37.82   12.43
   7   4  -7   48.43   14.99
  -7  -4   6  389.62   38.51
   7   4  -6  343.09   36.12
   7   4  -6  429.68   42.84
  -7  -4   6  398.98   37.13
   7   4  -5  895.97   49.16
  -7  -4   5  803.05   56.25
   7   4  -5  790.45   54.35
   7   4  -5  846.43   61.64
  -7  -4   5  960.16   56.72
  -7  -4   4  122.28   18.84
   7   4  -4   99.96   16.76
  -7  -4   4   88.82   18.09
   7   4  -4   97.55   18.17
  -7  -4   4  136.11   18.08
   7   4  -4  100.35   20.46
   7   4  -3  277.36   29.94
  -7  -4   3  298.27   33.70
   7   4  -3  293.76   28.74
   7   4  -3  309.55   36.55
  -7  -4   3  302.89   28.16
  -7  -4   3  293.77   28.09
   7   4  -2  470.45   40.80
  -7  -4   2  485.99   43.18
   7   4  -2  379.17   41.29
  -7  -4   2  526.23   39.68
  -7  -4   1   23.21    8.93
   7   4  -1    4.31    7.92
   7   4  -1   19.28    7.66
  -7  -4   0  131.26   21.40
   7   4   0  125.95   22.97
   7   4   0  151.89   25.79
  -7  -4  -1   91.29   18.84
   7   4   1  105.70   21.75
   7   4   1  130.26   24.13
   7   4   2   21.91   10.46
   7   4   2   15.89    8.35
   7   4   2   12.19   10.09
  -7  -4  -2   20.48   10.66
   7   4   3   -6.07    9.25
   7   4   3    5.01    6.27
  -7  -4  -3   10.97    8.67
   7   4   4   75.74   22.84
   7   4   4  115.96   22.62
  -7  -4  -4   97.29   22.36
   7   4   5   48.84   16.99
   7   4   5   42.55   14.93
  -7  -5  13  400.23   48.35
   7   5 -13  579.81   60.10
  -7  -5  13  548.87   57.78
  -7  -5  12  203.50   33.93
  -7  -5  12  166.75   29.93
   7   5 -12  226.68   36.62
  -7  -5  11   15.95   11.37
  -7  -5  11   21.18   13.51
   7   5 -11    6.93    8.81
   7   5 -11   32.89   14.93
  -7  -5  10  219.76   33.13
  -7  -5  10  205.54   31.02
   7   5 -10  237.34   35.50
   7   5 -10  200.34   30.29
  -7  -5   9  562.60   50.25
   7   5  -9  490.00   49.63
   7   5  -9  473.22   46.58
  -7  -5   9  572.36   51.73
  -7  -5   8  166.80   26.38
  -7  -5   8  153.24   25.81
   7   5  -8  160.63   27.15
   7   5  -8  200.01   30.03
  -7  -5   7    2.63    5.45
  -7  -5   7   -5.90    9.77
   7   5  -7    9.18    9.54
   7   5  -7   20.02   10.99
  -7  -5   6  377.49   39.33
   7   5  -6  370.49   38.51
   7   5  -6  372.87   41.43
  -7  -5   6  453.41   41.06
  -7  -5   5  546.79   47.01
   7   5  -5  476.57   42.29
   7   5  -5  505.18   48.92
  -7  -5   5  547.51   38.63
  -7  -5   5  532.05   43.55
  -7  -5   4    8.04    7.51
   7   5  -4    7.07    7.67
  -7  -5   4    0.42    3.86
  -7  -5   4   10.36    8.29
   7   5  -4   -4.52    5.73
   7   5  -4   -4.62    8.14
   7   5  -3  591.64   45.32
  -7  -5   3  493.56   45.16
   7   5  -3  542.43   50.83
  -7  -5   3  471.61   38.96
  -7  -5   3  556.29   41.49
   7   5  -2  527.73   45.12
  -7  -5   2  469.25   44.28
   7   5  -2  440.91   46.20
  -7  -5   2  516.59   41.92
  -7  -5   1    3.69    7.24
   7   5  -1   15.84    9.91
   7   5  -1   14.61   12.09
   7   5   0  286.53   35.94
   7   5   0  256.02   34.93
  -7  -5   0  274.74   32.91
  -7  -5  -1  170.31   28.21
   7   5   1  226.77   33.14
   7   5   1  189.51   29.65
  -7  -5  -2   25.78   13.57
   7   5   2   14.31   10.98
   7   5   2   13.07    7.99
  -7  -5  -3   88.19   21.45
   7   5   3  166.17   30.77
  -7  -5  -4  170.63   30.89
   7   5   4  271.54   40.49
  -7  -6  13  121.24   26.85
  -7  -6  12   -1.25    9.10
  -7  -6  12   15.73   11.38
   7   6 -12   15.03   10.60
  -7  -6  11  295.68   39.10
   7   6 -11  308.58   42.22
   7   6 -11  282.25   37.55
  -7  -6  11  309.01   41.54
  -7  -6  10  471.17   47.90
   7   6 -10  545.15   55.20
   7   6 -10  424.54   46.28
  -7  -6  10  494.01   51.34
  -7  -6   9   58.66   17.54
  -7  -6   9   88.63   20.60
   7   6  -9   56.59   18.70
   7   6  -9  101.55   22.92
  -7  -6   8   14.64    9.23
  -7  -6   8   -3.82    7.09
   7   6  -8    9.07    8.82
   7   6  -8   29.53   13.01
  -7  -6   7   24.04   10.67
   7   6  -7    1.05    8.14
   7   6  -7    5.95    8.15
   7   6  -6  248.24   35.24
  -7  -6   6  227.15   31.29
   7   6  -6  218.18   30.44
  -7  -6   6  218.19   29.49
  -7  -6   5   37.35   11.68
  -7  -6   5   26.51    9.27
  -7  -6   5   37.76   14.51
   7   6  -5   31.99   11.90
   7   6  -5   35.21   14.53
  -7  -6   4   75.00   16.79
   7   6  -4   66.04   15.29
  -7  -6   4   65.59   15.13
  -7  -6   4   30.73   12.29
   7   6  -4   70.86   16.61
   7   6  -4   35.10   14.68
   7   6  -3  212.13   28.33
  -7  -6   3  182.87   25.77
  -7  -6   3  158.66   25.98
   7   6  -3  142.79   27.10
  -7  -6   2   32.86   11.95
   7   6  -2   13.78    9.89
  -7  -6   2   23.97   11.97
   7   6  -2   15.23   12.13
  -7  -6   1    5.09    7.32
   7   6  -1   10.78    5.73
   7   6  -1   23.22   12.75
   7   6   0  326.64   40.04
   7   6   0  330.86   41.35
  -7  -6   0  441.01   43.68
   7   6   1  286.91   39.03
  -7  -6  -1  327.03   39.10
   7   6   1  246.59   35.82
  -7  -6  -2   16.46   10.67
   7   6   2    5.95    8.80
   7   6   2   15.52   11.81
   7   6   3  388.49   48.73
  -7  -6  -3  353.68   44.37
  -7  -7  12   14.02   11.18
  -7  -7  12   25.71   12.63
   7   7 -12   45.90   18.38
  -7  -7  11  314.98   41.19
   7   7 -11  318.07   44.31
   7   7 -11  415.58   47.09
  -7  -7  11  342.54   44.93
  -7  -7  10  239.96   36.50
  -7  -7  10  213.94   32.69
   7   7 -10  310.49   42.46
   7   7 -10  283.57   38.79
  -7  -7   9    9.22   10.98
  -7  -7   9   -6.12    8.30
   7   7  -9   26.17   13.17
   7   7  -9   -7.85   10.53
  -7  -7   8  231.45   34.03
  -7  -7   8  252.44   34.63
   7   7  -8  216.19   33.47
   7   7  -8  331.76   42.46
  -7  -7   7  146.62   26.26
  -7  -7   7  133.60   25.41
   7   7  -7  115.36   24.19
   7   7  -7  124.95   26.44
  -7  -7   6   70.29   18.07
  -7  -7   6   67.13   17.61
   7   7  -6   79.30   19.33
   7   7  -6  100.63   23.77
  -7  -7   5  123.51   23.47
  -7  -7   5  126.73   21.51
  -7  -7   5  133.39   24.56
   7   7  -5  129.43   23.52
   7   7  -5  152.60   28.78
  -7  -7   4   45.14   13.15
  -7  -7   4   17.45    7.90
  -7  -7   4   20.45    9.14
   7   7  -4   24.74   14.03
   7   7  -3    2.44    8.33
  -7  -7   3    1.02    6.17
  -7  -7   3    1.29    6.96
   7   7  -2   45.18   14.73
  -7  -7   2   44.55   14.42
  -7  -7   2   53.48   15.92
   7   7  -2   23.86   12.63
  -7  -7   1  138.75   25.01
   7   7  -1  172.18   29.09
  -7  -7   1  105.48   23.33
   7   7  -1  150.65   29.36
  -7  -7   0  115.93   24.59
   7   7   0  175.99   30.39
   7   7   0  166.52   31.06
  -7  -7  -1    9.12    8.28
   7   7   1    3.95    9.27
   7   7   1   -5.42    8.45
  -7  -7  -2   55.37   17.81
   7   7   2   56.16   18.30
  -7  -8  11  337.75   43.18
   7   8 -11  328.31   43.69
  -7  -8  10   89.59   23.19
  -7  -8  10   64.85   19.13
   7   8 -10   71.27   21.04
   7   8 -10   99.02   24.65
  -7  -8   9  -14.68   10.75
  -7  -8   9  -14.24   10.17
   7   8  -9    2.56    9.28
  -7  -8   8  117.20   25.69
  -7  -8   8  104.26   22.13
   7   8  -8  102.24   23.86
   7   8  -8  111.18   25.78
  -7  -8   7  280.40   37.46
   7   8  -7  258.03   36.81
   7   8  -7  312.18   43.03
  -7  -8   7  310.52   40.04
  -7  -8   6   47.96   15.00
  -7  -8   6   48.72   17.23
   7   8  -6   31.04   14.12
   7   8  -6   39.29   15.59
  -7  -8   5  441.79   46.63
   7   8  -5  371.32   47.32
  -7  -8   5  434.21   45.28
  -7  -8   5  357.44   39.06
  -7  -8   4  191.83   29.05
  -7  -8   4  186.11   30.08
  -7  -8   4  259.86   33.98
   7   8  -4  212.96   36.34
  -7  -8   3   18.66   10.22
  -7  -8   3   27.13   12.52
   7   8  -3   40.05   15.92
   7   8  -2  128.91   25.65
  -7  -8   2  130.74   25.41
  -7  -8   2   96.66   22.55
   7   8  -2  127.64   28.42
   7   8  -1  169.43   30.90
  -7  -8   1  166.66   29.22
  -7  -8   1  125.08   26.18
   7   8  -1  165.32   32.21
   7   8   0   -8.96    9.61
  -7  -8   0   17.00   10.58
   7   8   0   -8.78    8.97
   7   8   1  296.99   42.96
   7   8   1  222.30   37.05
  -7  -9  10   21.85   11.82
  -7  -9   9   65.96   20.02
  -7  -9   9  100.05   23.19
   7   9  -9   92.64   25.09
  -7  -9   8   94.18   23.67
  -7  -9   8  106.63   23.90
   7   9  -8   74.59   21.85
   7   9  -8  135.35   29.49
  -7  -9   7  146.64   28.27
  -7  -9   7  168.91   30.08
   7   9  -7  148.25   28.84
   7   9  -7   84.20   23.51
  -7  -9   6  139.85   26.89
  -7  -9   6  157.96   29.21
   7   9  -6  141.95   30.09
  -7  -9   5  217.45   33.26
  -7  -9   5  167.65   27.99
  -7  -9   5  122.71   25.60
   7   9  -5  192.77   35.45
  -7  -9   4   73.46   18.87
  -7  -9   4  113.76   24.58
   7   9  -4   90.01   24.67
  -7  -9   3    9.16    9.17
  -7  -9   3   -1.76    7.19
  -7  -9   2  484.05   52.25
   7   9  -2  428.05   53.33
  -7  -9   2  449.62   49.84
   7   9  -1  231.49   37.38
  -7 -10   5   56.03   17.87
  -7 -10   5   11.75    9.02
  -8  10   5  127.78   26.57
  -8  10   4   11.57    9.33
  -8  10   2  430.25   52.12
   8 -10  -2  357.97   45.96
  -8  10   1  165.21   31.24
   8 -10  -1  158.19   30.18
  -8  10   0   -8.92   14.33
   8 -10   0   10.04    9.86
   8 -10   0    8.84    6.35
   8 -10   1  703.24   62.56
  -8  10  -1  652.07   63.41
   8 -10   1  796.05   67.05
   8 -10   2  486.65   53.56
  -8  10  -2  548.82   57.64
   8 -10   2  516.02   53.10
  -8  10  -3  -18.41   11.92
  -8   9   7  192.35   33.57
  -8   9   7  218.82   36.43
  -8   9   6  117.52   24.90
  -8   9   6  139.46   28.86
   8  -9  -6  126.95   27.33
  -8   9   5   -6.06    7.26
  -8   9   5   12.80   11.25
   8  -9  -5    2.38    8.41
  -8   9   4   24.14   11.25
  -8   9   4   12.41    9.87
  -8   9   3   74.89   20.95
   8  -9  -3   76.78   20.49
  -8   9   2   87.54   22.43
   8  -9  -2   99.09   23.75
  -8   9   1  -14.88   11.15
   8  -9  -1    0.04    7.54
   8  -9  -1    7.17    8.67
  -8   9   0  218.04   34.99
   8  -9   0  194.89   31.50
   8  -9   0  215.70   33.55
   8  -9   1  742.47   63.23
  -8   9  -1  763.10   65.68
   8  -9   1  845.44   67.00
  -8   9  -2  153.00   28.91
  -8   9  -2  125.41   26.07
   8  -9   2  136.85   27.70
   8  -9   2  132.67   26.22
  -8   9  -3   53.97   17.57
  -8   9  -3   66.97   18.96
   8  -9   3   74.91   21.75
   8  -9   3   61.00   18.92
  -8   8   9   79.25   21.82
  -8   8   8  150.18   29.02
  -8   8   8  124.16   26.13
   8  -8  -8  190.31   35.70
   8  -8  -8  157.54   30.27
  -8   8   7  250.54   37.41
  -8   8   7  223.17   34.84
   8  -8  -7  256.03   40.87
   8  -8  -7  266.50   38.43
  -8   8   6  195.49   32.44
  -8   8   6  204.30   32.21
   8  -8  -6  239.98   35.60
  -8   8   5   13.87   10.95
  -8   8   5    8.03    6.30
   8  -8  -5   -5.51    7.22
  -8   8   4  339.07   43.07
   8  -8  -4  424.59   47.17
  -8   8   4  415.91   41.84
   8  -8  -3  609.14   49.26
  -8   8   3  496.47   52.02
   8  -8  -3  499.61   51.31
  -8   8   2   18.52   12.92
   8  -8  -2    4.92    5.56
   8  -8  -2    5.87    8.73
   8  -8  -1   78.58   20.14
  -8   8   1  129.55   25.89
   8  -8  -1  125.85   23.30
   8  -8   0  422.37   44.40
  -8   8   0  445.28   47.63
   8  -8   0  418.81   45.45
  -8   8  -1   90.23   21.03
   8  -8   1   97.14   22.56
   8  -8   1   80.68   20.19
  -8   8  -2   -4.35    7.71
  -8   8  -2  -10.95    9.25
   8  -8   2  -12.44    9.82
   8  -8   2  -19.66   10.53
  -8   8  -3   90.41   21.67
  -8   8  -3  115.10   24.29
   8  -8   3   51.74   17.74
   8  -8   3   86.83   20.20
  -8   8  -4  238.11   36.23
   8  -8   4  269.41   39.41
  -8   7  10  118.14   24.64
   8  -7 -10   50.27   17.97
  -8   7   9    7.19    8.85
   8  -7  -9   -4.08    8.07
   8  -7  -9   -6.71   10.17
  -8   7   8  141.98   27.34
  -8   7   8  132.52   26.40
   8  -7  -8  160.71   31.42
   8  -7  -8  166.89   29.77
   8  -7  -7  415.76   48.37
  -8   7   7  366.83   43.89
   8  -7  -7  387.12   44.74
  -8   7   7  430.85   45.82
   8  -7  -6  161.88   29.08
  -8   7   6  160.89   28.67
  -8   7   6  214.34   30.89
   8  -7  -6  146.43   27.79
   8  -7  -5  209.11   32.91
  -8   7   5  271.14   36.98
   8  -7  -5  249.59   35.45
  -8   7   5  250.39   32.17
  -8   7   4 1040.87   74.52
   8  -7  -4 1247.20   69.64
   8  -7  -4 1077.05   74.86
  -8   7   4 1217.31   70.54
  -8   7   3  687.00   58.06
   8  -7  -3  512.31   45.22
   8  -7  -3  665.55   56.83
  -8   7   2   13.35    9.96
   8  -7  -2   31.32   11.79
   8  -7  -2   34.16   14.82
   8  -7  -1  396.35   41.12
  -8   7   1  518.74   49.78
   8  -7  -1  450.46   46.08
   8  -7   0 1048.56   70.29
  -8   7   0  989.17   70.00
   8  -7   0 1080.20   72.45
  -8   7  -1   28.80   13.34
   8  -7   1   32.28   12.97
   8  -7   1   20.76   11.01
  -8   7  -2  117.35   23.04
  -8   7  -2  125.69   25.26
   8  -7   2  125.08   24.77
   8  -7   2  132.69   24.85
  -8   7  -3  352.42   42.02
   8  -7   3  327.18   41.35
  -8   7  -3  399.62   41.88
   8  -7   3  336.38   39.73
  -8   7  -4  271.43   37.36
   8  -7   4  258.24   37.74
   8  -7   4  249.69   33.57
  -8   7  -5   55.03   18.57
   8  -7   5   64.22   19.47
  -8   6  10    7.34    9.78
  -8   6  10  -15.64   11.23
   8  -6 -10   12.43   11.48
   8  -6 -10   -1.63    5.88
   8  -6  -9  321.56   43.63
  -8   6   9  340.35   41.08
   8  -6  -9  310.27   39.00
  -8   6   9  317.27   41.06
  -8   6   8  239.25   34.39
   8  -6  -8  281.53   39.67
  -8   6   8  259.13   35.52
   8  -6  -8  150.85   27.51
  -8   6   7  111.61   22.74
   8  -6  -7  124.12   26.05
   8  -6  -7  121.66   24.00
  -8   6   7  116.77   24.04
  -8   6   6   60.29   15.15
   8  -6  -6   32.05   14.77
  -8   6   6   37.09   13.59
   8  -6  -6   19.98   10.55
   8  -6  -5  455.24   46.32
  -8   6   5  440.39   46.07
   8  -6  -5  423.87   44.36
  -8   6   5  458.84   41.54
   8  -6  -4  815.29   60.95
  -8   6   4  762.63   60.88
   8  -6  -4  746.85   52.62
   8  -6  -4  850.68   63.07
  -8   6   4  853.62   54.88
   8  -6  -3  164.61   26.52
   8  -6  -3  162.71   24.22
  -8   6   3  214.16   31.07
   8  -6  -3  147.43   25.73
   8  -6  -2   87.71   18.53
  -8   6   2  112.11   22.82
   8  -6  -2   90.88   20.17
  -8   6   1 1438.66   82.77
   8  -6  -1 1365.92   78.16
   8  -6  -1 1409.07   82.63
  -8   6   0 1097.23   70.82
   8  -6   0 1023.97   68.83
   8  -6   0 1234.04   75.38
  -8   6  -1    6.75    7.25
   8  -6   1    3.65    7.00
   8  -6   1   18.25   12.28
  -8   6  -2  414.79   43.78
   8  -6   2  467.85   47.40
  -8   6  -2  521.65   46.28
   8  -6   2  495.14   46.52
  -8   6  -3  872.06   65.90
   8  -6   3  824.08   65.53
  -8   6  -3  941.62   62.79
   8  -6   3  836.09   62.74
  -8   6  -4  133.59   25.76
   8  -6   4   71.94   19.53
   8  -6   4  115.78   22.82
  -8   6  -5  198.01   33.02
   8  -6   5  199.40   33.40
  -8   6  -6  604.38   58.64
   8  -6   6  634.47   60.65
   8  -6   6  509.66   53.96
  -8   5  12  499.78   53.78
  -8   5  11  160.94   31.37
  -8   5  11  116.41   25.27
  -8   5  10   74.00   20.91
  -8   5  10   80.11   19.72
   8  -5 -10   67.05   21.28
  -8   5  10  100.35   21.82
   8  -5 -10   96.52   21.20
   8  -5  -9  621.73   60.33
  -8   5   9  721.76   58.65
   8  -5  -9  641.62   54.42
  -8   5   9  691.20   59.82
  -8   5   8  217.17   31.46
   8  -5  -8  161.64   29.61
  -8   5   8  165.44   27.67
   8  -5  -8  135.96   24.73
  -8   5   7   10.65    6.62
   8  -5  -7   15.18   10.31
  -8   5   7    2.98    6.68
   8  -5  -7    9.93    7.28
   8  -5  -6  553.28   50.96
  -8   5   6  502.63   47.89
   8  -5  -6  510.56   47.19
  -8   5   6  556.20   46.20
  -8   5   5  698.93   49.34
   8  -5  -5  660.49   54.28
  -8   5   5  566.42   50.82
   8  -5  -5  649.16   53.12
   8  -5  -4  271.70   33.35
  -8   5   4  315.74   36.82
   8  -5  -4  294.30   34.90
  -8   5   4  356.08   32.39
   8  -5  -3   19.58    9.52
   8  -5  -3   29.46   10.38
  -8   5   3   -1.17    8.32
   8  -5  -3   25.14   10.98
   8  -5  -2  385.78   37.25
  -8   5   2  333.17   37.31
   8  -5  -2  363.68   36.88
   8  -5  -2  288.73   35.20
  -8   5   1 1187.27   72.02
   8  -5  -1 1129.70   69.30
   8  -5  -1 1163.09   72.16
   8  -5   0  146.83   24.60
  -8   5   0  129.39   22.52
   8  -5   0  115.39   22.48
   8  -5   1   23.44   11.59
  -8   5  -1   29.70   11.87
   8  -5   1   23.39   10.89
  -8   5  -2  708.04   55.84
  -8   5  -2  628.61   49.51
   8  -5   2  663.62   55.53
   8  -5   2  666.17   54.29
  -8   5  -3  712.95   58.26
   8  -5   3  717.58   59.64
  -8   5  -3  851.67   56.97
   8  -5   3  752.10   57.46
  -8   5  -4   31.24   13.69
   8  -5   4   33.59   13.89
   8  -5   4   25.03   11.13
  -8   5  -5  429.75   47.40
   8  -5   5  544.08   53.84
   8  -5   5  554.15   53.25
  -8   5  -6  254.05   36.67
   8  -5   6  175.21   31.71
   8  -5   6  172.27   30.97
   8  -5   7    2.31    6.62
   8  -5   7    3.58    7.55
  -8   4  13  337.32   45.70
  -8   4  12  463.69   51.04
   8  -4 -12  427.03   52.35
  -8   4  12  384.24   48.39
  -8   4  11   -9.69    9.28
  -8   4  11   19.97   12.04
   8  -4 -11   29.68   13.40
  -8   4  11   11.19   11.16
  -8   4  10  585.60   53.64
   8  -4 -10  550.12   57.23
  -8   4  10  573.35   51.82
   8  -4 -10  649.56   52.70
  -8   4  10  659.15   59.16
  -8   4   9  730.94   57.43
   8  -4  -9  765.30   65.20
  -8   4   9  778.65   60.16
   8  -4  -9  728.63   56.17
  -8   4   9  789.85   62.54
  -8   4   8  505.69   44.65
   8  -4  -8  406.99   45.84
  -8   4   8  383.10   41.56
   8  -4  -8  450.55   43.30
  -8   4   8  485.02   46.23
  -8   4   7   58.13   15.00
  -8   4   7   87.18   17.62
   8  -4  -7   81.60   20.28
  -8   4   7   56.54   16.40
   8  -4  -7   71.67   17.34
  -8   4   6 1146.23   62.75
   8  -4  -6  952.68   67.41
  -8   4   6 1016.87   68.21
   8  -4  -6 1018.13   66.28
  -8   4   6 1096.86   64.37
  -8   4   5  992.42   55.64
   8  -4  -5  902.51   62.54
  -8   4   5  841.12   61.70
   8  -4  -5  989.62   64.42
  -8   4   5  959.97   56.55
  -8   4   4    6.11    5.76
   8  -4  -4    2.79    5.76
  -8   4   4    5.72    7.78
   8  -4  -4    5.67    8.64
   8  -4  -3  817.93   55.22
  -8   4   3  846.84   59.32
   8  -4  -3  870.27   60.27
   8  -4  -2  877.21   55.06
  -8   4   2  895.79   60.25
   8  -4  -2  797.43   55.68
   8  -4  -2  794.20   57.72
   8  -4  -1  362.82   33.31
  -8   4   1  361.10   37.05
   8  -4  -1  330.18   35.45
   8  -4  -1  321.88   35.82
   8  -4   0   18.61    9.02
  -8   4   0   23.95    9.79
   8  -4   0   42.68   13.69
   8  -4   1   89.82   19.51
  -8   4  -1  109.09   19.68
   8  -4   1   96.39   19.91
  -8   4  -2  335.79   37.50
  -8   4  -2  396.18   37.33
   8  -4   2  417.20   43.04
   8  -4   2  367.90   39.21
  -8   4  -3   69.08   17.48
   8  -4   3   78.91   19.50
   8  -4   3  113.17   21.82
  -8   4  -4   20.84   10.41
   8  -4   4   30.02   10.60
   8  -4   4   33.25   15.30
  -8   4  -5  292.77   37.73
   8  -4   5  241.25   35.08
   8  -4   5  242.39   35.33
  -8   4  -6   30.89   13.28
   8  -4   6   45.01   16.91
  -8   4  -7    1.33    5.92
   8  -4   7   51.74   17.97
   8  -4   7   29.81   15.63
  -8   3  13  390.91   49.05
   8  -3 -13  447.57   54.97
  -8   3  13  479.69   55.16
  -8   3  12    2.67    7.01
   8  -3 -12   -4.56    8.26
  -8   3  11  108.26   24.65
  -8   3  11  117.55   24.68
   8  -3 -11  162.22   30.79
  -8   3  11  131.19   24.32
  -8   3  10  734.07   59.58
   8  -3 -10  697.52   62.88
  -8   3  10  779.16   59.00
   8  -3 -10  621.18   50.33
  -8   3  10  665.55   58.81
  -8   3   9  608.54   51.35
  -8   3   9  549.75   49.51
   8  -3  -9  569.82   54.79
   8  -3  -9  567.41   47.57
  -8   3   9  693.15   57.02
  -8   3   8   75.93   18.39
  -8   3   8   57.50   15.17
   8  -3  -8   71.06   19.05
  -8   3   8   75.83   18.19
   8  -3  -8  131.13   22.72
  -8   3   7  504.62   42.20
  -8   3   7  425.46   42.71
   8  -3  -7  408.92   43.11
   8  -3  -7  471.19   43.29
  -8   3   7  493.66   43.18
  -8   3   6 1741.11   80.96
  -8   3   6 1667.29   88.39
   8  -3  -6 1517.40   85.30
   8  -3  -6 1632.48   84.72
  -8   3   6 1819.38   83.16
  -8   3   5  802.02   49.71
  -8   3   5  772.60   56.59
   8  -3  -5  640.49   50.51
   8  -3  -5  645.11   50.75
  -8   3   5  732.05   47.12
  -8   3   4   74.10   13.96
   8  -3  -4   89.04   20.27
  -8   3   4   89.01   15.42
   8  -3  -4   76.42   16.63
  -8   3   4   60.41   16.03
   8  -3  -4   90.91   18.93
  -8   3   3 1019.12   54.39
  -8   3   3 1086.01   67.10
   8  -3  -3 1105.62   61.94
   8  -3  -3 1004.85   66.45
   8  -3  -3 1013.25   64.52
  -8   3   2 1199.01   58.01
  -8   3   2 1156.21   69.03
   8  -3  -2 1159.56   61.64
   8  -3  -2 1075.88   69.28
   8  -3  -2 1129.74   68.63
   8  -3  -1    0.47    5.07
  -8   3   1   -2.43    5.07
   8  -3  -1   -4.70    6.52
   8  -3  -1    6.15    8.17
  -8   3   0  381.65   36.64
   8  -3   0  373.81   38.12
  -8   3  -1  706.27   50.08
   8  -3   1  697.76   53.73
   8  -3   1  627.77   51.15
  -8   3  -2  109.84   20.82
   8  -3   2  126.99   22.50
  -8   3  -2  147.98   21.77
   8  -3   2  142.39   23.82
  -8   3  -3   51.07   14.94
   8  -3   3   34.90   12.29
   8  -3   3   22.50   11.13
  -8   3  -4  111.99   22.23
   8  -3   4   78.62   19.26
   8  -3   4   88.00   20.79
  -8   3  -5   20.91   11.10
   8  -3   5   40.56   14.78
   8  -3   5   20.76   12.02
  -8   3  -6    6.08    8.17
   8  -3   6  -10.79    9.40
   8  -3   6    7.91    7.39
  -8   3  -7    4.50    7.48
   8  -3   7  -12.31   10.37
   8  -3   7    3.08    7.55
   8  -3   8  111.06   24.63
  -8   2  13   62.58   20.21
  -8   2  13  114.25   27.00
   8  -2 -13   83.17   24.18
  -8   2  12   50.60   17.31
  -8   2  12   63.37   20.21
   8  -2 -12   76.87   21.69
  -8   2  11  651.85   58.16
  -8   2  11  710.31   56.09
   8  -2 -11  777.70   67.11
  -8   2  11  706.54   61.54
  -8   2  10  497.41   48.07
  -8   2  10  366.30   39.84
   8  -2 -10  345.64   43.25
  -8   2  10  479.23   48.48
   8  -2 -10  407.79   38.66
  -8   2   9   35.49   13.06
  -8   2   9   14.75    9.48
   8  -2  -9   35.50   14.51
  -8   2   9   56.96   16.01
   8  -2  -9   53.02   14.26
  -8   2   8  157.19   25.29
  -8   2   8  174.88   25.85
   8  -2  -8  145.13   26.21
  -8   2   8  130.13   23.47
   8  -2  -8  222.95   29.78
   8  -2  -8  171.44   25.27
  -8   2   7  708.76   50.86
  -8   2   7  710.34   54.78
   8  -2  -7  639.24   53.38
   8  -2  -7  711.20   54.19
  -8   2   7  777.95   53.71
   8  -2  -7  646.38   49.52
  -8   2   6  794.07   52.08
  -8   2   6  751.68   55.95
   8  -2  -6  656.89   52.38
   8  -2  -6  836.27   58.74
  -8   2   6  804.52   51.84
   8  -2  -6  747.47   53.55
  -8   2   5  222.83   25.59
   8  -2  -5  192.69   26.41
  -8   2   5  160.94   24.98
   8  -2  -5  242.35   30.74
   8  -2  -5  185.92   26.27
  -8   2   5  208.51   23.89
  -8   2   4  374.34   32.85
  -8   2   4  288.72   33.77
   8  -2  -4  381.84   35.54
   8  -2  -4  417.70   40.84
   8  -2  -4  335.66   35.35
  -8   2   4  366.88   29.37
  -8   2   3  572.10   40.19
  -8   2   3  567.18   46.68
   8  -2  -3  593.69   42.46
   8  -2  -3  577.79   48.44
   8  -2  -3  529.29   45.32
  -8   2   2  492.72   37.03
  -8   2   2  491.72   42.71
   8  -2  -2  499.50   37.33
   8  -2  -2  519.19   45.75
   8  -2  -2  508.09   44.17
   8  -2  -1   17.30    9.60
  -8   2   1    1.30    4.53
   8  -2  -1   17.57    7.06
  -8   2   1    5.01    5.14
   8  -2  -1    2.56    7.87
  -8   2   0  612.21   41.85
  -8   2   0  636.85   47.10
   8  -2   0  590.12   48.09
   8  -2   0  502.30   45.48
   8  -2   0  567.56   48.19
  -8   2  -1  565.82   41.09
  -8   2  -1  669.24   48.50
  -8   2  -1  678.25   47.60
   8  -2   1  599.30   49.98
   8  -2   1  550.83   47.35
   8  -2   1  534.19   47.08
   8  -2   2   -4.82    7.65
  -8   2  -2   -4.96    6.36
  -8   2  -2   -3.59    7.14
   8  -2   2   -2.74    9.16
  -8   2  -3  353.48   37.37
   8  -2   3  358.96   39.50
   8  -2   3  421.72   43.49
  -8   2  -4  313.22   36.32
   8  -2   4  334.54   38.79
   8  -2   4  348.20   40.76
  -8   2  -5    6.83   10.28
   8  -2   5    0.40    8.02
   8  -2   5   -3.57    8.75
  -8   2  -6  104.66   23.13
   8  -2   6   68.82   19.15
   8  -2   6   76.36   20.84
  -8   2  -7  252.81   36.51
   8  -2   7  241.86   35.26
   8  -2   7  259.60   38.93
  -8   1  13    6.33    9.96
  -8   1  13   22.79   12.82
   8  -1 -13   -1.88    9.08
  -8   1  12  173.44   31.31
  -8   1  12  203.93   33.54
   8  -1 -12  227.01   36.55
  -8   1  12  231.84   31.02
  -8   1  11  717.59   60.65
  -8   1  11  726.36   56.47
   8  -1 -11  668.07   61.74
  -8   1  11  749.35   62.51
  -8   1  10  478.83   47.03
  -8   1  10  445.81   43.58
   8  -1 -10  461.33   49.44
   8  -1 -10  449.47   41.77
  -8   1  10  483.11   47.76
  -8   1   9    7.21    6.22
   8  -1  -9   18.50    9.59
  -8   1   9   23.62   11.49
  -8   1   9   20.76   11.44
   8  -1  -9    4.16    7.31
   8  -1  -9   23.21    8.84
  -8   1   8  489.97   44.04
   8  -1  -8  472.18   46.19
   8  -1  -8  584.29   48.14
  -8   1   8  529.00   45.87
   8  -1  -8  530.70   43.24
  -8   1   7  735.07   52.65
   8  -1  -7  712.81   55.55
   8  -1  -7  815.52   58.38
  -8   1   7  845.36   55.80
   8  -1  -7  852.68   55.80
  -8   1   6   78.77   15.73
   8  -1  -6   68.56   16.97
  -8   1   6   72.19   15.73
   8  -1  -6   44.38   13.14
   8  -1  -6   25.45   10.11
  -8   1   5  145.55   19.57
   8  -1  -5  123.93   22.06
  -8   1   5  107.95   18.58
   8  -1  -5  132.27   21.40
   8  -1  -5  168.44   24.39
  -8   1   4  198.45   24.35
   8  -1  -4  210.46   28.79
   8  -1  -4  157.36   22.01
   8  -1  -4  186.46   25.81
  -8   1   3  281.06   28.49
   8  -1  -3  254.26   26.59
   8  -1  -3  283.91   33.61
   8  -1  -3  313.73   33.84
   8  -1  -2   95.40   19.73
  -8   1   2   92.06   16.48
   8  -1  -2   98.34   15.46
  -8   1   2   93.82   14.19
   8  -1  -2  116.01   20.88
   8  -1  -1   -1.36    6.26
  -8   1   1    0.36    4.32
  -8   1   1   -1.24    4.70
   8  -1  -1   -2.07    5.79
  -8   1   0  294.48   29.48
  -8   1   0  269.28   30.07
   8  -1   0  238.42   30.67
   8  -1   1  122.99   22.08
  -8   1  -1  160.03   22.03
  -8   1  -1  111.56   18.66
  -8   1  -1  142.77   21.17
   8  -1   2   98.10   20.00
  -8   1  -2  106.40   19.27
  -8   1  -2  103.60   17.74
   8  -1   2  101.16   20.51
  -8   1  -3  317.44   34.02
   8  -1   3  306.32   34.01
   8  -1   3  249.61   33.92
  -8   1  -4  219.00   29.30
  -8   1  -4  287.11   35.87
   8  -1   4  260.99   35.23
  -8   1  -5   77.98   18.46
   8  -1   5  120.07   25.56
  -8   1  -5   68.19   18.44
  -8   1  -6  252.46   34.57
   8  -1   6  287.86   40.24
  -8   1  -6  297.44   40.29
  -8   1  -7  207.48   32.77
   8  -1   7  170.95   32.33
  -8   1  -7  209.08   34.97
  -8   0  13   18.21   13.00
  -8   0  13   46.72   17.32
   8   0 -13   29.44   16.86
  -8   0  12  217.44   34.11
  -8   0  12  305.07   40.59
  -8   0  12  275.88   34.46
   8   0 -12  226.49   36.67
  -8   0  11  866.18   66.18
   8   0 -11  680.59   62.14
  -8   0  11  799.93   64.39
  -8   0  10  350.06   39.86
   8   0 -10  324.93   41.00
   8   0 -10  289.40   33.69
  -8   0  10  318.38   38.50
  -8   0   9  200.43   29.29
   8   0  -9  163.77   25.47
  -8   0   9  222.54   30.71
   8   0  -9  141.19   26.22
   8   0  -9  225.05   27.21
  -8   0   8 1058.75   67.19
   8   0  -8 1082.70   71.16
   8   0  -8 1139.58   69.35
  -8   0   8 1072.18   67.38
   8   0  -8 1075.80   63.29
  -8   0   7  728.60   53.27
   8   0  -7  784.16   57.21
   8   0  -7  873.66   59.96
  -8   0   7  758.15   52.71
   8   0  -7  736.23   52.24
   8   0  -6   12.66    8.56
  -8   0   6    0.41    6.09
  -8   0   6   12.98    9.00
   8   0  -6    7.72    8.08
   8   0  -6    1.69    6.24
  -8   0   5  586.28   44.43
   8   0  -5  528.67   42.85
   8   0  -5  556.39   47.68
  -8   0   5  575.91   40.50
   8   0  -5  584.28   46.51
  -8   0   4  224.90   26.46
   8   0  -4  218.32   25.38
   8   0  -4  213.86   29.89
   8   0  -4  182.86   25.97
   8   0  -3   75.62   18.10
  -8   0   3   62.92   14.45
   8   0  -3   54.91   12.30
   8   0  -3   90.21   19.18
   8   0  -2    3.16    7.33
  -8   0   2    1.54    6.02
  -8   0   2   -1.31    4.00
  -8   0   1  397.14   35.76
   8   0  -1  348.81   37.54
  -8   0   1  390.38   32.48
   8   0   0   76.48   17.79
  -8   0   0   42.76   12.14
  -8   0   0   44.27   11.04
  -8   0   0   47.20   12.29
   8   0   1   39.47   12.78
  -8   0  -1   51.91   12.55
  -8   0  -1   32.45   10.80
   8   0   2   38.20   13.88
   8   0   2   33.41   11.92
  -8   0  -2   39.18   11.46
   8   0   2   34.12   12.73
  -8   0  -2   18.25    8.97
   8   0   3    9.45    8.65
   8   0   3    6.12    8.29
  -8   0  -3    5.15    4.60
   8   0   3   -5.66    7.18
  -8   0  -3   -0.25    5.79
   8   0   4   13.23   11.69
  -8   0  -4    6.42    6.89
   8   0   4    6.84    8.39
  -8   0  -4    1.94    6.97
   8   0   5   70.63   19.93
   8   0   5   85.87   21.07
  -8   0  -5   36.06   14.92
   8   0   6  281.17   41.32
  -8   0  -6  385.94   46.28
   8   0   6  303.07   41.13
  -8  -1  13  157.18   30.76
  -8  -1  13  152.40   30.53
   8   1 -13  116.39   27.24
  -8  -1  12  616.08   58.03
   8   1 -12  551.48   57.05
  -8  -1  12  624.78   58.86
  -8  -1  11  559.70   52.88
   8   1 -11  527.03   53.96
  -8  -1  11  554.08   53.33
  -8  -1  10   20.08    8.97
   8   1 -10   20.39   11.60
  -8  -1  10   -2.19    6.67
   8   1 -10    7.79    8.55
  -8  -1   9  205.77   29.75
  -8  -1   9  188.86   28.23
   8   1  -9  195.01   30.32
   8   1  -9  230.81   30.24
  -8  -1   8  697.28   53.74
   8   1  -8  638.79   53.83
   8   1  -8  738.73   55.80
  -8  -1   8  729.72   54.09
  -8  -1   7  258.85   31.39
   8   1  -7  300.72   35.02
   8   1  -7  301.20   35.01
  -8  -1   7  320.44   33.73
   8   1  -6  118.61   22.26
  -8  -1   6  113.15   19.11
  -8  -1   6  120.02   21.07
   8   1  -6   86.61   18.25
  -8  -1   5  720.17   51.84
   8   1  -5  846.18   54.30
   8   1  -5  830.52   60.01
  -8  -1   5  752.02   47.86
  -8  -1   4  847.53   55.47
   8   1  -4  936.77   54.39
   8   1  -4  824.26   60.35
   8   1  -3   16.22   11.73
  -8  -1   3  -10.20    7.79
   8   1  -3    6.53    5.51
  -8  -1   2  761.50   52.16
   8   1  -2  701.94   55.22
  -8  -1   2  763.61   44.88
   8   1  -1  411.41   39.63
  -8  -1   1  441.09   39.06
   8   1  -1  352.34   38.33
  -8  -1   1  422.08   34.59
   8   1   0   80.85   18.00
   8   1   0  106.52   21.01
  -8  -1   0  120.72   19.43
   8   1   1  404.77   42.39
   8   1   1  411.52   41.09
  -8  -1  -1  495.16   42.22
   8   1   2   83.95   20.98
   8   1   2   82.05   19.25
   8   1   2   55.35   16.06
  -8  -1  -2  114.09   21.05
   8   1   3   -4.98    8.36
   8   1   3   15.58    9.42
   8   1   3   21.55   12.40
  -8  -1  -3   14.81    9.03
   8   1   4  128.06   26.71
   8   1   4  125.27   24.88
  -8  -1  -4  174.93   28.92
   8   1   5  239.29   38.23
  -8  -1  -5  276.36   38.29
   8   1   5  353.40   42.76
   8   1   6   61.62   19.51
   8   1   6   83.59   22.02
  -8  -1  -6   90.25   22.32
  -8  -2  13  470.77   53.45
   8   2 -13  531.72   57.56
  -8  -2  13  657.34   61.92
  -8  -2  12  443.65   49.38
   8   2 -12  523.22   55.07
  -8  -2  12  457.06   50.62
   8   2 -11    2.59    6.06
  -8  -2  11   -3.46    7.88
  -8  -2  11    9.08   10.20
   8   2 -11    6.15    8.07
   8   2 -10  149.79   25.00
  -8  -2  10  135.78   25.11
  -8  -2  10  139.73   26.67
   8   2 -10  149.20   27.79
   8   2  -9  157.58   25.76
  -8  -2   9  167.62   27.29
  -8  -2   9  153.56   26.24
   8   2  -9  149.98   26.84
  -8  -2   8  288.90   34.57
   8   2  -8  296.83   36.01
   8   2  -8  276.92   34.31
  -8  -2   8  292.73   34.22
   8   2  -7    6.16    8.06
  -8  -2   7   -3.24    6.60
  -8  -2   7    8.44    9.83
   8   2  -7    8.66    8.76
  -8  -2   6  251.32   31.03
   8   2  -6  284.83   32.72
   8   2  -6  277.76   34.09
  -8  -2   6  276.01   30.27
   8   2  -5  189.07   28.55
  -8  -2   5  204.33   27.57
   8   2  -5  222.03   27.55
  -8  -2   5  211.94   25.01
   8   2  -4   10.85    7.48
  -8  -2   4    0.06    6.11
   8   2  -4   11.99    6.78
   8   2  -3  179.90   28.06
   8   2  -3  158.45   22.42
  -8  -2   3  158.51   24.19
   8   2  -2  975.82   60.10
  -8  -2   2  771.43   55.43
   8   2  -2  833.91   61.91
  -8  -2   2  892.67   51.30
   8   2  -1   86.52   19.92
   8   2  -1  105.93   20.57
  -8  -2   1   87.64   18.00
  -8  -2   1   86.10   16.46
   8   2   0  211.72   30.74
   8   2   0  200.42   29.17
  -8  -2   0  202.42   26.07
   8   2   1  462.88   46.39
   8   2   1  396.09   41.30
  -8  -2  -1  485.63   42.99
   8   2   2  271.92   36.99
   8   2   2  273.95   34.16
  -8  -2  -2  279.54   34.16
   8   2   2  341.86   37.65
   8   2   3   37.75   15.12
   8   2   3   38.87   14.05
  -8  -2  -3   68.53   17.90
   8   2   4  793.56   68.74
  -8  -2  -4  780.06   64.24
   8   2   4  886.50   66.84
   8   2   5  624.75   62.33
  -8  -2  -5  543.16   55.29
   8   2   5  666.91   59.53
   8   2   6   -4.02    7.90
  -8  -3  13  353.44   45.86
   8   3 -13  325.50   44.69
  -8  -3  13  463.26   52.56
  -8  -3  12  119.65   26.32
   8   3 -12  153.51   30.14
  -8  -3  11   11.68    9.35
  -8  -3  11   -4.91   11.03
   8   3 -11   21.46   12.73
  -8  -3  10  534.75   51.35
   8   3 -10  496.37   51.31
   8   3 -10  586.80   51.15
  -8  -3  10  515.06   50.26
  -8  -3   9  365.89   40.79
   8   3  -9  244.10   34.60
   8   3  -9  293.62   36.15
  -8  -3   9  316.89   37.46
  -8  -3   8    7.18    7.85
  -8  -3   8    8.91    9.01
   8   3  -8   16.83   10.05
   8   3  -8   12.04    8.81
  -8  -3   7  281.58   34.06
   8   3  -7  299.93   35.60
   8   3  -7  297.64   36.94
  -8  -3   7  313.22   34.59
  -8  -3   6   19.58    9.19
  -8  -3   6   22.69   10.16
   8   3  -6   21.76   10.37
   8   3  -6   32.06   14.07
  -8  -3   5   47.58   12.07
  -8  -3   5   45.44   14.57
   8   3  -5   63.10   16.02
   8   3  -5   23.84   11.27
   8   3  -4  123.30   19.32
  -8  -3   4  116.97   20.99
   8   3  -4  146.65   21.29
   8   3  -4  122.96   24.27
   8   3  -3  127.57   20.67
  -8  -3   3  142.18   23.75
  -8  -3   3  164.89   20.83
   8   3  -3  139.64   26.18
  -8  -3   2   51.12   12.55
   8   3  -2   60.78   15.65
  -8  -3   2   33.14   12.22
   8   3  -2   10.91    7.88
  -8  -3   1  144.45   21.59
   8   3  -1  103.98   22.06
  -8  -3   1  113.71   21.73
   8   3  -1  130.15   24.30
   8   3   0  261.75   34.04
  -8  -3   0  167.49   24.71
   8   3   0  193.52   29.80
   8   3   1  331.10   39.97
   8   3   1  349.14   39.85
  -8  -3  -1  343.80   37.31
   8   3   2   52.90   16.29
   8   3   2   49.26   16.45
  -8  -3  -2   72.14   18.09
  -8  -3  -3  466.59   47.83
   8   3   3  419.76   43.44
   8   3   4  961.09   76.90
  -8  -3  -4  811.21   67.18
   8   3   4  819.75   64.82
   8   3   5   62.04   18.36
  -8  -3  -5   32.22   14.16
  -8  -4  13  358.60   46.36
   8   4 -13  407.20   50.86
  -8  -4  13  408.94   50.16
  -8  -4  12   71.60   20.93
  -8  -4  12   86.31   23.37
   8   4 -12  119.16   27.16
   8   4 -11  185.31   29.24
  -8  -4  11  220.41   34.22
  -8  -4  11  229.19   34.88
   8   4 -11  228.21   35.88
  -8  -4  10  240.69   34.35
   8   4 -10  211.49   33.48
  -8  -4  10  286.82   38.46
   8   4 -10  237.19   33.50
  -8  -4   9  138.15   25.00
  -8  -4   9  139.73   25.66
   8   4  -9  119.84   24.50
   8   4  -9  118.08   23.80
  -8  -4   8  136.11   24.40
  -8  -4   8  130.65   24.66
   8   4  -8  196.58   30.08
   8   4  -8  178.21   29.11
  -8  -4   7  240.18   32.39
   8   4  -7  263.34   33.68
   8   4  -7  262.96   35.40
  -8  -4   7  309.22   34.95
  -8  -4   6   49.58   13.14
  -8  -4   6   27.26   11.16
   8   4  -6   41.97   13.09
   8   4  -6   42.37   15.42
  -8  -4   5   75.78   16.31
  -8  -4   5   34.33   12.97
   8   4  -5   45.64   12.87
   8   4  -5   68.54   18.99
   8   4  -4  340.08   33.71
  -8  -4   4  295.14   35.44
   8   4  -4  336.72   40.49
  -8  -4   3   72.52   14.92
   8   4  -3   85.90   18.40
  -8  -4   3   45.25   15.32
   8   4  -3   71.96   20.24
  -8  -4   2  110.04   19.86
   8   4  -2  131.48   23.12
  -8  -4   2  112.08   21.69
   8   4  -2   97.26   22.47
   8   4  -1  669.04   54.64
  -8  -4   1  603.37   52.50
   8   4  -1  620.11   55.77
  -8  -4   1  649.47   49.53
   8   4   0  198.36   31.64
  -8  -4   0  241.42   31.09
   8   4   0  267.66   35.69
  -8  -4  -1   16.86   10.42
   8   4   1   19.39   10.94
   8   4   1   30.70   13.93
  -8  -4  -2   88.46   20.30
   8   4   2  134.09   25.76
   8   4   2   86.57   22.58
   8   4   3  264.00   39.48
  -8  -4  -3  237.58   35.67
   8   4   4  109.26   26.72
  -8  -4  -4  266.34   39.34
  -8  -5  12   21.82   11.87
  -8  -5  12    4.62    7.94
   8   5 -12   -0.47    7.20
  -8  -5  11  224.78   35.65
  -8  -5  11  230.05   35.30
   8   5 -11  243.55   37.70
   8   5 -11  202.98   32.16
  -8  -5  10   62.14   18.73
   8   5 -10   35.81   15.58
   8   5 -10   36.46   14.67
  -8  -5   9   10.23   10.16
  -8  -5   9    9.73    8.14
   8   5  -9    4.28    7.96
   8   5  -9   15.34    8.20
  -8  -5   8   42.04   15.16
  -8  -5   8   46.15   16.41
   8   5  -8   58.68   17.59
   8   5  -8   18.08   11.11
  -8  -5   7  177.09   27.90
  -8  -5   7  189.77   29.82
   8   5  -7  181.82   28.70
   8   5  -7  238.02   35.16
  -8  -5   6   86.92   18.68
  -8  -5   6   98.35   21.15
   8   5  -6   80.55   18.44
   8   5  -6   69.31   18.98
  -8  -5   5  180.99   28.88
   8   5  -5  235.28   29.69
  -8  -5   5  196.18   26.94
   8   5  -5  206.72   33.31
   8   5  -4  625.78   48.44
  -8  -5   4  635.64   54.39
   8   5  -4  607.75   57.34
  -8  -5   3  173.06   23.99
   8   5  -3  153.65   24.85
  -8  -5   3  172.78   28.09
   8   5  -3  142.85   28.00
   8   5  -2  490.55   46.21
  -8  -5   2  431.79   45.33
   8   5  -2  451.74   49.11
  -8  -5   2  449.95   42.06
   8   5  -1  384.59   42.38
  -8  -5   1  383.77   43.09
   8   5  -1  371.69   44.61
  -8  -5   1  402.84   40.60
   8   5   0  199.85   32.06
  -8  -5   0  255.85   33.34
   8   5   0  209.13   33.39
  -8  -5  -1   24.48   11.61
   8   5   1   30.13   13.23
   8   5   1   24.29   13.20
   8   5   2  573.36   58.02
   8   5   2  552.44   53.36
  -8  -5  -2  504.44   51.56
   8   5   3  398.44   50.42
  -8  -5  -3  433.63   49.72
  -8  -6  12  210.95   36.18
  -8  -6  12  157.48   31.08
   8   6 -12  182.51   34.44
  -8  -6  11    4.28    7.91
  -8  -6  11   17.86   11.24
   8   6 -11    0.51    6.19
  -8  -6  10   -5.08    6.79
   8   6 -10    6.58    9.71
   8   6 -10  -20.88   12.17
  -8  -6   9  112.62   24.55
  -8  -6   9   88.58   21.61
   8   6  -9  100.95   24.28
   8   6  -9   71.66   20.50
  -8  -6   8  172.77   28.92
  -8  -6   8  115.29   23.94
   8   6  -8  106.61   23.36
   8   6  -8  162.36   30.07
  -8  -6   7   34.54   13.47
  -8  -6   7   34.58   13.61
   8   6  -7   31.21   13.91
   8   6  -7   40.41   16.32
  -8  -6   6   39.94   14.58
  -8  -6   6   30.81   12.86
   8   6  -6   35.82   13.81
   8   6  -6   32.17   14.54
  -8  -6   5  401.01   44.01
   8   6  -5  371.11   45.34
  -8  -6   4   86.79   21.12
   8   6  -4   97.61   24.65
  -8  -6   3   10.22    5.49
   8   6  -3    8.81    7.55
  -8  -6   3    0.91    7.29
   8   6  -3    9.77   10.28
   8   6  -2  241.05   33.68
  -8  -6   2  332.92   40.83
  -8  -6   2  333.59   37.54
   8   6  -2  250.05   38.05
   8   6  -1  559.71   54.25
  -8  -6   1  576.34   55.61
   8   6  -1  556.65   56.56
  -8  -6   1  552.48   50.48
   8   6   0  256.50   37.55
  -8  -6   0  236.88   34.85
   8   6   0  268.94   39.08
  -8  -6  -1  110.77   23.70
   8   6   1   91.53   23.10
   8   6   1  131.85   27.31
   8   6   2  732.32   68.36
  -8  -6  -2  672.94   62.24
  -8  -7  11    6.36   10.90
  -8  -7  11    8.26    7.17
   8   7 -11    2.06    7.00
   8   7 -11    9.77    9.14
  -8  -7  10  159.68   30.56
  -8  -7  10  139.42   28.97
   8   7 -10  165.49   31.40
   8   7 -10   91.85   23.91
  -8  -7   9  270.94   38.75
   8   7  -9  270.78   40.04
  -8  -7   9  294.35   40.30
   8   7  -9  294.75   42.43
  -8  -7   8   40.93   15.82
  -8  -7   8   50.34   16.52
   8   7  -8   51.14   16.55
   8   7  -8   48.45   17.51
  -8  -7   7  108.76   23.51
  -8  -7   7  101.96   23.83
   8   7  -7  100.34   23.04
   8   7  -7   83.94   23.00
  -8  -7   6  636.91   57.82
   8   7  -6  671.62   63.75
  -8  -7   6  622.87   54.56
  -8  -7   5  102.68   23.15
   8   7  -5  113.89   26.73
  -8  -7   4    4.99    7.50
   8   7  -4    2.08    6.57
  -8  -7   3  190.71   28.73
  -8  -7   3  185.76   31.60
   8   7  -3  116.55   26.78
   8   7  -2  218.42   33.38
  -8  -7   2  207.77   31.30
  -8  -7   2  178.59   30.87
   8   7  -2  187.22   34.10
   8   7  -1  271.89   38.72
  -8  -7   1  244.36   37.15
  -8  -7   1  330.28   41.19
   8   7  -1  275.10   40.85
  -8  -7   0   17.23    9.27
   8   7   0   -3.76    7.44
   8   7   0   28.19   14.60
   8   7   1  465.91   53.54
  -8  -8   9  307.04   42.19
  -8  -8   9  325.17   43.01
   8   8  -9  258.32   39.52
   8   8  -9  242.98   41.76
  -8  -8   8  -10.88    9.41
  -8  -8   8  -17.33   11.60
   8   8  -8  -13.32   11.51
   8   8  -8  -21.17   12.70
  -8  -8   7  323.23   42.59
  -8  -8   7  315.91   41.38
   8   8  -7  270.50   41.96
  -8  -8   6  777.49   66.06
   8   8  -6  709.51   68.56
  -8  -8   5   19.49   12.78
   8   8  -5   14.31   10.41
  -8  -8   4   34.57   14.62
   8   8  -4   56.60   19.28
  -8  -8   3  559.61   55.96
   8   8  -3  522.10   59.18
  -8  -8   3  511.46   50.42
   8   8  -2  346.89   44.38
   8   8  -2  428.42   53.21
  -8  -8   2  432.18   47.61
   8   8  -1   -2.24    8.35
  -8  -9   7  401.34   48.31
  -9   9   3  378.39   48.31
   9  -9  -3  272.13   40.74
  -9   9   2   10.38    6.81
   9  -9  -2    1.34    8.35
  -9   9   1  157.90   30.42
   9  -9  -1  159.42   28.50
   9  -9  -1  122.73   26.69
   9  -9   0  565.61   55.59
  -9   9   0  489.50   54.31
   9  -9   0  534.09   55.82
  -9   9  -1  119.23   26.47
   9  -9   1  135.05   27.24
   9  -9   1  115.76   26.41
  -9   9  -2    4.89   10.15
   9  -9   2   48.01   16.88
  -9   8   8  450.48   51.34
  -9   8   7  120.86   28.04
  -9   8   7  132.38   27.36
   9  -8  -7   60.82   19.64
  -9   8   6   48.05   17.35
  -9   8   6   37.89   13.53
   9  -8  -6   39.37   15.24
  -9   8   5  491.91   54.37
   9  -8  -5  626.82   60.67
  -9   8   4  640.87   61.73
   9  -8  -4  599.22   59.21
  -9   8   3   66.13   19.27
   9  -8  -3   76.07   18.64
   9  -8  -3   70.38   20.36
  -9   8   2  119.53   26.33
   9  -8  -2  149.42   26.45
   9  -8  -2  143.82   28.63
  -9   8   1  287.69   39.87
   9  -8  -1  279.62   37.00
   9  -8  -1  302.83   40.57
  -9   8   0  147.02   28.26
   9  -8   0  119.08   24.85
   9  -8   0  120.41   25.81
  -9   8  -1   -0.81   10.76
   9  -8   1  -22.25   12.45
   9  -8   1   12.08    9.70
  -9   8  -2    4.07    8.63
  -9   8  -2   -8.34   13.47
   9  -8   2   20.31   12.34
   9  -8   2    0.41    7.48
   9  -8   3  169.01   29.56
  -9   7   9  380.09   46.81
   9  -7  -9  410.12   48.56
  -9   7   9  444.46   51.00
   9  -7  -8  471.07   54.77
  -9   7   8  465.31   52.11
   9  -7  -8  448.23   50.60
  -9   7   8  525.64   53.52
  -9   7   7  217.38   35.23
  -9   7   7  237.74   34.45
   9  -7  -7  230.72   36.82
   9  -7  -7  281.10   39.25
   9  -7  -6  324.65   42.63
  -9   7   6  306.28   42.36
   9  -7  -6  343.68   43.31
  -9   7   6  333.17   39.29
   9  -7  -5 1087.21   78.04
  -9   7   5  968.17   75.22
   9  -7  -5  988.06   74.43
  -9   7   4  542.11   54.74
   9  -7  -4  456.01   49.82
  -9   7   3  168.65   30.24
   9  -7  -3  161.94   26.40
   9  -7  -3  142.06   27.14
  -9   7   2  827.02   67.12
   9  -7  -2  778.57   61.20
   9  -7  -2  914.64   70.06
  -9   7   1  407.62   46.02
   9  -7  -1  464.29   47.59
   9  -7  -1  466.45   49.08
  -9   7   0   16.72    8.88
   9  -7   0   11.05    8.68
   9  -7   0    2.02    5.90
  -9   7  -1   46.56   15.54
   9  -7   1   84.89   20.58
   9  -7   1   35.75   15.30
  -9   7  -2  185.05   30.07
  -9   7  -2  149.65   28.49
   9  -7   2  178.74   31.84
   9  -7   2  180.55   30.10
  -9   7  -3  158.35   29.38
   9  -7   3  179.89   32.36
   9  -7   3  116.47   25.09
  -9   6  10  273.56   40.32
   9  -6 -10  192.20   32.25
  -9   6  10  211.96   34.15
   9  -6  -9  456.09   53.96
  -9   6   9  561.06   55.85
   9  -6  -9  502.49   52.03
  -9   6   9  522.00   53.61
   9  -6  -8  228.23   37.42
  -9   6   8  252.01   37.07
   9  -6  -8  229.38   34.68
  -9   6   8  286.26   38.02
  -9   6   7   20.05   10.67
   9  -6  -7    7.53    8.81
  -9   6   7   11.96    9.43
   9  -6  -7    0.64    7.60
   9  -6  -6  630.53   58.64
  -9   6   6  684.47   60.94
   9  -6  -6  679.36   59.57
  -9   6   6  725.77   56.22
   9  -6  -5  500.09   50.36
  -9   6   5  453.81   48.86
   9  -6  -5  458.60   48.38
   9  -6  -4   44.80   14.79
  -9   6   4   46.75   17.31
   9  -6  -4   50.41   17.21
   9  -6  -3  158.74   26.15
  -9   6   3  182.40   30.29
   9  -6  -3  157.71   28.39
  -9   6   2  593.49   54.21
   9  -6  -2  606.63   52.06
   9  -6  -2  514.28   51.30
  -9   6   1  290.36   37.51
   9  -6  -1  318.42   38.12
   9  -6  -1  324.87   39.97
   9  -6   0   61.53   17.49
   9  -6   0  108.19   23.23
  -9   6   0  120.67   24.06
  -9   6  -1  489.60   47.43
   9  -6   1  431.88   47.19
   9  -6   1  480.22   48.75
  -9   6  -2  539.82   52.87
   9  -6   2  485.55   51.65
  -9   6  -2  554.43   50.57
   9  -6   2  584.80   54.21
  -9   6  -3   25.80   13.85
   9  -6   3   42.13   16.01
   9  -6   3   16.81    9.86
  -9   6  -4  379.89   46.03
   9  -6   4  381.92   47.33
   9  -6   4  384.09   43.84
  -9   5  11  293.01   42.29
  -9   5  11  292.93   39.37
   9  -5 -10  729.97   69.72
  -9   5  10  830.79   67.27
   9  -5 -10  814.99   64.72
  -9   5  10  870.23   71.30
  -9   5   9  253.64   36.30
  -9   5   9  334.93   41.82
   9  -5  -9  274.27   41.37
   9  -5  -9  227.05   33.77
  -9   5   8   -8.31    7.78
   9  -5  -8    8.53   10.08
  -9   5   8    6.42    7.01
   9  -5  -8   10.17   10.41
   9  -5  -7  403.91   46.55
  -9   5   7  398.64   45.36
   9  -5  -7  384.68   43.23
  -9   5   7  428.18   43.20
   9  -5  -6  283.11   37.56
  -9   5   6  259.16   36.10
   9  -5  -6  256.13   35.40
  -9   5   6  277.14   32.84
   9  -5  -5   66.32   17.98
  -9   5   5   86.47   20.98
   9  -5  -5   92.15   21.30
   9  -5  -4  -10.07    8.51
  -9   5   4  -19.40   11.68
   9  -5  -4    2.65    8.53
   9  -5  -3  122.64   22.74
  -9   5   3  127.89   25.43
   9  -5  -3  135.61   25.06
   9  -5  -2  172.10   27.47
  -9   5   2  206.64   30.85
   9  -5  -2  206.77   31.15
   9  -5  -1   15.99    7.64
  -9   5   1    2.43    6.56
   9  -5  -1   -4.18    8.36
   9  -5   0  132.45   25.28
  -9   5   0  182.89   28.29
   9  -5   0  133.08   25.28
  -9   5  -1  322.10   37.01
   9  -5   1  257.38   35.42
   9  -5   1  295.43   37.95
  -9   5  -2  110.36   23.49
   9  -5   2   73.49   19.82
   9  -5   2   97.66   21.56
  -9   5  -2   68.75   17.32
  -9   5  -3  167.85   29.25
   9  -5   3  230.78   34.82
   9  -5   3  242.07   34.11
  -9   5  -4  337.52   42.41
   9  -5   4  311.37   41.87
  -9   5  -5   -9.78    9.61
   9  -5   5   48.15   17.93
  -9   4  12   42.44   16.17
  -9   4  11  485.38   51.47
   9  -4 -11  422.82   52.69
  -9   4  11  533.32   52.31
  -9   4  11  467.36   52.62
  -9   4  10  702.02   59.75
   9  -4 -10  668.24   65.31
  -9   4  10  681.11   59.36
   9  -4 -10  666.19   57.08
  -9   4  10  688.64   61.58
  -9   4   9  188.15   30.24
  -9   4   9  198.46   30.17
   9  -4  -9  165.42   31.09
  -9   4   9  183.41   30.18
   9  -4  -9  161.18   27.52
  -9   4   8   87.45   20.07
   9  -4  -8   61.25   19.40
  -9   4   8  120.61   24.11
   9  -4  -8  104.37   22.76
   9  -4  -7  759.16   63.16
  -9   4   7  728.05   60.90
   9  -4  -7  777.81   60.95
  -9   4   7  811.47   58.39
   9  -4  -6  311.57   38.68
  -9   4   6  356.30   41.55
   9  -4  -6  302.77   37.44
  -9   4   6  365.11   36.25
   9  -4  -5    7.57    7.55
  -9   4   5   -0.08    6.37
   9  -4  -5   -2.01    5.73
   9  -4  -4  166.31   26.04
  -9   4   4  198.25   30.78
   9  -4  -4  194.97   29.87
   9  -4  -3  204.10   27.42
  -9   4   3  237.18   32.68
   9  -4  -3  244.07   33.69
  -9   4   2   -1.16    5.45
   9  -4  -2    2.06    7.64
   9  -4  -1  119.00   23.33
  -9   4   1  105.09   21.42
   9  -4  -1  143.01   26.13
   9  -4   0    5.85    8.28
  -9   4   0    1.29    6.75
   9  -4   0   -7.34    7.82
   9  -4   1   30.11   11.79
  -9   4  -1   11.26    5.37
   9  -4   1   32.41   13.19
  -9   4  -2   43.57   14.52
   9  -4   2   43.74   15.59
  -9   4  -2   29.53   11.52
   9  -4   2   17.70   10.84
  -9   4  -3  166.52   28.93
   9  -4   3  217.53   32.89
  -9   4  -4   77.42   20.20
   9  -4   4   66.73   19.35
  -9   4  -5   11.52    9.04
   9  -4   5   15.03    9.76
   9  -4   5    5.26    7.25
  -9   3  12   86.66   23.16
  -9   3  12  121.23   26.49
   9  -3 -12   79.06   24.19
  -9   3  12   84.29   20.17
  -9   3  11  217.45   35.07
  -9   3  11  227.46   34.93
   9  -3 -11  241.18   39.27
  -9   3  11  247.80   34.80
  -9   3  10  219.62   33.99
  -9   3  10  261.43   35.66
  -9   3  10  272.53   36.50
   9  -3 -10  159.20   31.39
   9  -3 -10  242.35   32.28
  -9   3   9   51.56   15.87
  -9   3   9   58.90   17.02
   9  -3  -9   43.80   15.12
  -9   3   9   28.73   12.01
   9  -3  -9   63.49   16.55
  -9   3   8  583.82   49.44
  -9   3   8  520.27   50.44
   9  -3  -8  445.11   48.31
   9  -3  -8  505.33   47.34
  -9   3   8  513.29   47.38
  -9   3   7  806.33   57.34
  -9   3   7  779.88   62.69
   9  -3  -7  886.20   66.11
   9  -3  -7  831.29   61.61
  -9   3   7  912.76   60.46
  -9   3   6  170.82   24.67
   9  -3  -6  158.33   26.83
  -9   3   6  140.12   26.14
  -9   3   6  188.69   25.05
   9  -3  -6  184.48   28.20
  -9   3   5   79.03   15.74
   9  -3  -5   77.52   18.21
  -9   3   5   77.21   19.52
   9  -3  -5   62.60   17.05
  -9   3   4  662.56   46.09
  -9   3   4  543.39   50.16
   9  -3  -4  607.55   48.31
   9  -3  -4  602.22   54.16
   9  -3  -4  618.61   52.71
   9  -3  -3   82.41   19.21
   9  -3  -3   72.09   15.53
  -9   3   3   87.10   19.89
   9  -3  -3   81.56   19.12
   9  -3  -2   96.10   17.61
  -9   3   2  118.06   22.79
   9  -3  -2   93.67   21.22
  -9   3   1  338.00   37.52
   9  -3  -1  301.99   36.91
   9  -3   0   77.28   19.59
  -9   3   0  141.60   24.10
   9  -3   0  120.21   23.36
  -9   3  -1   25.56   10.40
   9  -3   1   -5.50    7.53
  -9   3  -1   23.81   10.10
   9  -3   1   26.36   12.88
  -9   3  -2  347.46   38.97
   9  -3   2  392.85   44.12
  -9   3  -3  121.21   23.09
   9  -3   3  101.53   22.79
  -9   3  -4   33.30   13.45
   9  -3   4   14.67   11.83
  -9   3  -5   76.52   20.35
   9  -3   5   76.27   21.20
   9  -3   5   43.88   17.58
  -9   3  -6  110.04   25.05
   9  -3   6  205.96   33.90
  -9   2  13   45.47   19.49
  -9   2  12  133.56   27.67
  -9   2  12   80.27   20.71
   9  -2 -12  115.23   27.25
  -9   2  12  163.78   28.65
  -9   2  11  167.86   30.41
  -9   2  11  194.92   32.15
   9  -2 -11  137.63   29.35
  -9   2  11  175.32   29.13
  -9   2  10  111.43   24.11
  -9   2  10  131.63   25.26
   9  -2 -10  105.10   25.42
  -9   2  10   88.15   21.13
   9  -2 -10  132.08   23.50
  -9   2   9   30.09   13.45
  -9   2   9   48.66   15.20
   9  -2  -9    8.40    7.08
  -9   2   9   37.47   14.01
   9  -2  -9   43.60   15.05
  -9   2   8  287.66   34.35
   9  -2  -8  222.37   32.79
   9  -2  -8  208.59   32.48
  -9   2   8  180.89   29.42
  -9   2   8  272.77   33.54
   9  -2  -8  192.48   28.28
  -9   2   7   92.89   18.83
   9  -2  -7   72.19   19.23
  -9   2   7   71.80   17.12
   9  -2  -7   60.55   16.34
  -9   2   7   61.92   18.19
   9  -2  -7   86.59   19.48
   9  -2  -6   25.90   12.66
  -9   2   6   13.19    8.29
   9  -2  -6   26.78   12.77
  -9   2   6    4.75    7.46
   9  -2  -6   12.71    6.17
   9  -2  -5  107.26   22.30
  -9   2   5  112.95   20.08
   9  -2  -5   89.69   18.92
  -9   2   5   74.01   18.47
   9  -2  -5  147.04   25.36
  -9   2   4  386.55   35.65
  -9   2   4  363.68   40.27
   9  -2  -4  374.50   36.61
   9  -2  -4  370.09   41.52
   9  -2  -4  351.46   39.05
   9  -2  -3   76.22   19.32
  -9   2   3   90.72   16.79
   9  -2  -3  104.28   17.93
  -9   2   3   61.96   16.16
   9  -2  -3   72.39   18.25
  -9   2   2  268.29   28.70
  -9   2   2  226.82   30.79
   9  -2  -2  240.29   33.57
   9  -2  -2  232.93   32.01
  -9   2   1  361.38   33.49
  -9   2   1  354.83   37.67
   9  -2  -1  251.37   34.01
   9  -2  -1  282.72   36.27
   9  -2   0   47.31   15.43
  -9   2   0   87.45   18.46
   9  -2   0   39.55   14.92
  -9   2  -1  327.98   35.52
  -9   2  -1  267.79   31.93
   9  -2   1  344.19   39.66
  -9   2  -2  818.27   59.51
  -9   2  -3  100.15   20.72
  -9   2  -4   67.04   17.70
   9  -2   4  125.24   26.69
  -9   2  -5  488.59   49.58
   9  -2   5  420.73   50.20
  -9   2  -6  406.44   46.98
  -9   1  13   64.95   20.05
  -9   1  13   98.23   24.22
  -9   1  12  437.63   50.22
  -9   1  12  469.39   47.91
   9  -1 -12  459.39   53.80
  -9   1  12  485.41   52.87
  -9   1  11  185.49   31.89
  -9   1  11  191.39   31.97
   9  -1 -11  210.26   35.23
  -9   1  11  163.01   28.27
  -9   1  10    0.33    7.89
   9  -1 -10    9.05    7.38
  -9   1  10   19.09   10.55
   9  -1 -10   14.69   10.35
  -9   1  10   23.05   12.43
  -9   1   9  230.86   32.49
   9  -1  -9  230.77   31.96
  -9   1   9  214.44   32.39
   9  -1  -9  228.98   34.44
  -9   1   9  268.40   34.51
   9  -1  -9  182.28   27.54
  -9   1   8   28.53   11.58
   9  -1  -8   34.73   12.65
  -9   1   8   24.02   11.15
  -9   1   8   27.20   11.40
   9  -1  -8   34.19   14.52
   9  -1  -8   45.73   14.50
  -9   1   7    8.57    6.44
   9  -1  -7   24.58   14.14
  -9   1   7  -10.86    8.13
   9  -1  -7    7.66    6.00
   9  -1  -7   13.11    8.96
   9  -1  -6   70.46   18.24
  -9   1   6   85.28   17.76
   9  -1  -6   79.81   18.14
   9  -1  -6   99.35   20.78
   9  -1  -5   27.45   13.91
  -9   1   5   75.19   16.74
   9  -1  -5   71.72   16.89
   9  -1  -5   70.23   17.96
   9  -1  -4   -3.39    8.74
  -9   1   4    2.12    7.05
   9  -1  -4    0.11    3.95
   9  -1  -4    5.09    7.65
   9  -1  -3   29.49   13.64
  -9   1   3   90.15   17.38
   9  -1  -3   84.69   19.58
   9  -1  -2  160.05   26.98
  -9   1   2  163.00   23.23
  -9   1   2  176.98   26.60
   9  -1  -2  119.28   23.42
  -9   1   1  225.97   27.50
   9  -1  -1  190.50   29.65
  -9   1   1  220.17   29.65
   9  -1   0    3.99    6.84
  -9   1   0    6.89    5.77
  -9   1   0    5.83    5.82
  -9   1   0    2.67    5.46
  -9   1   0   -2.13    5.17
  -9   1  -1  435.99   39.72
  -9   1  -1  351.49   36.03
  -9   1  -1  308.73   34.15
   9  -1   1  297.37   37.15
  -9   1  -1  330.00   35.59
  -9   1  -2  475.74   42.84
  -9   1  -2  487.82   44.00
   9  -1   2  487.86   46.94
  -9   1  -2  463.29   44.92
   9  -1   3   -5.93    9.91
  -9   1  -3   -5.33    7.46
  -9   1  -4  304.35   36.44
   9  -1   4  213.88   34.57
  -9   1  -4  273.10   37.73
  -9   1  -5  806.62   68.41
   9  -1   5  772.57   68.30
  -9   0  13  285.32   41.71
  -9   0  13  319.87   43.82
   9   0 -13  303.30   44.48
  -9   0  12  446.50   50.40
  -9   0  12  340.26   41.00
   9   0 -12  373.64   48.10
  -9   0  12  395.97   47.43
  -9   0  11   79.21   21.17
   9   0 -11  101.50   21.45
  -9   0  11   84.59   21.47
   9   0 -11   69.38   20.14
  -9   0  10  174.20   29.19
   9   0 -10  167.02   27.30
  -9   0  10  174.99   29.50
   9   0 -10  131.12   27.59
  -9   0   9  568.58   51.45
   9   0  -9  459.36   49.02
   9   0  -9  602.75   52.61
  -9   0   9  488.45   47.40
   9   0  -9  500.14   44.84
  -9   0   8  104.14   20.96
   9   0  -8   59.21   17.18
  -9   0   8   48.29   15.27
   9   0  -8   75.33   18.77
   9   0  -8   37.21   13.38
  -9   0   7  198.03   26.86
   9   0  -7  225.50   31.77
  -9   0   7  186.11   27.80
   9   0  -7  182.50   28.20
   9   0  -7  180.49   27.24
  -9   0   6  238.45   30.49
   9   0  -6  227.55   29.94
   9   0  -6  248.75   34.29
   9   0  -6  263.85   33.31
   9   0  -5   17.27   10.66
  -9   0   5    2.92    8.45
   9   0  -5    8.41    6.79
   9   0  -5    3.58    5.75
   9   0  -4  146.61   26.34
  -9   0   4  128.74   21.59
   9   0  -4  143.32   21.20
  -9   0   3  661.12   49.84
   9   0  -3  617.97   55.00
  -9   0   2  254.68   30.43
   9   0  -2  224.86   32.66
   9   0  -1   10.09    8.92
  -9   0   1   21.78    9.96
  -9   0   1   10.23    5.35
  -9   0   0  355.63   36.89
  -9   0   0  351.85   33.99
   9   0   0  335.07   38.95
  -9   0   0  349.80   34.92
  -9   0  -1  344.27   37.04
  -9   0  -1  374.71   37.63
   9   0   1  345.26   39.77
  -9   0  -1  326.12   36.22
   9   0   2  112.09   22.71
  -9   0  -2   88.75   19.97
  -9   0  -3   47.62   16.80
   9   0   4  292.33   40.37
  -9   0  -4  238.46   35.78
  -9   0  -5  454.47   51.27
   9   0   5  432.92   50.72
  -9  -1  13  265.96   40.21
  -9  -1  13  240.16   39.15
   9   1 -13  273.64   41.80
  -9  -1  12   88.15   22.89
  -9  -1  12  126.00   26.51
   9   1 -12   77.83   22.84
  -9  -1  11   57.09   16.92
   9   1 -11   58.27   16.25
  -9  -1  11   66.40   19.45
   9   1 -11   49.01   18.19
  -9  -1  10  252.96   35.11
  -9  -1  10  261.64   35.95
   9   1 -10  190.81   32.16
   9   1 -10  247.93   33.94
   9   1  -9   53.32   17.28
  -9  -1   9   74.18   18.30
  -9  -1   9   84.03   20.94
   9   1  -9   76.70   20.68
   9   1  -8    3.45    6.90
  -9  -1   8   -8.65    7.47
  -9  -1   8    8.11    8.45
   9   1  -8    0.19    6.97
  -9  -1   7  436.57   43.46
   9   1  -7  474.26   45.50
   9   1  -7  450.94   46.43
  -9  -1   7  453.43   41.53
  -9  -1   6  266.60   33.02
   9   1  -6  298.62   34.17
   9   1  -6  313.47   38.79
   9   1  -5    7.05    9.46
  -9  -1   5   17.82    9.45
   9   1  -5   17.50    9.08
  -9  -1   4  568.18   47.81
   9   1  -4  629.61   55.53
  -9  -1   3  995.67   64.13
   9   1  -3  920.29   68.25
   9   1  -2   60.77   16.80
  -9  -1   2   59.32   15.69
  -9  -1   1  591.71   49.98
   9   1  -1  599.25   54.10
  -9  -1   1  713.17   48.92
  -9  -1   0 1144.41   72.18
   9   1   0 1199.70   77.94
  -9  -1   0 1200.07   69.68
   9   1   1  312.35   40.15
   9   1   1  396.22   42.58
  -9  -1  -1  367.37   39.16
   9   1   2   -6.86    9.40
  -9  -1  -2    5.02    6.57
   9   1   3  212.42   35.83
  -9  -1  -3  323.77   39.45
   9   1   4  449.39   52.68
  -9  -1  -4  304.96   41.07
   9   1   4  367.42   44.53
  -9  -2  13   11.99   10.41
  -9  -2  12  181.09   31.86
  -9  -2  12  176.04   32.84
   9   2 -12  175.03   32.57
   9   2 -11  134.41   25.22
  -9  -2  11   90.97   22.07
  -9  -2  11  160.24   30.61
   9   2 -11  115.19   25.68
   9   2 -10   56.50   16.56
  -9  -2  10   95.37   21.57
  -9  -2  10   57.78   18.01
   9   2 -10   39.37   16.09
   9   2  -9   19.99   10.19
  -9  -2   9   16.37   10.42
  -9  -2   9   28.98   12.26
   9   2  -9   15.28   10.15
   9   2  -8  157.26   27.78
  -9  -2   8  132.64   24.25
  -9  -2   8  126.35   24.85
   9   2  -8  137.52   25.74
   9   2  -7  135.63   26.11
  -9  -2   7  144.15   23.94
  -9  -2   7  122.78   23.28
   9   2  -7  119.75   23.21
   9   2  -6   22.52   13.71
  -9  -2   6   36.27   14.11
   9   2  -6   15.80    8.86
   9   2  -5  113.67   23.99
  -9  -2   5   99.39   20.55
   9   2  -5  114.89   20.58
  -9  -2   4  816.17   59.53
   9   2  -4  738.49   62.23
  -9  -2   3  453.84   44.06
   9   2  -3  430.23   46.53
   9   2  -2   55.05   18.14
   9   2  -2   76.07   18.79
  -9  -2   2   45.23   13.40
   9   2  -1  899.25   64.68
  -9  -2   1  725.04   57.83
   9   2  -1  909.78   68.02
  -9  -2   1  825.23   55.24
   9   2   0  601.95   54.98
  -9  -2   0  600.56   52.55
   9   2   0  640.62   56.80
  -9  -2   0  586.43   48.49
   9   2   1  190.38   30.60
   9   2   1  242.79   35.18
  -9  -2  -1  265.91   34.19
   9   2   2  231.94   36.16
   9   2   2  312.50   38.18
  -9  -2  -2  268.81   35.43
   9   2   3  941.61   77.54
  -9  -2  -3  992.44   73.82
  -9  -2  -4  512.73   54.27
   9   2   4  567.65   56.35
  -9  -3  13    9.70   10.98
  -9  -3  12   98.16   24.03
  -9  -3  12  204.55   35.60
   9   3 -12  165.70   32.26
   9   3 -11  141.30   26.74
  -9  -3  11  139.95   27.74
  -9  -3  11  113.28   25.34
   9   3 -11   91.61   24.24
   9   3 -10   25.03   12.24
  -9  -3  10   29.24   13.67
  -9  -3  10   37.14   14.29
   9   3 -10   66.88   18.85
   9   3  -9  182.67   30.04
  -9  -3   9  176.79   28.82
  -9  -3   9  158.85   28.71
   9   3  -9  160.45   29.31
  -9  -3   8  660.17   56.70
   9   3  -8  569.38   53.21
   9   3  -8  562.22   54.53
  -9  -3   8  668.84   54.64
   9   3  -7   39.07   15.63
  -9  -3   7   12.34   10.64
  -9  -3   7   13.03    7.59
   9   3  -7   20.77   11.23
   9   3  -6   66.56   19.12
  -9  -3   6   77.62   19.08
   9   3  -6   89.47   19.44
  -9  -3   5  390.24   42.02
   9   3  -5  358.66   43.65
   9   3  -4  162.20   29.50
  -9  -3   4  233.12   31.77
   9   3  -3    5.42    8.40
   9   3  -3    0.76    8.17
  -9  -3   3   14.89   10.23
   9   3  -2  106.57   24.16
   9   3  -2  117.26   22.28
  -9  -3   2   76.67   19.68
   9   3  -1  343.60   40.31
  -9  -3   1  353.45   41.11
   9   3  -1  405.82   46.20
  -9  -3   1  360.27   36.99
   9   3   0  478.97   49.36
  -9  -3   0  472.28   48.12
   9   3   0  387.18   45.47
  -9  -3   0  432.25   43.06
   9   3   1   25.59   13.85
   9   3   1   39.19   16.21
  -9  -3  -1   34.86   13.23
   9   3   2  446.52   51.78
   9   3   2  446.60   47.37
  -9  -3  -2  490.83   49.81
   9   3   3  643.52   63.80
  -9  -3  -3  578.62   57.01
  -9  -4  12   36.48   15.91
  -9  -4  12   79.50   22.52
   9   4 -12   80.55   23.98
   9   4 -11  207.96   32.95
  -9  -4  11  174.12   31.65
  -9  -4  11  148.45   30.11
   9   4 -11  196.72   34.28
   9   4 -10   35.84   14.13
  -9  -4  10   45.50   15.84
  -9  -4  10   59.89   19.05
   9   4 -10   26.49   13.69
  -9  -4   9  576.87   54.86
   9   4  -9  580.64   55.71
   9   4  -9  496.04   52.13
  -9  -4   9  546.09   52.20
  -9  -4   8  350.22   41.86
   9   4  -8  386.14   43.78
   9   4  -8  371.94   45.25
  -9  -4   8  418.51   43.77
  -9  -4   7    2.75    8.17
   9   4  -7   -2.18    7.85
   9   4  -7  -21.25   12.50
  -9  -4   6  264.56   35.70
   9   4  -6  373.55   39.56
   9   4  -6  306.11   41.28
  -9  -4   5  704.71   59.10
   9   4  -5  732.98   64.63
   9   4  -4  164.61   25.62
  -9  -4   4  152.64   27.53
   9   4  -4  156.19   29.58
   9   4  -3   41.72   14.32
  -9  -4   3   27.90   11.59
   9   4  -3    9.50   10.26
   9   4  -2  362.40   41.17
  -9  -4   2  442.29   46.47
   9   4  -2  424.17   48.40
  -9  -4   1   98.98   20.50
   9   4  -1  157.59   28.37
  -9  -4   1  176.86   29.85
   9   4  -1  164.68   30.07
   9   4   0  165.24   30.66
   9   4   0  219.22   34.08
  -9  -4   0  163.86   29.56
  -9  -4   0  254.91   34.06
  -9  -4  -1  135.22   25.65
   9   4   1  129.89   27.10
   9   4   1  117.89   25.99
   9   4   2  249.43   39.51
  -9  -4  -2  332.96   42.13
  -9  -5  12  168.59   32.11
   9   5 -11    4.31    6.88
  -9  -5  11    7.24    7.35
  -9  -5  11   10.67    9.09
   9   5 -11   10.40    8.10
  -9  -5  10   30.82   14.51
  -9  -5  10   62.38   18.86
   9   5 -10   71.17   20.39
   9   5 -10   69.19   20.52
  -9  -5   9  403.09   47.05
   9   5  -9  427.59   48.50
   9   5  -9  433.46   50.21
  -9  -5   9  452.08   48.55
  -9  -5   8   96.85   21.93
  -9  -5   8  136.42   26.80
   9   5  -8  104.09   23.25
   9   5  -8  120.50   26.51
  -9  -5   7   28.44   13.65
   9   5  -7   14.40   10.64
   9   5  -7    4.26    6.44
  -9  -5   6  609.52   56.55
   9   5  -6  700.51   64.91
  -9  -5   5 1293.81   84.29
   9   5  -5 1214.58   87.49
  -9  -5   4   18.75   11.34
   9   5  -4  100.52   25.75
   9   5  -3  274.50   35.18
  -9  -5   3  264.59   37.39
   9   5  -3  207.74   34.97
   9   5  -2  842.75   65.56
  -9  -5   2  845.99   68.70
   9   5  -2  927.20   74.95
   9   5  -1  334.78   42.14
  -9  -5   1  367.56   44.86
   9   5  -1  351.76   45.62
  -9  -5   1  328.48   38.61
   9   5   0   -0.24    9.72
  -9  -5   0   24.86   14.21
   9   5   0    6.00    7.39
   9   5   1  340.01   45.67
   9   5   1  370.80   46.37
  -9  -5  -1  388.11   45.18
  -9  -6  11  121.63   27.41
   9   6 -11  136.40   28.56
  -9  -6  10  278.06   40.25
   9   6 -10  294.22   42.46
  -9  -6  10  334.83   43.52
   9   6 -10  241.07   38.34
  -9  -6   9  171.65   30.64
  -9  -6   9  205.10   34.30
   9   6  -9  264.21   38.85
   9   6  -9  172.25   32.73
  -9  -6   8    5.26    6.13
  -9  -6   8   -9.41    9.08
   9   6  -8   10.73    9.65
   9   6  -8  -13.45   10.32
  -9  -6   7  127.88   26.43
   9   6  -7  150.91   30.50
  -9  -6   6  729.79   63.40
   9   6  -6  597.38   62.08
  -9  -6   5  222.99   34.47
   9   6  -5  195.33   35.18
  -9  -6   4   22.52   10.12
   9   6  -4   26.73   14.62
  -9  -6   3  599.71   58.74
   9   6  -3  683.98   65.99
   9   6  -2  572.78   55.02
  -9  -6   2  563.25   57.65
   9   6  -2  521.47   57.98
  -9  -6   1  242.44   34.93
   9   6  -1  248.41   37.50
  -9  -6   1  250.09   38.44
   9   6  -1  235.85   38.37
  -9  -6   0  172.48   29.94
   9   6   0  160.63   31.75
   9   6   0  160.45   32.08
  -9  -7   9   50.78   17.91
   9   7  -9   47.35   17.63
  -9  -7   7  551.01   56.28
   9   7  -7  466.54   56.40
  -9  -7   6  185.73   32.40
   9   7  -6  193.84   35.12
  -9  -7   5   60.78   18.75
   9   7  -5   65.08   21.85
   9   7  -4   58.25   19.75
   9   7  -2  195.33   33.17
  10  -8  -3  141.16   26.99
  10  -8  -2   56.17   17.65
  10  -8  -1  -21.39   11.99
  10  -7  -7  166.41   32.61
  10  -7  -6  644.97   62.69
 -10   7   6  563.51   59.88
  10  -7  -6  654.70   62.80
  10  -7  -5   59.09   21.22
 -10   7   5   46.77   18.19
 -10   7   4  338.01   45.09
  10  -7  -4  326.84   44.14
 -10   7   3  325.96   44.03
  10  -7  -3  374.46   46.69
 -10   7   2    1.31    7.10
  10  -7  -2   15.14   10.25
  10  -7  -2   -2.87    6.90
 -10   7   1  115.00   26.05
  10  -7  -1  137.71   27.40
  10  -7  -1  160.90   29.97
 -10   7   0  341.84   43.32
  10  -7   0  296.31   40.98
  10  -7   0  320.63   42.71
 -10   7  -1   51.22   16.72
  10  -7   1   30.04   11.58
  10  -7   1   64.55   19.33
  10  -7   2    7.30    8.97
 -10   6   9   53.24   18.62
  10  -6  -9   48.21   17.46
  10  -6  -8   48.87   18.64
 -10   6   8   34.96   16.44
  10  -6  -8   12.01   12.77
  10  -6  -7  427.19   50.74
 -10   6   7  408.00   49.67
  10  -6  -7  412.35   48.69
  10  -6  -6  141.83   28.79
 -10   6   6  130.27   27.85
  10  -6  -6  128.17   27.16
  10  -6  -5    3.90    6.63
 -10   6   5   17.92   11.45
  10  -6  -5   14.21   12.72
  10  -6  -4  220.26   33.22
 -10   6   4  188.30   32.76
  10  -6  -4  230.20   35.67
 -10   6   3   98.53   24.10
  10  -6  -3   30.59   13.40
  10  -6  -2   21.06   11.55
 -10   6   2   41.28   17.37
  10  -6  -2   15.74   10.26
  10  -6  -1  207.29   33.07
  10  -6  -1  323.75   41.97
 -10   6   1  249.04   36.32
 -10   6   0  487.91   51.08
  10  -6   0  459.74   50.30
  10  -6   0  413.39   48.28
 -10   6  -1   20.95   10.09
 -10   6  -1    1.43    6.16
  10  -6   1    5.51    5.83
  10  -6   1   15.74   10.47
 -10   6  -2  365.05   45.81
  10  -6   2  398.71   48.50
  10  -6   2  379.73   45.84
  10  -6   3  673.22   61.90
 -10   5  10   73.46   20.87
 -10   5  10   69.65   19.96
  10  -5 -10   61.52   19.96
 -10   5   9   32.34   14.91
  10  -5  -9   45.05   17.66
 -10   5   9   39.61   16.80
  10  -5  -9   59.70   18.12
  10  -5  -8  173.30   32.53
 -10   5   8  178.36   32.07
  10  -5  -8  176.77   31.81
  10  -5  -7    7.16    9.63
 -10   5   7    5.89    7.36
  10  -5  -7    8.87    8.43
  10  -5  -6   61.01   19.68
 -10   5   6   59.85   18.70
  10  -5  -6   58.37   17.94
  10  -5  -5   86.64   21.36
 -10   5   5   74.55   20.13
  10  -5  -5   94.50   22.99
  10  -5  -4   31.41   12.71
 -10   5   4   19.80   11.56
  10  -5  -4   12.03    9.61
  10  -5  -3   12.72   10.41
 -10   5   3   36.12   14.77
 -10   5   2   18.55   10.82
  10  -5  -2    1.69    7.38
 -10   5   1  275.62   37.14
  10  -5  -1  229.11   34.47
  10  -5  -1  244.54   36.23
  10  -5   0  114.39   25.53
  10  -5   0  124.94   26.07
 -10   5  -1   47.66   16.62
  10  -5   1   56.01   18.41
 -10   5  -1   61.76   17.45
  10  -5   1   38.66   15.21
 -10   5  -2  705.81   61.76
  10  -5   2  577.70   58.20
  10  -5   2  586.77   57.13
 -10   5  -3  331.77   43.12
 -10   4  11  216.91   36.28
 -10   4  11  176.80   32.09
 -10   4  10   -8.62    8.67
  10  -4 -10   -4.43    8.33
 -10   4  10   -7.25    8.24
  10  -4 -10   10.51    8.90
 -10   4   9  220.96   33.33
  10  -4  -9  165.75   31.43
 -10   4   9  157.31   29.66
  10  -4  -9  171.10   29.90
  10  -4  -8  161.93   30.12
 -10   4   8  166.97   30.85
  10  -4  -8  137.13   27.55
  10  -4  -7   15.36   10.40
 -10   4   7   19.35   11.90
  10  -4  -7   32.87   14.33
  10  -4  -6  127.55   25.44
 -10   4   6  163.15   29.97
  10  -4  -6  107.87   23.38
  10  -4  -5  196.68   30.58
 -10   4   5  210.33   33.66
  10  -4  -5  200.37   31.73
  10  -4  -4   66.67   16.87
 -10   4   4   72.34   19.13
  10  -4  -4   71.62   19.97
 -10   4   3  119.78   24.69
  10  -4  -3  105.22   23.74
 -10   4   2  295.08   38.39
  10  -4  -2  290.12   39.23
 -10   4   1  115.27   23.64
  10  -4  -1  157.21   28.52
 -10   4   0    5.95    6.96
  10  -4   0    5.24    7.04
 -10   4  -1  159.35   27.92
  10  -4   1  190.09   31.98
 -10   4  -1  176.40   28.06
  10  -4   1  187.63   31.67
 -10   4  -2  201.48   32.42
  10  -4   2  174.12   31.43
 -10   4  -3  122.01   25.88
  10  -4   3  143.68   28.87
 -10   3  12   66.39   20.54
 -10   3  12   66.63   19.65
 -10   3  11   42.07   15.71
 -10   3  11   42.45   15.69
  10  -3 -11   50.15   19.14
 -10   3  11   47.00   17.54
 -10   3  10  -17.58   14.06
 -10   3  10    4.07    7.34
  10  -3 -10    2.18    8.01
 -10   3  10    2.75    7.97
  10  -3 -10   -0.25    5.99
 -10   3   9  258.53   35.39
 -10   3   9  251.92   35.34
  10  -3  -9  177.25   32.75
 -10   3   9  185.28   32.04
  10  -3  -9  212.36   32.52
 -10   3   8  104.98   22.32
  10  -3  -8   73.87   20.99
 -10   3   8   55.34   17.03
  10  -3  -8   92.08   21.31
  10  -3  -7   39.30   15.21
 -10   3   7   16.84   10.38
  10  -3  -7   28.86   13.03
 -10   3   6  428.09   47.65
  10  -3  -6  367.15   41.81
  10  -3  -6  456.02   47.44
 -10   3   5  358.63   42.97
  10  -3  -5  368.04   40.32
  10  -3  -5  372.22   43.07
  10  -3  -4    7.28    6.14
 -10   3   4   17.35   12.49
  10  -3  -4    3.82    5.69
 -10   3   3  833.66   65.27
  10  -3  -3  731.70   61.86
 -10   3   2  726.74   60.03
  10  -3  -2  727.50   61.86
 -10   3   1   54.73   16.29
  10  -3  -1   72.20   19.45
 -10   3   0  119.62   23.80
  10  -3   0  147.78   28.46
 -10   3  -1  653.37   55.65
 -10   3  -1  548.06   50.04
 -10   3  -2  203.60   31.31
 -10   3  -3    4.63    5.27
 -10   3  -4   63.57   18.63
 -10   2  12   19.18   11.81
 -10   2  12   39.21   17.18
 -10   2  12   -0.99    6.54
 -10   2  11   -1.44    6.12
 -10   2  11   -3.60   12.09
  10  -2 -11  -17.60   12.17
 -10   2  11   19.62   11.88
 -10   2  10  172.26   30.47
 -10   2  10  149.07   28.06
  10  -2 -10  119.53   27.06
 -10   2  10  125.86   26.63
  10  -2 -10  143.01   25.85
 -10   2   9   73.45   18.71
  10  -2  -9  100.17   23.63
 -10   2   9   68.55   18.71
  10  -2  -9   89.69   23.07
 -10   2   9   75.01   20.86
  10  -2  -9   77.55   19.60
  10  -2  -8   35.82   14.81
 -10   2   8   32.08   14.80
  10  -2  -8   35.14   15.54
 -10   2   8   39.52   14.42
  10  -2  -8   32.57   13.04
  10  -2  -7  105.92   24.93
 -10   2   7  146.05   24.85
  10  -2  -7   80.44   20.02
 -10   2   7  165.08   29.30
  10  -2  -7  126.74   24.82
 -10   2   6  436.54   42.31
 -10   2   6  424.93   47.14
  10  -2  -6  349.61   39.98
  10  -2  -6  442.65   48.83
  10  -2  -6  411.85   44.72
  10  -2  -5  106.16   23.96
 -10   2   5   68.88   16.72
  10  -2  -5  147.14   24.43
 -10   2   5   82.54   20.86
  10  -2  -5   68.39   18.38
  10  -2  -4  129.93   27.45
 -10   2   4  192.50   26.76
 -10   2   4  166.12   28.84
  10  -2  -4  192.79   31.00
 -10   2   3  861.82   65.86
  10  -2  -3  790.16   66.30
  10  -2  -3  823.18   65.33
 -10   2   2  529.77   50.28
  10  -2  -2  386.24   45.90
  10  -2  -2  538.19   52.52
  10  -2  -1    6.68   12.96
 -10   2   1   18.33    9.65
 -10   2   0 1022.77   67.43
 -10   2   0  899.87   65.09
  10  -2   0  799.78   66.77
 -10   2  -1 1076.47   70.92
  10  -2   1  980.19   73.22
 -10   2  -2  116.62   23.59
 -10   2  -2  162.10   26.84
 -10   2  -3   96.10   21.93
 -10   2  -3  101.24   22.64
 -10   2  -4  502.18   51.26
 -10   2  -4  469.67   51.43
 -10   1  12   17.71   11.46
 -10   1  12   16.30   12.42
 -10   1  12    8.47   10.19
 -10   1  11  193.77   33.13
  10  -1 -11  255.01   35.91
 -10   1  11  307.27   41.50
  10  -1 -11  298.63   42.94
 -10   1  11  229.06   35.52
 -10   1  10  451.62   49.36
 -10   1  10  425.35   47.91
  10  -1 -10  346.98   45.37
  10  -1 -10  394.06   44.90
 -10   1  10  494.86   50.31
 -10   1   9  -14.41    9.91
  10  -1  -9    0.43    6.43
 -10   1   9   18.73   10.82
  10  -1  -9    7.83    5.95
 -10   1   9   -1.03    9.28
  10  -1  -9   -0.77    7.14
  10  -1  -8  183.30   31.26
 -10   1   8  220.81   32.11
 -10   1   8  259.89   37.24
  10  -1  -8  176.06   30.60
  10  -1  -8  215.54   31.60
  10  -1  -7  172.12   30.22
 -10   1   7  200.88   29.61
 -10   1   7  187.58   31.51
  10  -1  -7  197.82   30.81
  10  -1  -7  234.85   32.94
  10  -1  -6   49.93   16.92
 -10   1   6   50.08   15.89
 -10   1   6   69.95   19.05
  10  -1  -6   55.90   16.17
  10  -1  -6   69.98   18.68
  10  -1  -5   46.16   16.81
 -10   1   5   47.29   14.45
 -10   1   5   41.33   15.62
  10  -1  -5   41.65   12.96
  10  -1  -5   56.76   16.90
 -10   1   4  466.75   43.38
 -10   1   4  465.64   48.02
  10  -1  -4  403.48   46.72
  10  -1  -4  425.62   46.48
 -10   1   3  432.15   41.51
 -10   1   3  514.15   50.13
  10  -1  -3  585.84   56.05
  10  -1  -2  181.59   31.14
 -10   1   2  224.24   29.08
 -10   1   2  161.41   27.31
  10  -1  -1   94.51   23.05
 -10   1   1  101.85   20.49
 -10   1   1   86.07   19.80
 -10   1   0  844.36   59.54
 -10   1   0  781.68   59.90
  10  -1   0  809.93   66.02
  10  -1   1  418.03   46.79
 -10   1  -1  448.98   43.90
  10  -1   2   51.27   15.62
 -10   1  -2   13.52    9.38
 -10   1  -3  296.93   39.21
 -10   1  -4  691.32   63.11
 -10   0  13   28.93   11.35
 -10   0  12   86.10   22.36
 -10   0  12  157.93   30.61
  10   0 -12  102.94   27.38
 -10   0  12   90.86   22.86
 -10   0  11  724.68   64.32
 -10   0  11  590.99   57.69
  10   0 -11  565.73   59.86
  10   0 -11  701.97   60.81
 -10   0  11  607.74   58.82
 -10   0  10   81.01   21.48
  10   0 -10  147.39   27.03
 -10   0  10  111.54   24.49
  10   0 -10  110.86   25.43
 -10   0   9  173.65   28.43
 -10   0   9  236.24   34.17
  10   0  -9  164.38   30.43
  10   0  -9  284.41   38.27
  10   0  -9  188.17   29.39
 -10   0   8  607.15   54.17
  10   0  -8  490.60   50.11
  10   0  -8  475.80   50.41
  10   0  -8  438.69   45.55
 -10   0   7  864.80   63.76
  10   0  -7  931.96   66.93
  10   0  -7  797.44   66.17
  10   0  -6    3.36    7.94
 -10   0   6   -5.82    6.75
  10   0  -6   -0.11    5.69
 -10   0   5  367.41   39.65
  10   0  -5  415.65   47.52
 -10   0   4  969.21   64.66
  10   0  -4  693.78   62.62
  10   0  -3  104.21   23.73
 -10   0   3  114.52   21.39
  10   0  -2   10.83    9.89
 -10   0   2   31.91   11.54
 -10   0   1  440.24   43.99
 -10   0   1  503.20   48.27
  10   0  -1  509.62   52.63
 -10   0   0  398.97   42.51
 -10   0   0  452.31   44.57
  10   0   0  412.06   46.91
  10   0   1  114.55   24.76
 -10   0  -1  127.93   23.84
 -10   0  -1  121.52   23.03
 -10   0  -2   -5.89    6.51
 -10   0  -2    2.96    6.10
 -10   0  -3  249.63   36.09
 -10  -1  12  256.86   38.59
 -10  -1  12  272.34   41.02
  10   1 -12  240.83   39.58
 -10  -1  11  182.03   31.79
  10   1 -11  134.77   26.24
 -10  -1  11  134.12   27.72
  10   1 -11   97.44   24.57
 -10  -1  10    1.32    8.95
  10   1 -10   21.74   11.69
 -10  -1  10   -1.48    7.83
  10   1 -10  -14.21   10.72
 -10  -1   9  417.04   46.25
  10   1  -9  348.45   43.69
  10   1  -9  398.62   45.87
 -10  -1   9  409.72   44.11
 -10  -1   8  739.67   61.96
  10   1  -8  804.26   64.26
  10   1  -8  859.51   68.67
 -10  -1   7  444.15   45.73
  10   1  -7  399.69   43.38
  10   1  -7  433.56   48.66
  10   1  -6   61.28   19.40
 -10  -1   6   55.52   16.38
  10   1  -6   70.55   17.29
 -10  -1   5 1042.51   70.61
  10   1  -5 1012.53   76.15
 -10  -1   4  836.25   62.36
  10   1  -4  743.16   65.04
  10   1  -3   13.31   14.78
 -10  -1   3   32.30   12.52
 -10  -1   2  292.46   36.63
  10   1  -2  365.11   44.56
 -10  -1   1  723.45   59.06
  10   1  -1  675.80   61.27
  10   1   0   85.24   22.13
 -10  -1   0   43.48   15.02
  10   1   1   18.42   12.79
 -10  -1  -1   15.30    9.77
 -10  -1  -1   15.57    9.22
 -10  -1  -2  281.15   38.03
 -10  -1  -2  335.04   40.85
 -10  -1  -3  206.55   33.57
 -10  -2  12  218.45   35.65
 -10  -2  11   -2.85    6.41
  10   2 -11    8.75   11.53
 -10  -2  11    2.19    9.43
  10   2 -11   15.66   12.66
  10   2 -10  232.49   35.63
 -10  -2  10  225.69   34.65
 -10  -2  10  182.25   31.87
  10   2 -10  218.12   35.65
  10   2  -9  166.64   30.56
 -10  -2   9  191.57   32.23
  10   2  -9  152.55   29.45
 -10  -2   8  493.58   50.24
  10   2  -8  385.21   44.13
  10   2  -8  388.81   46.62
  10   2  -7   11.11   10.69
  10   2  -7   14.33   11.92
  10   2  -6  206.05   33.75
 -10  -2   6  187.72   29.99
 -10  -2   5  853.06   65.26
  10   2  -5  925.83   73.30
 -10  -2   4  346.14   40.27
  10   2  -4  313.68   42.02
  10   2  -3   -5.28   10.25
 -10  -2   3    6.46    8.37
 -10  -2   2  342.42   41.01
  10   2  -2  350.58   44.76
 -10  -2   1  661.55   57.60
  10   2  -1  505.58   53.76
  10   2   0   25.67   14.22
 -10  -2   0   55.69   17.44
  10   2   1  207.09   35.19
  10   2   1  116.37   25.77
 -10  -2  -1  151.69   28.84
 -10  -2  -1  122.15   24.01
 -10  -2  -2  348.38   44.37
 -10  -2  -2  384.69   44.82
 -10  -3  12   24.00   11.42
  10   3 -11  -16.31   10.59
 -10  -3  11   13.58   11.82
 -10  -3  11   12.13   11.73
  10   3 -11    8.74    9.08
 -10  -3  10  384.72   47.34
  10   3 -10  398.68   48.77
  10   3 -10  383.96   46.97
 -10  -3  10  446.03   48.43
 -10  -3   9  400.75   47.62
  10   3  -9  347.70   44.20
  10   3  -9  471.31   52.14
  10   3  -8   85.35   22.49
 -10  -3   8   72.01   20.97
  10   3  -8   96.30   22.40
  10   3  -7   41.29   16.56
 -10  -3   7   40.80   15.03
 -10  -3   6  411.79   45.55
  10   3  -6  376.55   47.01
  10   3  -5  232.57   37.02
 -10  -3   5  176.62   30.25
  10   3  -4   18.51    9.94
 -10  -3   4   10.42    7.77
  10   3  -3   17.62   12.22
 -10  -3   3   20.77   12.47
  10   3  -2  354.86   41.64
  10   3  -2  256.29   39.35
 -10  -3   2  295.04   39.55
  10   3  -1  277.42   40.17
  10   3  -1  250.29   36.64
 -10  -3   1  166.73   29.58
  10   3   0   88.70   22.10
  10   3   0  117.05   26.59
 -10  -3   0   85.72   22.48
 -10  -3  -1  210.03   32.98
  10   3   1  227.70   35.69
  10   3   1  280.68   40.91
 -10  -3  -1  220.35   35.68
  10   4 -11   68.45   19.83
 -10  -4  11   53.80   17.75
  10   4 -11   95.13   24.53
 -10  -4  10  405.60   49.58
  10   4 -10  451.31   52.05
  10   4 -10  456.62   52.04
 -10  -4  10  578.93   56.55
 -10  -4   9  650.17   61.78
  10   4  -9  565.93   56.60
  10   4  -9  529.96   57.14
  10   4  -8   -5.95    8.52
 -10  -4   8   17.27   11.86
  10   4  -8  -16.58   10.66
 -10  -4   7  385.06   45.71
  10   4  -7  378.73   47.68
 -10  -4   6  663.86   60.38
  10   4  -6  514.79   56.63
  10   4  -5   72.03   21.17
 -10  -4   5   81.60   20.37
  10   4  -4   38.90   16.73
 -10  -4   4   26.16   13.07
  10   4  -3   59.07   18.46
  10   4  -3   91.61   20.33
 -10  -4   3   67.02   19.54
  10   4  -2  295.56   42.28
  10   4  -2  262.75   37.22
 -10  -4   2  349.53   43.87
  10   4  -1   43.16   18.44
  10   4  -1   16.74   11.38
 -10  -4   1   30.88   15.50
  10   4   0   87.64   22.78
  10   4   0   96.40   23.19
 -10  -4  -1  112.13   24.93
  10   5 -10  593.60   60.37
 -10  -5  10  563.25   56.90
  10   5  -9  183.06   34.52
  10   5  -9  199.32   33.98
 -10  -5   8   29.22   15.52
  10   5  -8   20.03   13.26
 -10  -5   7  321.44   43.60
  10   5  -7  422.91   51.99
 -10  -5   6  433.61   49.89
  10   5  -6  455.37   54.33
 -10  -5   5   -6.03   11.47
  10   5  -5   12.69   11.99
 -10  -5   4  219.02   35.23
  10   5  -4  232.23   39.01
 -10  -5   3  616.38   60.64
  10   5  -3  553.44   60.76
  10   5  -2   63.09   21.37
  10   5  -2   20.55   12.17
  10   5  -1   96.77   24.93
  11  -6  -6  361.49   46.35
  11  -6  -5  464.37   51.52
 -11   6   3  127.28   28.09
 -11   6   2  739.67   67.30
 -11   6   1  377.46   46.75
 -11   6   0   15.41   10.28
  11  -5  -8    3.29    7.07
  11  -5  -7  216.05   36.15
  11  -5  -7  151.83   30.39
  11  -5  -6  239.31   36.88
 -11   5   6  245.96   39.25
  11  -5  -6  228.60   37.39
  11  -5  -5   58.20   18.14
 -11   5   5   76.36   22.02
  11  -5  -5   97.28   23.83
 -11   5   4   -4.80    7.58
  11  -5  -4    7.89    7.71
 -11   5   3  161.18   30.26
  11  -5  -3  149.78   30.32
 -11   5   2  612.08   59.40
  11  -5  -2  536.11   57.06
 -11   5   1  231.45   35.78
  11  -5  -1  214.25   35.53
 -11   5   0   34.48   13.77
 -11   5   0   39.38   15.22
  11  -4 -10  514.20   54.67
  11  -4  -9  182.07   32.49
  11  -4  -8  149.72   29.95
 -11   4   8  115.27   27.37
  11  -4  -8   74.58   21.49
  11  -4  -7  298.40   41.92
 -11   4   7  387.73   48.63
  11  -4  -7  326.77   43.60
  11  -4  -6  248.88   36.11
 -11   4   6  173.67   33.35
  11  -4  -6  240.03   37.21
  11  -4  -5   -6.03    7.71
 -11   4   5   11.06   10.94
  11  -4  -5   15.53   10.95
 -11   4   4  152.83   29.14
  11  -4  -4  107.59   24.84
 -11   4   3  768.30   66.60
  11  -4  -3  746.54   66.84
 -11   4   2  387.59   46.31
  11  -4  -2  382.48   47.67
 -11   4   1    3.36    6.97
  11  -4  -1   -2.29   11.02
 -11   4   0  235.96   35.46
 -11   4   0  202.33   32.59
  11  -4   0  164.02   31.33
 -11   4  -1  284.33   39.69
  11  -3 -10  493.75   52.24
  11  -3  -9    6.22    7.78
 -11   3   9    4.55    7.37
  11  -3  -9   16.27   12.50
  11  -3  -8  197.39   34.16
 -11   3   8  180.23   33.68
  11  -3  -8  169.85   30.87
 -11   3   7  813.01   70.62
  11  -3  -7  704.39   63.04
  11  -3  -7  708.13   63.67
 -11   3   6  563.31   58.12
  11  -3  -6  640.83   57.81
  11  -3  -6  688.04   62.51
 -11   3   5   83.96   22.32
  11  -3  -5   47.00   17.25
 -11   3   4  747.66   65.69
  11  -3  -4  777.39   67.41
 -11   3   3  699.51   62.73
  11  -3  -3  688.49   63.85
 -11   3   2   15.81   10.51
  11  -3  -2    0.87    9.72
 -11   3   1  272.55   37.66
  11  -3  -1  198.78   34.03
 -11   3   0  378.14   44.26
 -11   3   0  454.69   48.13
 -11   3  -1  148.94   27.73
 -11   3  -2    7.88    7.70
 -11   2  11  272.38   39.95
 -11   2  10  120.43   26.32
  11  -2 -10  100.76   26.32
 -11   2  10   89.23   23.51
 -11   2   9   32.75   13.62
  11  -2  -9   44.96   19.20
 -11   2   9   50.08   16.83
  11  -2  -9   36.06   14.85
 -11   2   8  474.53   48.50
 -11   2   8  409.91   49.72
  11  -2  -8  462.11   51.62
  11  -2  -8  489.73   54.32
  11  -2  -8  433.54   49.02
 -11   2   7  701.41   58.58
 -11   2   7  742.43   66.71
  11  -2  -7  720.89   62.44
  11  -2  -7  730.89   67.07
  11  -2  -7  706.25   62.90
  11  -2  -6   63.29   19.43
  11  -2  -6   78.78   19.82
 -11   2   6   41.40   16.15
  11  -2  -6   81.75   21.55
  11  -2  -5  225.17   36.92
 -11   2   5  219.11   35.05
  11  -2  -5  252.83   37.13
 -11   2   4  739.02   64.79
  11  -2  -4  729.77   67.08
  11  -2  -4  632.68   61.03
  11  -2  -3  235.93   37.56
 -11   2   3  295.91   39.51
  11  -2  -3  234.94   36.61
  11  -2  -2    3.18    7.58
 -11   2   2   20.43   11.35
 -11   2   1  541.79   52.77
  11  -2  -1  408.73   49.79
 -11   2   0  417.58   44.81
  11  -1 -11  398.55   47.92
  11  -1 -10   39.67   16.13
 -11   1  10   44.67   16.24
  11  -1 -10    3.91    7.26
 -11   1  10   47.14   17.39
 -11   1   9  365.42   44.13
 -11   1   9  377.10   47.34
  11  -1  -9  383.38   47.64
  11  -1  -9  313.21   42.98
  11  -1  -9  404.77   45.73
 -11   1   8  402.54   45.40
 -11   1   8  368.47   47.05
  11  -1  -8  354.59   44.45
  11  -1  -8  384.01   47.48
  11  -1  -8  381.19   45.15
  11  -1  -7  223.08   36.75
 -11   1   7  186.47   30.06
  11  -1  -7  261.24   36.58
 -11   1   7  223.36   35.49
  11  -1  -7  255.80   37.04
  11  -1  -6   69.63   21.46
 -11   1   6   92.02   21.38
 -11   1   6   79.19   21.91
  11  -1  -6   46.08   17.21
  11  -1  -5  166.93   31.73
 -11   1   5  183.52   29.55
 -11   1   5  173.96   30.76
 -11   1   4  436.47   44.52
 -11   1   4  435.61   49.65
  11  -1  -4  387.71   48.58
  11  -1  -3   88.09   23.65
 -11   1   3   86.47   21.82
  11  -1  -2   -0.70    7.46
 -11   1   2   23.69   11.85
  11  -1  -1  293.87   41.73
 -11   1   1  299.46   39.19
  11  -1   0  125.60   26.84
  11  -1   1   10.04    7.86
  11   0 -11   43.25   14.52
  11   0 -10  213.83   35.17
 -11   0  10  180.00   32.42
 -11   0  10  240.52   38.18
  11   0 -10  198.44   35.40
 -11   0   9  657.74   60.47
  11   0  -9  543.15   57.28
  11   0  -9  753.64   66.87
 -11   0   8  406.87   46.40
  11   0  -8  351.87   43.67
  11   0  -8  463.17   52.65
  11   0  -7   14.99   13.65
 -11   0   7   19.79   11.43
 -11   0   6  305.16   38.89
  11   0  -6  353.17   46.16
 -11   0   5  314.78   38.81
  11   0  -5  360.47   46.64
  11   0  -4   64.07   21.36
 -11   0   4   68.04   18.05
  11   0  -3   16.07   12.48
 -11   0   3    2.46    6.10
 -11   0   3   -1.37    7.69
  11   0  -2  160.36   31.51
 -11   0   2  170.83   28.88
 -11   0   2  211.34   33.10
  11   0  -1   67.53   20.63
 -11   0   1  137.26   25.93
 -11   0   1   98.72   22.25
  11   0   0   -2.96    7.83
  11   0   1   11.24   11.56
  11   1 -11   11.46    9.30
  11   1 -10  101.51   24.94
 -11  -1  10  150.74   29.50
  11   1 -10  126.11   28.86
 -11  -1   9  299.05   40.80
  11   1  -9  324.53   43.55
  11   1  -9  349.66   46.02
 -11  -1   8  355.01   44.24
  11   1  -8  338.83   42.66
  11   1  -8  324.11   44.19
  11   1  -7  159.26   31.14
 -11  -1   7  300.06   39.81
 -11  -1   6  399.12   45.73
  11   1  -6  555.39   58.67
 -11  -1   5  401.37   45.74
  11   1  -5  415.13   50.59
  11   1  -4    7.79   10.30
 -11  -1   4   -0.04    8.43
  11   1  -3  168.71   32.36
 -11  -1   3  134.16   26.12
  11   1  -2  134.96   29.10
 -11  -1   2  185.00   30.68
  11   1  -1   -9.31   10.38
 -11  -1   1   19.37   11.01
  11   1   0   81.87   22.91
 -11  -1   0   46.27   17.05
  11   1   1   88.81   23.42
 -11  -1  -1   99.97   23.53
  11   2 -10  261.17   39.61
  11   2 -10  171.46   32.57
  11   2  -9  298.40   43.05
 -11  -2   9  342.00   44.51
  11   2  -9  346.97   44.62
  11   2  -8   20.69   14.46
 -11  -2   8   29.23   13.21
  11   2  -7  112.21   27.50
 -11  -2   7  105.51   24.49
  11   2  -6  146.59   31.04
 -11  -2   6  146.33   28.57
  11   2  -5   98.45   25.26
 -11  -2   5   62.82   18.61
  11   2  -4   63.68   20.27
 -11  -2   4   24.92   11.99
 -11  -2   3  312.34   41.35
  11   2  -3  361.74   47.84
  11   2  -2  167.20   32.42
 -11  -2   2  168.40   30.52
  11   2  -1   35.58   15.88
 -11  -2   1   73.57   20.39
  11   3 -10  251.13   39.40
  11   3  -9   82.72   22.44
  11   3  -8   19.99   12.59
 -11  -3   8   78.18   21.86
  11   3  -7   56.89   19.22
 -11  -3   7   53.90   17.98
  11   3  -6   23.59   14.67
 -11  -3   6   40.06   15.30
  11   3  -5    7.79   13.06
 -11  -3   5    2.95   10.62
  11   3  -4   23.37   12.32
 -11  -3   4   32.34   13.91
  11   3  -3   76.13   21.80
 -11  -3   3   82.20   21.43
  12  -4  -7  225.63   36.72
  12  -3  -8  487.60   55.39
  12  -2  -8  206.46   35.51
 -12   2   3  134.76   28.76
 -12   2   2   46.37   17.03
  12  -1  -9  116.97   26.19
 -12   1   8   22.37   11.76
 -12   1   7   67.56   19.11
 -12   1   3   35.68   15.39
 -12   1   2  141.47   28.80
 -12   0   8   18.98   13.53
 -12   0   7  110.93   24.89
 -12   0   6    5.40    7.74
 -12   0   5    9.19    9.63
 -12   0   4  133.65   26.76
 -12  -1   6  -13.74   10.24
 -12  -1   5  142.54   28.66
 -12  -1   4  307.72   42.06
   0   0   0    0.00    0.00


TITL LBX-078abs in P-1
REM P-1 (#2 in standard setting)
CELL 0.71073   8.262925   8.750263  10.577678  99.2371 109.3384  96.1512
ZERR    1.00   0.000311   0.000346   0.000343   0.0031   0.0033   0.0032
LATT  1
SFAC C H Cl Rh
UNIT 28.00 42.00 4.00 2.00
TREF
HKLF 4
END
_computing_structure_solution     'SHELXT 2014/5 (Sheldrick, 2014)'
;
_shelx_hkl_checksum              53306
_shelx_shelxl_version_number     2014/7
_olex2_submission_special_instructions 'No special instructions were received'
_oxdiff_exptl_absorpt_empirical_details
;
Empirical correction (ABSPACK) includes:
- Absorption correction using spherical harmonics
- Frame scaling
;
_oxdiff_exptl_absorpt_empirical_full_max 1.068
_oxdiff_exptl_absorpt_empirical_full_min 0.935
loop_
_space_group_symop_operation_xyz
'x, y, z'
'-x, -y, -z'
loop_
_atom_site_label
_atom_site_type_symbol
_atom_site_fract_x
_atom_site_fract_y
_atom_site_fract_z
_atom_site_U_iso_or_equiv
_atom_site_adp_type
_atom_site_occupancy
_atom_site_site_symmetry_order
_atom_site_calc_flag
_atom_site_refinement_flags_posn
Rh1 Rh 0.79373(2) 0.41188(2) 0.85580(2) 0.00884(5) Uani 1 1 d .
Cl1 Cl 0.74252(7) 0.66406(6) 0.80290(6) 0.01836(11) Uani 1 1 d .
Cl2 Cl 1.10378(7) 0.48325(6) 0.89348(5) 0.01315(10) Uani 1 1 d .
C1 C 0.7839(3) 0.1726(2) 0.7597(2) 0.0110(4) Uani 1 1 d .
C2 C 0.7287(3) 0.1739(2) 0.8740(2) 0.0107(4) Uani 1 1 d .
C3 C 0.5772(3) 0.2502(3) 0.8503(2) 0.0123(4) Uani 1 1 d .
C4 C 0.5382(3) 0.2937(3) 0.7200(2) 0.0123(4) Uani 1 1 d .
C5 C 0.6702(3) 0.2526(3) 0.6646(2) 0.0123(4) Uani 1 1 d .
C6 C 0.9324(3) 0.0964(3) 0.7453(2) 0.0169(4) Uani 1 1 d .
H6A H 0.9625 0.1271 0.6696 0.025 Uiso 1 1 calc GR
H6B H 0.8986 -0.0181 0.7263 0.025 Uiso 1 1 calc GR
H6C H 1.0334 0.1304 0.8305 0.025 Uiso 1 1 calc GR
C7 C 0.8097(3) 0.1020(3) 0.9940(2) 0.0154(4) Uani 1 1 d .
H7A H 0.9360 0.1374 1.0301 0.023 Uiso 1 1 calc GR
H7B H 0.7840 -0.0128 0.9650 0.023 Uiso 1 1 calc GR
H7C H 0.7620 0.1343 1.0656 0.023 Uiso 1 1 calc GR
C8 C 0.4779(3) 0.2728(3) 0.9456(2) 0.0171(4) Uani 1 1 d .
H8A H 0.5594 0.3168 1.0390 0.026 Uiso 1 1 calc GR
H8B H 0.4128 0.1712 0.9431 0.026 Uiso 1 1 calc GR
H8C H 0.3966 0.3450 0.9169 0.026 Uiso 1 1 calc GR
C9 C 0.3868(3) 0.3679(3) 0.6518(3) 0.0194(5) Uani 1 1 d .
H9A H 0.3264 0.3964 0.7155 0.029 Uiso 1 1 calc GR
H9B H 0.3063 0.2933 0.5701 0.029 Uiso 1 1 calc GR
H9C H 0.4283 0.4625 0.6252 0.029 Uiso 1 1 calc GR
C10 C 0.6730(3) 0.2729(3) 0.5265(2) 0.0175(4) Uani 1 1 d .
H10 H 0.5880 0.3434 0.4925 0.021 Uiso 1 1 calc R
C11 C 0.8559(3) 0.3467(3) 0.5193(2) 0.0178(4) Uani 1 1 d .
H11A H 0.8522 0.4531 0.4988 0.021 Uiso 1 1 calc R
H11B H 0.9521 0.3538 0.6070 0.021 Uiso 1 1 calc R
C12 C 0.8795(4) 0.2335(4) 0.4036(3) 0.0292(6) Uani 1 1 d .
H12A H 0.9604 0.1627 0.4414 0.035 Uiso 1 1 calc R
H12B H 0.9278 0.2924 0.3479 0.035 Uiso 1 1 calc R
C13 C 0.6987(4) 0.1382(4) 0.3156(3) 0.0327(7) Uani 1 1 d .
H13A H 0.6321 0.1970 0.2492 0.039 Uiso 1 1 calc R
H13B H 0.7079 0.0360 0.2650 0.039 Uiso 1 1 calc R
C14 C 0.6137(4) 0.1152(3) 0.4199(3) 0.0263(6) Uani 1 1 d .
H14A H 0.6529 0.0275 0.4640 0.032 Uiso 1 1 calc R
H14B H 0.4853 0.0923 0.3758 0.032 Uiso 1 1 calc R
loop_
_atom_site_aniso_label
_atom_site_aniso_U_11
_atom_site_aniso_U_22
_atom_site_aniso_U_33
_atom_site_aniso_U_23
_atom_site_aniso_U_13
_atom_site_aniso_U_12
Rh1 0.00798(8) 0.00876(8) 0.00926(8) 0.00069(5) 0.00285(6) 0.00173(5)
Cl1 0.0176(3) 0.0109(2) 0.0243(3) 0.0044(2) 0.0039(2) 0.00302(19)
Cl2 0.0097(2) 0.0171(2) 0.0113(2) -0.00186(18) 0.00472(18) 0.00062(18)
C1 0.0123(9) 0.0088(9) 0.0109(9) 0.0002(7) 0.0033(8) 0.0024(7)
C2 0.0107(9) 0.0095(9) 0.0097(9) 0.0007(7) 0.0019(7) 0.0004(7)
C3 0.0093(9) 0.0106(9) 0.0155(10) 0.0006(8) 0.0043(8) -0.0006(7)
C4 0.0091(9) 0.0106(9) 0.0143(10) 0.0017(8) 0.0013(8) -0.0005(7)
C5 0.0128(10) 0.0106(9) 0.0098(9) 0.0002(7) 0.0005(8) -0.0001(8)
C6 0.0206(11) 0.0170(11) 0.0168(10) 0.0031(8) 0.0100(9) 0.0089(9)
C7 0.0187(11) 0.0143(10) 0.0162(10) 0.0075(8) 0.0077(9) 0.0039(8)
C8 0.0132(10) 0.0195(11) 0.0201(11) 0.0023(9) 0.0090(9) 0.0025(8)
C9 0.0135(11) 0.0208(12) 0.0213(11) 0.0062(9) 0.0013(9) 0.0049(9)
C10 0.0182(11) 0.0198(11) 0.0127(10) 0.0038(8) 0.0034(9) 0.0011(9)
C11 0.0214(12) 0.0164(11) 0.0108(10) -0.0004(8) 0.0001(9) 0.0060(9)
C12 0.0322(15) 0.0304(15) 0.0249(13) -0.0028(11) 0.0170(12) -0.0047(12)
C13 0.0325(15) 0.0487(19) 0.0092(10) -0.0081(11) 0.0106(10) -0.0145(13)
C14 0.0331(15) 0.0259(14) 0.0148(11) -0.0016(10) 0.0092(10) -0.0103(11)
loop_
_atom_type_symbol
_atom_type_description
_atom_type_scat_dispersion_real
_atom_type_scat_dispersion_imag
_atom_type_scat_source
C C 0.0033 0.0016 'International Tables Vol C Tables 4.2.6.8 and 6.1.1.4'
H H 0.0000 0.0000 'International Tables Vol C Tables 4.2.6.8 and 6.1.1.4'
Cl Cl 0.1484 0.1585 'International Tables Vol C Tables 4.2.6.8 and 6.1.1.4'
Rh Rh -1.1178 0.9187 'International Tables Vol C Tables 4.2.6.8 and 6.1.1.4'
loop_
_exptl_crystal_face_index_h
_exptl_crystal_face_index_k
_exptl_crystal_face_index_l
_exptl_crystal_face_perp_dist
0 -1 0 0.1000
5 1 0 0.0892
-1 0 0 0.0793
0 1 0 0.1184
0 -1 5 0.0441
-5 -1 5 0.0556
5 0 -3 0.0959
1 1 -5 0.0590
4 5 -5 0.1015
0 -1 1 0.0843
1 0 -5 0.0572
1 0 5 0.0441
-1 0 1 0.0568
1 -2 -5 0.0740
-5 2 5 0.0797
0 1 5 0.0539
3 1 5 0.0617
0 1 1 0.0835
-3 5 -1 0.1406
5 2 -5 0.0743
loop_
_geom_angle_atom_site_label_1
_geom_angle_atom_site_label_2
_geom_angle_atom_site_label_3
_geom_angle
_geom_angle_site_symmetry_3
Cl1 Rh1 Cl2 90.59(2) .
Cl1 Rh1 Cl2 92.92(2) 2_767
Cl2 Rh1 Cl2 82.400(18) 2_767
C1 Rh1 Cl1 141.75(6) .
C1 Rh1 Cl2 125.28(6) 2_767
C1 Rh1 Cl2 92.51(6) .
C2 Rh1 Cl1 157.16(6) .
C2 Rh1 Cl2 111.96(6) .
C2 Rh1 Cl2 93.62(6) 2_767
C2 Rh1 C1 38.67(8) .
C2 Rh1 C4 65.62(8) .
C3 Rh1 Cl1 118.03(6) .
C3 Rh1 Cl2 95.02(6) 2_767
C3 Rh1 Cl2 151.38(6) .
C3 Rh1 C1 65.68(8) .
C3 Rh1 C2 39.53(8) .
C3 Rh1 C4 38.99(8) .
C4 Rh1 Cl1 93.41(6) .
C4 Rh1 Cl2 128.65(6) 2_767
C4 Rh1 Cl2 148.33(6) .
C4 Rh1 C1 65.66(8) .
C5 Rh1 Cl1 103.76(6) .
C5 Rh1 Cl2 159.39(6) 2_767
C5 Rh1 Cl2 109.05(6) .
C5 Rh1 C1 39.85(8) .
C5 Rh1 C2 66.40(8) .
C5 Rh1 C3 66.58(8) .
C5 Rh1 C4 39.65(8) .
Rh1 Cl2 Rh1 97.600(18) 2_767
C2 C1 Rh1 70.39(12) .
C2 C1 C5 108.36(18) .
C2 C1 C6 123.28(19) .
C5 C1 Rh1 68.76(12) .
C5 C1 C6 128.35(19) .
C6 C1 Rh1 127.59(16) .
C1 C2 Rh1 70.93(12) .
C1 C2 C3 108.16(18) .
C1 C2 C7 125.36(19) .
C3 C2 Rh1 69.79(12) .
C3 C2 C7 126.43(19) .
C7 C2 Rh1 127.00(15) .
C2 C3 Rh1 70.68(12) .
C2 C3 C8 124.8(2) .
C4 C3 Rh1 71.10(12) .
C4 C3 C2 108.00(18) .
C4 C3 C8 127.1(2) .
C8 C3 Rh1 125.41(16) .
C3 C4 Rh1 69.91(12) .
C3 C4 C5 108.39(19) .
C3 C4 C9 125.9(2) .
C5 C4 Rh1 68.97(12) .
C5 C4 C9 125.7(2) .
C9 C4 Rh1 127.20(16) .
C1 C5 Rh1 71.39(12) .
C1 C5 C10 127.4(2) .
C4 C5 Rh1 71.38(12) .
C4 C5 C1 106.94(18) .
C4 C5 C10 125.3(2) .
C10 C5 Rh1 127.82(16) .
C1 C6 H6A 109.5 .
C1 C6 H6B 109.5 .
C1 C6 H6C 109.5 .
H6A C6 H6B 109.5 .
H6A C6 H6C 109.5 .
H6B C6 H6C 109.5 .
C2 C7 H7A 109.5 .
C2 C7 H7B 109.5 .
C2 C7 H7C 109.5 .
H7A C7 H7B 109.5 .
H7A C7 H7C 109.5 .
H7B C7 H7C 109.5 .
C3 C8 H8A 109.5 .
C3 C8 H8B 109.5 .
C3 C8 H8C 109.5 .
H8A C8 H8B 109.5 .
H8A C8 H8C 109.5 .
H8B C8 H8C 109.5 .
C4 C9 H9A 109.5 .
C4 C9 H9B 109.5 .
C4 C9 H9C 109.5 .
H9A C9 H9B 109.5 .
H9A C9 H9C 109.5 .
H9B C9 H9C 109.5 .
C5 C10 H10 107.3 .
C5 C10 C11 117.41(19) .
C5 C10 C14 112.2(2) .
C11 C10 H10 107.3 .
C14 C10 H10 107.3 .
C14 C10 C11 104.76(19) .
C10 C11 H11A 110.8 .
C10 C11 H11B 110.8 .
H11A C11 H11B 108.9 .
C12 C11 C10 104.80(19) .
C12 C11 H11A 110.8 .
C12 C11 H11B 110.8 .
C11 C12 H12A 110.4 .
C11 C12 H12B 110.4 .
C11 C12 C13 106.7(2) .
H12A C12 H12B 108.6 .
C13 C12 H12A 110.4 .
C13 C12 H12B 110.4 .
C12 C13 H13A 111.1 .
C12 C13 H13B 111.1 .
H13A C13 H13B 109.0 .
C14 C13 C12 103.4(2) .
C14 C13 H13A 111.1 .
C14 C13 H13B 111.1 .
C10 C14 H14A 110.7 .
C10 C14 H14B 110.7 .
C13 C14 C10 105.1(2) .
C13 C14 H14A 110.7 .
C13 C14 H14B 110.7 .
H14A C14 H14B 108.8 .
loop_
_geom_bond_atom_site_label_1
_geom_bond_atom_site_label_2
_geom_bond_distance
_geom_bond_site_symmetry_2
Rh1 Cl1 2.4085(6) .
Rh1 Cl2 2.4813(5) 2_767
Rh1 Cl2 2.4522(5) .
Rh1 C1 2.157(2) .
Rh1 C2 2.149(2) .
Rh1 C3 2.138(2) .
Rh1 C4 2.153(2) .
Rh1 C5 2.121(2) .
Cl2 Rh1 2.4813(5) 2_767
C1 C2 1.426(3) .
C1 C5 1.458(3) .
C1 C6 1.497(3) .
C2 C3 1.450(3) .
C2 C7 1.496(3) .
C3 C4 1.432(3) .
C3 C8 1.498(3) .
C4 C5 1.450(3) .
C4 C9 1.495(3) .
C5 C10 1.506(3) .
C6 H6A 0.9800 .
C6 H6B 0.9800 .
C6 H6C 0.9800 .
C7 H7A 0.9800 .
C7 H7B 0.9800 .
C7 H7C 0.9800 .
C8 H8A 0.9800 .
C8 H8B 0.9800 .
C8 H8C 0.9800 .
C9 H9A 0.9800 .
C9 H9B 0.9800 .
C9 H9C 0.9800 .
C10 H10 1.0000 .
C10 C11 1.610(3) .
C10 C14 1.551(4) .
C11 H11A 0.9900 .
C11 H11B 0.9900 .
C11 C12 1.526(3) .
C12 H12A 0.9900 .
C12 H12B 0.9900 .
C12 C13 1.535(4) .
C13 H13A 0.9900 .
C13 H13B 0.9900 .
C13 C14 1.518(4) .
C14 H14A 0.9900 .
C14 H14B 0.9900 .
loop_
_geom_torsion_atom_site_label_1
_geom_torsion_atom_site_label_2
_geom_torsion_atom_site_label_3
_geom_torsion_atom_site_label_4
_geom_torsion
Rh1 C1 C2 C3 60.13(15)
Rh1 C1 C2 C7 -122.4(2)
Rh1 C1 C5 C4 -62.95(14)
Rh1 C1 C5 C10 123.8(2)
Rh1 C2 C3 C4 61.65(15)
Rh1 C2 C3 C8 -120.3(2)
Rh1 C3 C4 C5 58.39(15)
Rh1 C3 C4 C9 -122.0(2)
Rh1 C4 C5 C1 62.96(14)
Rh1 C4 C5 C10 -123.7(2)
Rh1 C5 C10 C11 42.1(3)
Rh1 C5 C10 C14 163.60(18)
C1 C2 C3 Rh1 -60.85(15)
C1 C2 C3 C4 0.8(2)
C1 C2 C3 C8 178.9(2)
C1 C5 C10 C11 -52.8(3)
C1 C5 C10 C14 68.7(3)
C2 C1 C5 Rh1 59.44(15)
C2 C1 C5 C4 -3.5(2)
C2 C1 C5 C10 -176.7(2)
C2 C3 C4 Rh1 -61.38(15)
C2 C3 C4 C5 -3.0(2)
C2 C3 C4 C9 176.6(2)
C3 C4 C5 Rh1 -58.96(15)
C3 C4 C5 C1 4.0(2)
C3 C4 C5 C10 177.4(2)
C4 C5 C10 C11 135.2(2)
C4 C5 C10 C14 -103.3(3)
C5 C1 C2 Rh1 -58.43(14)
C5 C1 C2 C3 1.7(2)
C5 C1 C2 C7 179.2(2)
C5 C10 C11 C12 129.3(2)
C5 C10 C14 C13 -154.9(2)
C6 C1 C2 Rh1 122.7(2)
C6 C1 C2 C3 -177.1(2)
C6 C1 C2 C7 0.4(3)
C6 C1 C5 Rh1 -121.8(2)
C6 C1 C5 C4 175.2(2)
C6 C1 C5 C10 2.0(4)
C7 C2 C3 Rh1 121.7(2)
C7 C2 C3 C4 -176.7(2)
C7 C2 C3 C8 1.4(3)
C8 C3 C4 Rh1 120.6(2)
C8 C3 C4 C5 179.0(2)
C8 C3 C4 C9 -1.4(4)
C9 C4 C5 Rh1 121.4(2)
C9 C4 C5 C1 -175.6(2)
C9 C4 C5 C10 -2.2(4)
C10 C11 C12 C13 19.7(3)
C11 C10 C14 C13 -26.4(3)
C11 C12 C13 C14 -36.6(3)
C12 C13 C14 C10 38.7(3)
C14 C10 C11 C12 4.0(3)
loop_
_exptl_oxdiff_crystal_face_indexfrac_h
_exptl_oxdiff_crystal_face_indexfrac_k
_exptl_oxdiff_crystal_face_indexfrac_l
_exptl_oxdiff_crystal_face_x
_exptl_oxdiff_crystal_face_y
_exptl_oxdiff_crystal_face_z
-0.0011 -0.9998 0.0000 0.0206 0.0803 -0.0087
5.0021 0.9966 0.0016 -0.0500 -0.1059 0.4689
-1.0002 0.0007 -0.0003 0.0059 0.0051 -0.0920
0.0011 0.9998 -0.0000 -0.0206 -0.0803 0.0087
0.0014 -1.0029 5.0002 0.3242 -0.0609 0.1325
-4.9996 -0.9996 4.9986 0.3536 -0.0353 -0.3276
4.9995 -0.0014 -2.9986 -0.2116 0.0591 0.3755
0.9988 1.0022 -4.9999 -0.3300 0.0558 -0.0405
4.0040 4.9996 -4.9990 -0.4300 -0.2809 0.2703
-0.0006 -1.0004 1.0000 0.0813 0.0521 0.0196
0.9977 0.0024 -4.9999 -0.3095 0.1361 -0.0492
1.0027 -0.0037 5.0005 0.2977 -0.1464 0.2333
-0.9997 0.0000 0.9997 0.0666 -0.0231 -0.0638
0.9954 -1.9972 -4.9999 -0.2683 0.2968 -0.0665
-4.9962 1.9998 4.9986 0.2918 -0.2763 -0.3016
0.0037 0.9967 5.0002 0.2830 -0.2216 0.1499
3.0042 0.9948 5.0011 0.2653 -0.2369 0.4260
0.0016 0.9992 1.0000 0.0401 -0.1086 0.0369
-2.9953 5.0017 -1.0010 -0.1460 -0.3580 -0.2610
5.0007 1.9995 -4.9986 -0.3742 -0.0450 0.3363
