#------------------------------------------------------------------------------
#$Date: 2019-11-26 17:13:14 +0200 (Tue, 26 Nov 2019) $
#$Revision: 243700 $
#$URL: file:///home/coder/svn-repositories/cod/cif/4/08/96/4089610.cif $
#------------------------------------------------------------------------------
#
# This file is available in the Crystallography Open Database (COD),
# http://www.crystallography.net/
#
# All data on this site have been placed in the public domain by the
# contributors.
#
data_4089610
loop_
_publ_author_name
'Landman, Maril\'e'
'Pretorius, Ren\'e'
'Buitendach, Blenerhassitt E.'
'van Rooyen, Petrus H.'
'Conradie, Jeanet'
_publ_section_title
;
 Synthesis, Structure, and Electrochemistry of Fischer Alkoxy- and
 Aminocarbene Complexes of Tungsten: The Use of DFT To Predict and
 Understand Oxidation and Reduction Potentials
;
_journal_issue                   19
_journal_name_full               Organometallics
_journal_page_first              5491
_journal_paper_doi               10.1021/om400778z
_journal_volume                  32
_journal_year                    2013
_chemical_formula_moiety         'C16 H15 N O6 W'
_chemical_formula_sum            'C16 H15 N O6 W'
_chemical_formula_weight         501.14
_chemical_name_systematic
; 
 Pentacarbonyl-cyclohexylamino-furan-2-yl-methyledene-tungsten  
;
_space_group_crystal_system      triclinic
_space_group_IT_number           2
_space_group_name_Hall           '-P 1'
_space_group_name_H-M_alt        'P -1'
_atom_sites_solution_hydrogens   mixed
_atom_sites_solution_primary     direct
_atom_sites_solution_secondary   difmap
_audit_creation_method           SHELXL-2013
_cell_angle_alpha                74.975(5)
_cell_angle_beta                 86.258(5)
_cell_angle_gamma                69.921(5)
_cell_formula_units_Z            2
_cell_length_a                   6.643(5)
_cell_length_b                   9.372(5)
_cell_length_c                   15.311(5)
_cell_measurement_reflns_used    7808
_cell_measurement_temperature    293(2)
_cell_measurement_theta_max      28.34
_cell_measurement_theta_min      2.39
_cell_volume                     864.4(8)
_computing_cell_refinement       'Bruker SAINT'
_computing_data_collection       'Bruker APEX2'
_computing_data_reduction        'Bruker SAINT'
_computing_molecular_graphics
; ORTEP-3 for Windows (Farrugia, 1997), POV-Ray (Cason, 2004),
MERCURY (Macrae, et al., 2008)
;
_computing_publication_material  'SHELXL-2013 (Sheldrick, 2013)'
_computing_structure_refinement  'SHELXL-2013 (Sheldrick, 2013)'
_computing_structure_solution    'SHELXL-2013 (Sheldrick, 2013)'
_diffrn_ambient_temperature      293(2)
_diffrn_measured_fraction_theta_full 1.000
_diffrn_measured_fraction_theta_max 1.000
_diffrn_measurement_device_type  'Bruker APEX-II CCD'
_diffrn_measurement_method       '\f and \w scans'
_diffrn_radiation_monochromator  graphite
_diffrn_radiation_source         'fine-focus sealed tube'
_diffrn_radiation_type           MoK\a
_diffrn_radiation_wavelength     0.71069
_diffrn_reflns_av_R_equivalents  0.1134
_diffrn_reflns_av_unetI/netI     0.0520
_diffrn_reflns_Laue_measured_fraction_full 1.000
_diffrn_reflns_Laue_measured_fraction_max 1.000
_diffrn_reflns_limit_h_max       8
_diffrn_reflns_limit_h_min       -8
_diffrn_reflns_limit_k_max       12
_diffrn_reflns_limit_k_min       -12
_diffrn_reflns_limit_l_max       20
_diffrn_reflns_limit_l_min       -20
_diffrn_reflns_number            21842
_diffrn_reflns_point_group_measured_fraction_full 1.000
_diffrn_reflns_point_group_measured_fraction_max 1.000
_diffrn_reflns_theta_full        25.240
_diffrn_reflns_theta_max         27.999
_diffrn_reflns_theta_min         1.377
_exptl_absorpt_coefficient_mu    6.712
_exptl_absorpt_correction_T_max  0.404
_exptl_absorpt_correction_T_min  0.132
_exptl_absorpt_correction_type   analytical
_exptl_absorpt_process_details   'Bruker SAINT'
_exptl_crystal_colour            yellow
_exptl_crystal_density_diffrn    1.925
_exptl_crystal_description       block
_exptl_crystal_F_000             480
_exptl_crystal_size_max          0.314
_exptl_crystal_size_mid          0.264
_exptl_crystal_size_min          0.133
_refine_diff_density_max         2.858
_refine_diff_density_min         -2.175
_refine_diff_density_rms         0.206
_refine_ls_extinction_method     none
_refine_ls_goodness_of_fit_ref   1.109
_refine_ls_hydrogen_treatment    mixed
_refine_ls_matrix_type           full
_refine_ls_number_parameters     220
_refine_ls_number_reflns         4192
_refine_ls_number_restraints     0
_refine_ls_restrained_S_all      1.109
_refine_ls_R_factor_all          0.0313
_refine_ls_R_factor_gt           0.0299
_refine_ls_shift/su_max          0.001
_refine_ls_shift/su_mean         0.000
_refine_ls_structure_factor_coef Fsqd
_refine_ls_weighting_details
; 
 w=1/[\s^2^(Fo^2^)+(0.0375P)^2^] 
 where P=(Fo^2^+2Fc^2^)/3 
;
_refine_ls_weighting_scheme      calc
_refine_ls_wR_factor_gt          0.0707
_refine_ls_wR_factor_ref         0.0715
_reflns_Friedel_coverage         0.000
_reflns_number_gt                3981
_reflns_number_total             4192
_reflns_threshold_expression     'I > 2\s(I)'
_iucr_refine_instructions_details
; 
TITL 12m_up1_0s in P-1 2013-07-17 16:12 
CELL  0.71069   6.6430   9.3720  15.3110   74.975   86.258   69.921 
ZERR     2.00   0.0050   0.0050   0.0050    0.005    0.005    0.005 
LATT   1 
SFAC  C    H    N    O    W 
UNIT  32   30   2    12    2 
EQIV $1 x-1, y+1, z 
MERG   2 
OMIT     -2 56 
ACTA 
CONF 
HTAB  N1 O6 
HTAB  N1 O1_$1 
BOND $H 
FMAP   2 
PLAN   5 
L.S.   10 
WGHT    0.037500 
FVAR       0.13997 
W1    5    0.435313    0.195397    0.278389    11.00000    0.01564    0.01649 = 
         0.02433   -0.00768   -0.00146   -0.00191 
C1    1    0.659098   -0.002330    0.262356    11.00000    0.02445    0.02654 = 
         0.04482   -0.01344   -0.00588   -0.00172 
O1    4    0.789535   -0.115820    0.253036    11.00000    0.03646    0.03111 = 
         0.07534   -0.02786   -0.00013    0.00590 
C2    1    0.658991    0.301233    0.234119    11.00000    0.02233    0.02365 = 
         0.02970   -0.00360   -0.00181   -0.00630 
O2    4    0.793291    0.352310    0.208611    11.00000    0.02288    0.04722 = 
         0.05228   -0.00647   -0.00157   -0.01343 
C3    1    0.543312    0.151507    0.407045    11.00000    0.02832    0.02076 = 
         0.03249   -0.00205   -0.00353   -0.01242 
O3    4    0.606725    0.126788    0.479047    11.00000    0.06334    0.04671 = 
         0.03260    0.00298   -0.01742   -0.03411 
C4    1    0.232394    0.069365    0.319499    11.00000    0.03184    0.02531 = 
         0.02945   -0.00622   -0.00528   -0.00753 
O4    4    0.126849   -0.005506    0.339295    11.00000    0.04838    0.03899 = 
         0.04742   -0.00638   -0.00405   -0.02825 
C5    1    0.310654    0.252784    0.151017    11.00000    0.02140    0.02935 = 
         0.02946   -0.01229    0.00397   -0.00583 
O5    4    0.234354    0.285538    0.079849    11.00000    0.03944    0.06594 = 
         0.02930   -0.01591   -0.00604   -0.01390 
C6    1    0.174884    0.412736    0.298281    11.00000    0.01773    0.01720 = 
         0.02284   -0.00685   -0.00154   -0.00310 
N1    3    0.128609    0.557068    0.246581    11.00000    0.01768    0.01747 = 
         0.02981   -0.00566    0.00456   -0.00353 
H1    2    0.019630    0.627892    0.256219    11.00000   -1.20000 
C7    1    0.028219    0.403913    0.373755    11.00000    0.02023    0.02128 = 
         0.02793   -0.01144    0.00285   -0.00604 
C8    1    0.026414    0.292602    0.449852    11.00000    0.03296    0.02653 = 
         0.03087   -0.01162    0.00728   -0.01476 
AFIX  43 
H8    2    0.123963    0.190870    0.466257    11.00000   -1.20000 
AFIX   0 
C9    1   -0.152677    0.359950    0.500340    11.00000    0.03857    0.03847 = 
         0.03422   -0.01531    0.01506   -0.02302 
AFIX  43 
H9    2   -0.194458    0.311174    0.555926    11.00000   -1.20000 
AFIX   0 
C10   1   -0.248718    0.507064    0.452012    11.00000    0.02941    0.03984 = 
         0.04224   -0.02233    0.01897   -0.01517 
AFIX  43 
H10   2   -0.371416    0.577669    0.469325    11.00000   -1.20000 
AFIX   0 
O6    4   -0.143684    0.540268    0.374103    11.00000    0.02299    0.02713 = 
         0.03727   -0.01345    0.01140   -0.00537 
C11   1    0.243523    0.612952    0.168348    11.00000    0.01754    0.02144 = 
         0.02470   -0.00532    0.00333   -0.00564 
AFIX  13 
H11   2    0.356005    0.522281    0.154649    11.00000   -1.20000 
AFIX   0 
C12   1    0.348769    0.720298    0.191086    11.00000    0.02851    0.03440 = 
         0.02933   -0.00869    0.00211   -0.01500 
AFIX  23 
H12A  2    0.449862    0.662302    0.241460    11.00000   -1.20000 
H12B  2    0.240330    0.806913    0.208976    11.00000   -1.20000 
AFIX   0 
C13   1    0.466320    0.784503    0.108760    11.00000    0.03332    0.03970 = 
         0.04482   -0.01064    0.00728   -0.02351 
AFIX  23 
H13A  2    0.525217    0.857517    0.122977    11.00000   -1.20000 
H13B  2    0.584328    0.698645    0.094887    11.00000   -1.20000 
AFIX   0 
C14   1    0.315633    0.867135    0.027100    11.00000    0.03507    0.02977 = 
         0.03730   -0.00139    0.00997   -0.01060 
AFIX  23 
H14A  2    0.204858    0.958612    0.039081    11.00000   -1.20000 
H14B  2    0.394672    0.902688   -0.024526    11.00000   -1.20000 
AFIX   0 
C15   1    0.213643    0.760140    0.005189    11.00000    0.03015    0.03369 = 
         0.02450   -0.00246    0.00237   -0.00570 
AFIX  23 
H15A  2    0.323553    0.672793   -0.011397    11.00000   -1.20000 
H15B  2    0.115134    0.816877   -0.046176    11.00000   -1.20000 
AFIX   0 
C16   1    0.091857    0.697151    0.086138    11.00000    0.01896    0.03023 = 
         0.02797   -0.00189   -0.00101   -0.00555 
AFIX  23 
H16A  2   -0.025708    0.783426    0.099856    11.00000   -1.20000 
H16B  2    0.032495    0.624900    0.071265    11.00000   -1.20000 
  
AFIX   0 
HKLF    4 
  
REM  12m_up1_0s in P-1 2013-07-17 16:12 
REM R1 =  0.0299 for    3981 Fo > 4sig(Fo)  and  0.0313 for all    4192 data 
REM    220 parameters refined using      0 restraints 
  
END 
  
WGHT      0.0375      0.0000 
  
REM Highest difference peak  2.858,  deepest hole -2.175,  1-sigma level  0.206 
Q1    1   0.4475  0.1429  0.3346  11.00000  0.05    2.86 
Q2    1   0.4194  0.2578  0.2256  11.00000  0.05    2.72 
Q3    1   0.4120  0.3090  0.3427  11.00000  0.05    0.70 
Q4    1   0.3834  0.3391  0.1786  11.00000  0.05    0.65 
Q5    1   0.4587  0.0778  0.2183  11.00000  0.05    0.63 
;
_cod_data_source_file            om400778z_si_005.cif
_cod_data_source_block           compound_4
_cod_database_code               4089610
_shelx_space_group_comment
; 
The symmetry employed for this shelxl refinement is uniquely defined 
by the following loop, which should always be used as a source of 
symmetry information in preference to the above space-group names. 
They are only intended as comments. 
;
_shelxl_version_number           2013-2
_shelx_res_checksum              43171
_iucr_refine_reflections_details
; 
   0   0  -1    0.01    0.03 
   0   0  -1   15.33    0.37 
   0   0  -1   11.32    0.31 
   0   0  -1    0.00    0.03 
   0   0  -1    5.44    0.19 
   0   0   1   17.95    0.39 
   0   0   1    0.06    0.04 
   0   0   1   -0.03    0.03 
   0   0   1   21.74    0.45 
   0   0  -2  278.92    4.65 
   0   0  -2  239.37    4.00 
   0   0  -2  310.28    4.96 
   0   0  -2  214.85    3.79 
   0   0  -2  242.19    4.00 
   0   0   2  305.56    5.03 
   0   0   2  276.13    4.49 
   0   0   2  238.58    3.89 
   0   0   2  319.95    5.14 
   0   0   2  330.89    5.03 
   0   0   2  191.67    3.24 
   0   0   2  213.78    3.59 
   0   0  -3   51.98    1.08 
   0   0  -3   57.69    1.14 
   0   0  -3   51.55    1.05 
   0   0  -3   48.23    0.92 
   0   0  -3   55.06    0.85 
   0   0   3   60.12    1.16 
   0   0   3   56.03    1.09 
   0   0   3   60.99    1.18 
   0   0   3   64.96    1.21 
   0   0   3   45.46    0.90 
   0   0   3   50.37    0.78 
   0   0  -4  226.22    2.80 
   0   0  -4  239.59    2.90 
   0   0  -4  211.57    2.64 
   0   0  -4  207.96    2.40 
   0   0  -4  223.51    3.33 
   0   0   4  254.45    2.97 
   0   0   4  232.90    2.77 
   0   0   4  261.68    3.07 
   0   0   4  198.38    2.38 
   0   0   4  213.96    3.16 
   0   0  -5  141.26    2.34 
   0   0  -5  155.13    2.45 
   0   0  -5  142.94    2.29 
   0   0  -5  138.91    2.04 
   0   0  -5  158.17    1.85 
   0   0   5  155.33    2.38 
   0   0   5  171.23    2.61 
   0   0   5  130.77    2.00 
   0   0   5  147.13    1.70 
   0   0  -6   49.71    1.47 
   0   0  -6   55.82    1.54 
   0   0  -6   50.41    1.43 
   0   0  -6   52.57    1.32 
   0   0  -6   58.08    1.04 
   0   0   6   59.16    1.55 
   0   0   6   61.53    1.65 
   0   0   6   48.08    1.26 
   0   0   6   54.09    0.99 
   0   0  -7   96.50    2.24 
   0   0  -7   99.97    2.26 
   0   0  -7   93.18    2.12 
   0   0  -7  100.95    2.00 
   0   0  -7  113.75    1.62 
   0   0   7  110.08    2.32 
   0   0   7  116.53    2.48 
   0   0   7   92.83    1.92 
   0   0  -8   15.26    0.96 
   0   0  -8   14.02    0.91 
   0   0  -8   13.42    0.86 
   0   0  -8   14.86    0.82 
   0   0  -8   16.34    0.60 
   0   0   8   14.97    0.95 
   0   0   8   15.34    0.83 
   0   0  -9  114.62    2.79 
   0   0  -9  130.20    2.96 
   0   0  -9  118.90    2.75 
   0   0  -9  143.23    2.00 
   0   0   9  137.82    3.08 
   0   0   9  116.44    2.45 
   0   0 -10    5.29    0.68 
   0   0 -10    5.51    0.68 
   0   0 -10    5.17    0.63 
   0   0 -10    6.51    0.43 
   0   0  10    5.76    0.70 
   0   0  10    5.07    0.57 
   0   0 -11  108.97    3.04 
   0   0 -11  126.11    3.25 
   0   0 -11  116.48    3.03 
   0   0 -11  141.63    2.09 
   0   0  11  125.89    3.28 
   0   0  11  119.15    2.75 
   0   0 -12   13.52    1.15 
   0   0 -12   15.02    1.20 
   0   0 -12   14.85    1.15 
   0   0 -12   17.26    0.71 
   0   0  12   15.14    1.22 
   0   0  12   15.01    1.04 
   0   0 -13   22.31    1.53 
   0   0 -13   25.51    1.62 
   0   0 -13   23.74    1.51 
   0   0  13   25.17    1.63 
   0   0  13   25.17    1.39 
   0   0 -14   33.20    1.95 
   0   0 -14   34.81    1.97 
   0   0 -14   35.54    1.93 
   0   0  14   41.38    2.18 
   0   0  14   34.16    1.69 
   0   0 -15    7.69    1.04 
   0   0 -15    9.18    1.11 
   0   0 -15    7.98    1.00 
   0   0  15    9.45    1.15 
   0   0  15    8.71    0.93 
   0   0 -16   30.68    2.06 
   0   0 -16   36.28    2.21 
   0   0 -16   36.30    2.14 
   0   0  16   37.33    2.27 
   0   0  16   35.06    1.85 
   0   0 -17    1.24    0.61 
   0   0 -17    1.48    0.63 
   0   0 -17    1.69    0.62 
   0   0  17    1.42    0.63 
   0   0  17    2.26    0.62 
   0   0 -18   20.74    1.86 
   0   0 -18   29.43    2.17 
   0   0 -18   25.41    1.96 
   0   0  18   25.21    2.04 
   0   0 -19    1.76    0.75 
   0   0 -19    2.83    0.84 
   0   0 -19    1.23    0.64 
   0   0  19    2.76    0.86 
   0  -1  19   16.52    1.78 
   0   1 -19   14.54    1.68 
   0   1 -19   17.25    1.81 
   0  -1  18    4.64    1.00 
   0  -1  18    3.82    0.83 
   0   1 -18    3.31    0.90 
   0   1 -18    4.56    0.99 
   0   1 -18    3.75    0.90 
   0  -1  17   32.20    2.25 
   0  -1  17   31.83    1.97 
   0   1 -17   29.95    2.17 
   0   1 -17   37.00    2.40 
   0   1 -17   31.22    2.16 
   0  -1  16    2.42    0.73 
   0  -1  16    1.93    0.60 
   0   1 -16    1.23    0.62 
   0   1 -16    1.57    0.64 
   0   1 -16    1.61    0.61 
   0  -1  15   84.78    3.33 
   0  -1  15   82.43    2.93 
   0   1 -15   72.58    3.07 
   0   1 -15   81.83    3.26 
   0   1 -15   78.83    3.14 
   0  -1  14    8.33    1.06 
   0  -1  14    7.22    0.89 
   0   1 -14    7.68    1.01 
   0   1 -14    8.10    1.04 
   0   1 -14    7.15    0.95 
   0  -1  13  104.11    3.37 
   0  -1  13   97.33    2.94 
   0   1 -13   87.22    3.07 
   0   1 -13   96.21    3.24 
   0   1 -13   92.49    3.12 
   0  -1  12   20.90    1.46 
   0  -1  12   18.03    1.23 
   0   1 -12   18.93    1.38 
   0   1 -12   19.53    1.41 
   0   1 -12   21.26    1.44 
   0  -1  11   30.54    1.66 
   0  -1  11   25.30    1.38 
   0   1 -11   26.76    1.55 
   0   1 -11   26.78    1.56 
   0   1 -11   26.72    1.53 
   0  -1  10   97.28    2.80 
   0  -1  10   76.80    2.29 
   0   1 -10   79.92    2.53 
   0   1 -10   87.38    2.66 
   0   1 -10   83.49    2.56 
   0  -1   9   14.25    1.03 
   0  -1   9   11.74    0.87 
   0   1  -9   11.74    0.93 
   0   1  -9   12.98    0.98 
   0   1  -9   11.63    0.92 
   0  -1   8  122.32    2.81 
   0  -1   8  100.87    2.38 
   0   1  -8  114.09    2.71 
   0   1  -8  120.36    2.80 
   0   1  -8  107.86    2.62 
   0  -1   7    8.80    0.72 
   0  -1   7    7.54    0.63 
   0   1  -7    8.49    0.70 
   0   1  -7    7.94    0.68 
   0   1  -7    9.00    0.72 
   0   1  -7    8.09    0.69 
   0  -1   6  174.57    2.98 
   0  -1   6  139.66    2.53 
   0   1  -6  176.04    2.99 
   0   1  -6  166.48    2.92 
   0   1  -6  156.84    2.82 
   0   1  -6  183.05    3.06 
   0   1  -6  162.05    2.73 
   0  -1   5   13.71    0.76 
   0  -1   5   10.02    0.62 
   0   1  -5   12.18    0.71 
   0   1  -5   12.89    0.73 
   0   1  -5   11.27    0.68 
   0   1  -5   13.74    0.76 
   0   1  -5   11.71    0.67 
   0  -1   4  183.29    2.63 
   0  -1   4  161.99    2.46 
   0  -1   4  139.90    2.22 
   0   1  -4  189.66    2.68 
   0   1  -4  163.52    2.48 
   0   1  -4  148.63    2.36 
   0   1  -4  190.83    2.68 
   0   1  -4  150.05    2.29 
   0  -1   3   33.69    0.96 
   0  -1   3   28.55    0.89 
   0  -1   3   25.78    0.83 
   0   1  -3   32.26    0.94 
   0   1  -3   28.08    0.88 
   0   1  -3   36.89    0.99 
   0   1  -3   27.96    0.86 
   0  -1   2  216.74    2.42 
   0  -1   2  293.29    2.93 
   0  -1   2  175.73    2.15 
   0  -1   2  276.17    3.45 
   0  -1   2  155.77    2.03 
   0  -1   2  180.85    3.72 
   0   1  -2  203.52    2.38 
   0   1  -2  175.53    2.19 
   0   1  -2  254.12    3.41 
   0  -1   1  445.39    6.13 
   0  -1   1  290.58    4.73 
   0  -1   1  441.32    5.66 
   0  -1   1  221.69    4.08 
   0  -1   1  421.35    5.84 
   0  -1   1  197.69    3.43 
   0  -1   1  194.52    3.37 
   0   1  -1  415.68    6.38 
   0   1  -1  293.78    4.51 
   0   1  -1  410.61    4.82 
   0   1  -1  241.57    4.06 
   0   1  -1  395.34    5.39 
   0   1  -1  206.85    2.24 
   0   1  -1  231.27    3.70 
   0  -1   0   17.35    0.45 
   0  -1   0   13.17    0.34 
   0  -1   0   17.43    0.46 
   0  -1   0    8.80    0.28 
   0  -1   0   17.27    0.41 
   0  -1   0    6.35    0.26 
   0  -1   0    8.93    0.30 
   0   1   0   17.10    0.45 
   0   1   0   14.51    0.37 
   0   1   0   16.61    0.45 
   0   1   0   12.65    0.35 
   0   1   0   16.36    0.41 
   0   1   0    9.13    0.31 
   0   1   0   10.12    0.32 
   0  -1  -1  430.61    5.64 
   0  -1  -1  418.51    7.49 
   0  -1  -1  338.70   11.04 
   0  -1  -1  429.97    6.17 
   0  -1  -1  222.07    4.49 
   0  -1  -1  182.27    2.02 
   0   1   1  415.54    5.57 
   0   1   1  452.30    6.16 
   0   1   1  417.25    7.32 
   0   1   1  432.16    6.41 
   0   1   1  183.56    3.66 
   0   1   1  197.58    3.16 
   0  -1  -2   36.84    0.79 
   0  -1  -2   34.89    0.67 
   0  -1  -2   32.80    0.64 
   0  -1  -2   39.69    0.78 
   0  -1  -2   24.97    0.64 
   0   1   2   39.57    0.81 
   0   1   2   37.00    0.68 
   0   1   2   35.26    0.66 
   0   1   2   39.46    0.79 
   0  -1  -3  457.39    7.29 
   0  -1  -3  375.26    5.31 
   0  -1  -3  328.63    5.22 
   0  -1  -3  475.41    6.23 
   0  -1  -3  311.33    5.36 
   0  -1  -3  266.63    4.51 
   0   1   3  426.16    6.51 
   0   1   3  375.53    5.33 
   0   1   3  441.29    5.49 
   0   1   3  276.35    4.92 
   0  -1  -4    6.97    0.46 
   0  -1  -4    6.28    0.40 
   0  -1  -4    6.06    0.36 
   0  -1  -4    5.44    0.26 
   0  -1  -4    0.01    0.05 
   0   1   4    7.03    0.42 
   0   1   4    6.91    0.38 
   0   1   4    7.18    0.46 
   0   1   4    5.32    0.26 
   0  -1  -5  297.49    3.55 
   0  -1  -5  271.49    3.21 
   0  -1  -5  240.99    2.85 
   0  -1  -5  240.92    3.17 
   0  -1  -5  242.73    2.77 
   0   1   5  316.33    3.48 
   0   1   5  285.29    3.13 
   0   1   5  330.36    3.76 
   0   1   5  232.59    2.52 
   0  -1  -6  140.80    2.50 
   0  -1  -6  143.88    2.41 
   0  -1  -6  129.13    2.15 
   0  -1  -6  129.09    1.81 
   0  -1  -6  131.90    2.00 
   0   1   6  166.29    2.60 
   0   1   6  150.69    2.33 
   0   1   6  158.73    2.65 
   0   1   6  128.67    1.83 
   0  -1  -7   74.89    1.93 
   0  -1  -7   77.31    1.87 
   0  -1  -7   69.32    1.68 
   0  -1  -7   70.61    1.42 
   0  -1  -7   73.97    1.52 
   0   1   7   84.18    1.86 
   0   1   7   86.21    2.07 
   0   1   7   68.15    1.40 
   0  -1  -8  105.09    2.47 
   0  -1  -8  107.11    2.39 
   0  -1  -8   97.98    2.17 
   0  -1  -8  104.42    1.90 
   0  -1  -8  109.44    1.96 
   0   1   8  120.49    2.42 
   0   1   8  120.64    2.64 
   0   1   8  100.64    1.87 
   0  -1  -9    4.96    0.60 
   0  -1  -9    5.23    0.59 
   0  -1  -9    3.99    0.49 
   0  -1  -9    4.78    0.45 
   0  -1  -9    4.86    0.44 
   0   1   9    5.08    0.61 
   0   1   9    4.60    0.44 
   0  -1 -10  116.83    2.94 
   0  -1 -10  121.87    2.91 
   0  -1 -10  116.99    2.72 
   0  -1 -10  128.87    2.29 
   0   1  10  134.85    3.16 
   0   1  10  117.00    2.32 
   0  -1 -11    4.09    0.64 
   0  -1 -11    4.19    0.61 
   0  -1 -11    4.16    0.58 
   0  -1 -11    4.28    0.46 
   0   1  11    6.09    0.76 
   0   1  11    4.31    0.51 
   0  -1 -12   30.17    1.66 
   0  -1 -12   31.58    1.64 
   0  -1 -12   29.81    1.53 
   0  -1 -12   35.53    1.25 
   0   1  12   36.08    1.81 
   0   1  12   32.61    1.36 
   0  -1 -13    8.20    0.95 
   0  -1 -13    8.28    0.92 
   0  -1 -13    7.86    0.85 
   0  -1 -13    9.73    0.69 
   0   1  13    8.97    0.99 
   0   1  13    9.03    0.79 
   0  -1 -14   32.03    1.89 
   0  -1 -14   33.48    1.87 
   0  -1 -14   33.58    1.79 
   0  -1 -14   39.27    1.37 
   0   1  14   34.85    1.97 
   0   1  14   37.38    1.61 
   0  -1 -15   17.64    1.48 
   0  -1 -15   18.51    1.48 
   0  -1 -15   19.77    1.46 
   0   1  15   21.89    1.65 
   0   1  15   20.14    1.25 
   0  -1 -16   24.81    1.83 
   0  -1 -16   29.69    1.95 
   0  -1 -16   25.63    1.73 
   0   1  16   28.01    1.94 
   0   1  16   27.89    1.53 
   0  -1 -17   33.66    2.22 
   0  -1 -17   36.42    2.24 
   0  -1 -17   35.28    2.12 
   0   1  17   38.61    2.36 
   0  -1 -18    2.25    0.74 
   0  -1 -18    2.64    0.76 
   0  -1 -18    3.23    0.77 
   0   1  18    3.30    0.85 
   0  -1 -19   18.42    1.81 
   0  -1 -19   21.25    1.88 
   0  -1 -19   23.87    1.91 
   0   1  19   22.89    2.00 
   0  -1 -20   -0.13    0.52 
   0  -1 -20    0.44    0.59 
   0   1  20    0.22    0.59 
   0  -2  18   14.87    1.67 
   0  -2  18   14.41    1.50 
   0   2 -18   14.20    1.63 
   0   2 -18   17.73    1.81 
   0  -2  17    7.87    1.21 
   0  -2  17    9.12    1.19 
   0   2 -17    8.30    1.24 
   0   2 -17    7.99    1.23 
   0   2 -17    9.32    1.29 
   0  -2  16   33.11    2.24 
   0  -2  16   28.71    1.93 
   0   2 -16   27.50    2.04 
   0   2 -16   34.74    2.30 
   0   2 -16   31.44    2.17 
   0  -2  15    1.15    0.60 
   0  -2  15    1.83    0.61 
   0   2 -15    1.18    0.59 
   0   2 -15    1.43    0.62 
   0   2 -15    1.61    0.62 
   0  -2  14   83.51    3.24 
   0  -2  14   73.73    2.85 
   0   2 -14   74.63    3.06 
   0   2 -14   77.11    3.14 
   0   2 -14   74.96    3.07 
   0  -2  13    4.76    0.83 
   0  -2  13    3.92    0.71 
   0   2 -13    4.49    0.78 
   0   2 -13    4.42    0.80 
   0   2 -13    4.68    0.78 
   0  -2  12   46.34    2.21 
   0  -2  12   40.97    1.97 
   0   2 -12   39.44    2.04 
   0   2 -12   42.76    2.14 
   0   2 -12   42.54    2.12 
   0  -2  11   30.81    1.72 
   0  -2  11   26.11    1.52 
   0   2 -11   28.13    1.65 
   0   2 -11   29.67    1.70 
   0   2 -11   29.78    1.70 
   0  -2  10  130.94    3.38 
   0  -2  10  103.41    2.89 
   0   2 -10  113.24    3.14 
   0   2 -10  121.37    3.28 
   0   2 -10  112.43    3.15 
   0  -2   9   53.99    2.04 
   0  -2   9   44.14    1.80 
   0   2  -9   48.97    1.95 
   0   2  -9   52.20    2.03 
   0   2  -9   46.48    1.91 
   0   2  -9   54.50    2.05 
   0  -2   8   41.17    1.65 
   0   2  -8   47.59    1.82 
   0   2  -8   50.52    1.89 
   0   2  -8   44.65    1.78 
   0   2  -8   53.07    1.91 
   0  -2   7   94.97    2.41 
   0   2  -7  112.83    2.66 
   0   2  -7  115.75    2.72 
   0   2  -7   95.31    2.47 
   0   2  -7  121.52    2.75 
   0  -2   6    5.58    0.57 
   0   2  -6    8.65    0.71 
   0   2  -6    5.61    0.58 
   0   2  -6    6.12    0.60 
   0   2  -6    7.85    0.67 
   0  -2   5  144.43    2.72 
   0   2  -5  173.43    2.96 
   0   2  -5  149.99    2.74 
   0   2  -5  131.64    2.59 
   0   2  -5  168.13    2.87 
   0  -2   4   20.22    0.91 
   0  -2   4   18.09    0.87 
   0  -2   4   15.27    0.81 
   0   2  -4   22.03    0.95 
   0   2  -4   21.75    0.94 
   0   2  -4   23.57    0.99 
   0   2  -4   17.85    0.87 
   0   2  -4   22.43    0.94 
   0   2  -4   18.74    0.90 
   0  -2   3   50.63    1.31 
   0  -2   3   43.31    1.24 
   0  -2   3   47.12    0.79 
   0   2  -3   61.09    1.47 
   0   2  -3   47.40    1.27 
   0   2  -3   60.48    1.48 
   0   2  -3   43.85    1.25 
   0   2  -3   57.13    1.38 
   0   2  -3   43.21    1.27 
   0   2  -3   52.66    0.83 
   0  -2   2    8.08    0.48 
   0  -2   2    6.25    0.44 
   0  -2   2    5.52    0.43 
   0  -2   2    6.29    0.31 
   0   2  -2    9.46    0.54 
   0   2  -2    7.39    0.46 
   0   2  -2    8.51    0.52 
   0   2  -2    6.32    0.43 
   0   2  -2    8.76    0.50 
   0   2  -2    6.24    0.46 
   0   2  -2    6.81    0.32 
   0  -2   1    0.03    0.04 
   0  -2   1   13.03    0.54 
   0  -2   1   23.86    0.72 
   0  -2   1   12.64    0.58 
   0  -2   1   13.03    0.48 
   0   2  -1   22.34    0.76 
   0   2  -1   18.65    0.63 
   0   2  -1   21.85    0.76 
   0   2  -1   14.70    0.58 
   0   2  -1   20.97    0.68 
   0   2  -1   13.86    0.61 
   0   2  -1   14.89    0.51 
   0  -2   0  275.26    4.49 
   0  -2   0  374.09    4.95 
   0  -2   0  180.65    2.73 
   0  -2   0  375.10    3.39 
   0  -2   0  180.92    2.22 
   0  -2   0  164.18    2.03 
   0   2   0  350.14    4.94 
   0   2   0  295.11    4.89 
   0   2   0  356.95    3.54 
   0   2   0  231.72    3.24 
   0   2   0  339.74    5.39 
   0   2   0  172.09    2.11 
   0  -2  -1  321.79    5.00 
   0  -2  -1  347.86    4.14 
   0  -2  -1  192.11    2.77 
   0  -2  -1  346.42    4.20 
   0  -2  -1  178.30    3.17 
   0  -2  -1  156.44    2.06 
   0   2   1  333.54    4.80 
   0   2   1  303.97    4.62 
   0   2   1  322.50    4.87 
   0   2   1  331.44    4.77 
   0   2   1  164.48    1.91 
   0  -2  -2  227.88    2.57 
   0  -2  -2  236.50    4.20 
   0  -2  -2  253.73    2.60 
   0  -2  -2  160.86    1.98 
   0  -2  -2  125.07    1.89 
   0   2   2  239.29    2.72 
   0   2   2  237.16    2.84 
   0   2   2  242.89    2.76 
   0   2   2  235.79    2.56 
   0   2   2  124.68    1.92 
   0  -2  -3   47.85    1.15 
   0  -2  -3   42.82    0.84 
   0  -2  -3   39.18    0.72 
   0  -2  -3   49.44    1.08 
   0  -2  -3   27.24    0.89 
   0   2   3   47.81    0.89 
   0   2   3   47.70    0.81 
   0   2   3   48.15    1.07 
   0  -2  -4  262.22    3.18 
   0  -2  -4  226.36    2.56 
   0  -2  -4  190.24    3.03 
   0  -2  -4  150.62    2.28 
   0   2   4  267.74    2.79 
   0   2   4  251.91    3.53 
   0   2   4  255.63    3.01 
   0  -2  -5   26.55    1.00 
   0  -2  -5   23.59    0.80 
   0  -2  -5   20.54    0.64 
   0  -2  -5   19.13    0.81 
   0   2   5   27.34    0.86 
   0   2   5   26.52    0.73 
   0   2   5   27.12    0.97 
   0  -2  -6  319.45    4.04 
   0  -2  -6  282.85    3.40 
   0  -2  -6  240.75    2.85 
   0  -2  -6  233.88    3.16 
   0   2   6  349.85    3.83 
   0   2   6  316.66    3.34 
   0   2   6  345.62    4.14 
   0   2   6  271.01    3.69 
   0   2   6  278.83    3.65 
   0  -2  -7   83.58    2.07 
   0  -2  -7   78.10    1.79 
   0  -2  -7   71.62    1.56 
   0  -2  -7   76.87    1.19 
   0  -2  -7   72.06    1.72 
   0   2   7   98.35    2.03 
   0   2   7   91.07    1.77 
   0   2   7   87.60    2.07 
   0   2   7   79.22    1.23 
   0  -2  -8   74.80    2.08 
   0  -2  -8   74.43    1.90 
   0  -2  -8   70.79    1.69 
   0  -2  -8   71.85    1.28 
   0  -2  -8    0.05    0.08 
   0   2   8   82.52    1.83 
   0   2   8   85.77    2.19 
   0   2   8   76.33    1.34 
   0  -2  -9   83.36    2.34 
   0  -2  -9   77.83    2.08 
   0  -2  -9   75.56    1.89 
   0  -2  -9   79.28    1.49 
   0  -2  -9   76.31    1.90 
   0   2   9   89.04    2.07 
   0   2   9   89.49    2.39 
   0   2   9   81.44    1.52 
   0  -2 -10   17.64    1.15 
   0  -2 -10   19.53    1.12 
   0  -2 -10   17.98    0.99 
   0  -2 -10   20.47    0.81 
   0  -2 -10   18.05    0.96 
   0   2  10   20.56    1.22 
   0   2  10   19.73    0.80 
   0  -2 -11   91.40    2.73 
   0  -2 -11   93.02    2.59 
   0  -2 -11   88.26    2.34 
   0  -2 -11  101.87    2.00 
   0  -2 -11  100.06    2.33 
   0   2  11  105.55    2.91 
   0   2  11   99.41    1.98 
   0  -2 -12    1.30    0.46 
   0  -2 -12    0.80    0.36 
   0  -2 -12    1.25    0.37 
   0  -2 -12    1.18    0.29 
   0  -2 -12    1.43    0.36 
   0   2  12    1.66    0.49 
   0   2  12    1.10    0.31 
   0  -2 -13   41.27    2.03 
   0  -2 -13   45.36    2.01 
   0  -2 -13   43.33    1.84 
   0  -2 -13   47.30    1.67 
   0   2  13   54.01    2.30 
   0   2  13   49.90    1.57 
   0  -2 -14    4.45    0.77 
   0  -2 -14    4.65    0.73 
   0  -2 -14    4.18    0.65 
   0  -2 -14    5.40    0.62 
   0   2  14    5.21    0.81 
   0   2  14    5.24    0.58 
   0  -2 -15   49.90    2.44 
   0  -2 -15   52.10    2.38 
   0  -2 -15   51.76    2.22 
   0  -2 -15   57.42    1.92 
   0   2  15   55.89    2.57 
   0   2  15   60.15    1.91 
   0  -2 -16   21.98    1.71 
   0  -2 -16   25.53    1.76 
   0  -2 -16   25.44    1.65 
   0   2  16   22.84    1.74 
   0  -2 -17   18.08    1.63 
   0  -2 -17   22.15    1.72 
   0  -2 -17   20.10    1.55 
   0   2  17   24.20    1.87 
   0  -2 -18   19.24    1.76 
   0  -2 -18   22.71    1.82 
   0  -2 -18   21.64    1.67 
   0   2  18   21.05    1.83 
   0  -2 -19    3.91    0.92 
   0  -2 -19    4.67    0.95 
   0  -2 -19    3.98    0.84 
   0   2  19    4.31    0.97 
   0  -2 -20   14.92    1.69 
   0  -2 -20   19.74    1.85 
   0  -2 -20   16.94    1.63 
   0   2  20   18.78    1.88 
   0  -3  17   10.86    1.44 
   0  -3  17    8.64    1.23 
   0   3 -17    6.75    1.18 
   0   3 -17    8.84    1.33 
   0  -3  16   14.07    1.55 
   0  -3  16   11.38    1.34 
   0   3 -16   11.58    1.41 
   0   3 -16   12.29    1.47 
   0   3 -16   14.17    1.56 
   0  -3  15   24.98    1.93 
   0  -3  15   25.19    1.87 
   0   3 -15   23.87    1.89 
   0   3 -15   26.04    2.00 
   0   3 -15   26.75    2.01 
   0  -3  14    6.22    1.00 
   0  -3  14    6.64    0.99 
   0   3 -14    4.53    0.88 
   0   3 -14    6.91    1.05 
   0   3 -14    5.27    0.92 
   0  -3  13   51.29    2.51 
   0  -3  13   41.22    2.20 
   0   3 -13   44.90    2.36 
   0   3 -13   47.62    2.45 
   0   3 -13   46.00    2.42 
   0  -3  12    1.38    0.53 
   0  -3  12    0.85    0.45 
   0   3 -12    0.89    0.48 
   0   3 -12    1.70    0.56 
   0   3 -12    1.24    0.50 
   0  -3  11   34.57    1.89 
   0  -3  11   31.39    1.78 
   0   3 -11   32.55    1.85 
   0   3 -11   36.26    1.96 
   0   3 -11   31.08    1.82 
   0   3 -11   34.92    1.90 
   0  -3  10    9.40    0.97 
   0  -3  10    8.86    0.95 
   0   3 -10   10.22    1.03 
   0   3 -10   11.03    1.06 
   0   3 -10   10.35    1.03 
   0   3 -10   13.12    1.14 
   0  -3   9   46.05    1.99 
   0   3  -9   55.10    2.18 
   0   3  -9   55.55    2.20 
   0   3  -9   50.66    2.12 
   0   3  -9   59.62    2.25 
   0  -3   8   73.65    2.41 
   0   3  -8   90.75    2.66 
   0   3  -8   90.33    2.67 
   0   3  -8   78.95    2.52 
   0   3  -8   90.24    2.62 
   0  -3   7   56.01    2.01 
   0   3  -7   76.00    2.31 
   0   3  -7   67.43    2.18 
   0   3  -7   63.20    2.14 
   0   3  -7   72.36    2.22 
   0  -3   6   87.94    2.41 
   0   3  -6  126.37    2.85 
   0   3  -6  107.61    2.61 
   0   3  -6   99.83    2.56 
   0   3  -6  117.78    2.69 
   0  -3   5    2.52    0.44 
   0   3  -5    4.61    0.54 
   0   3  -5    4.11    0.51 
   0   3  -5    4.37    0.54 
   0   3  -5    3.54    0.48 
   0   3  -5    4.06    0.50 
   0  -3   4  133.39    2.64 
   0  -3   4  112.80    2.49 
   0  -3   4  151.38    1.84 
   0   3  -4  174.87    3.05 
   0   3  -4  150.23    2.75 
   0   3  -4  185.81    3.19 
   0   3  -4  132.56    2.63 
   0   3  -4  174.00    2.94 
   0   3  -4  170.43    1.93 
   0  -3   3    0.16    0.19 
   0  -3   3    0.36    0.20 
   0  -3   3    0.29    0.21 
   0  -3   3    0.07    0.12 
   0   3  -3    0.12    0.20 
   0   3  -3    0.05    0.16 
   0   3  -3    0.99    0.29 
   0   3  -3   -0.13    0.15 
   0   3  -3    0.37    0.21 
   0  -3   2   94.97    1.84 
   0  -3   2   84.02    1.78 
   0  -3   2   77.71    1.83 
   0  -3   2   82.00    1.44 
   0   3  -2  130.76    2.35 
   0   3  -2  111.75    2.01 
   0   3  -2  133.37    2.41 
   0   3  -2   91.36    1.86 
   0   3  -2  126.62    2.17 
   0   3  -2   86.79    1.94 
   0  -3   1   30.05    0.92 
   0  -3   1    0.04    0.06 
   0  -3   1   21.99    0.90 
   0  -3   1   22.22    0.77 
   0   3  -1   35.43    1.14 
   0   3  -1   34.39    0.99 
   0   3  -1   37.80    1.19 
   0   3  -1   26.56    0.90 
   0   3  -1   35.35    1.04 
   0  -3   0  147.50    1.97 
   0  -3   0  105.16    1.66 
   0  -3   0  102.90    1.85 
   0  -3   0   94.36    1.72 
   0   3   0  181.69    2.62 
   0   3   0  170.19    2.19 
   0   3   0  178.24    2.63 
   0   3   0  131.13    1.91 
   0   3   0  180.61    2.40 
   0   3   0  103.69    1.85 
   0  -3  -1  243.26    2.55 
   0  -3  -1  261.70    2.77 
   0  -3  -1  161.40    1.96 
   0  -3  -1  162.52    2.22 
   0  -3  -1  139.23    2.22 
   0   3   1  274.75    3.30 
   0   3   1  278.18    3.37 
   0   3   1  281.98    3.10 
   0   3   1  152.57    2.12 
   0  -3  -2  101.80    1.44 
   0  -3  -2   64.46    1.01 
   0  -3  -2   64.83    1.20 
   0  -3  -2   53.80    1.39 
   0   3   2  100.54    1.88 
   0   3   2   98.46    1.38 
   0   3   2  100.63    1.90 
   0   3   2   97.12    1.65 
   0   3   2   56.43    1.10 
   0  -3  -3  327.61    4.25 
   0  -3  -3  336.64    5.11 
   0  -3  -3  242.09    2.59 
   0   3   3  323.50    3.75 
   0   3   3  361.87    5.08 
   0   3   3  325.04    3.79 
   0   3   3  335.90    3.58 
   0   3   3  197.77    2.66 
   0  -3  -4   43.93    0.95 
   0  -3  -4   40.63    0.73 
   0  -3  -4   28.71    1.09 
   0   3   4   47.24    1.35 
   0   3   4   52.89    1.05 
   0   3   4   50.96    0.84 
   0   3   4   49.10    1.27 
   0   3   4   35.01    0.64 
   0  -3  -5  333.65    4.12 
   0  -3  -5  288.01    3.14 
   0  -3  -5  243.16    3.75 
   0  -3  -5  185.59    2.98 
   0   3   5  352.17    3.51 
   0   3   5  341.93    4.72 
   0   3   5  323.10    3.83 
   0  -3  -6    1.41    0.32 
   0  -3  -6    0.73    0.20 
   0  -3  -6    0.96    0.17 
   0  -3  -6    1.56    0.33 
   0   3   6    1.06    0.25 
   0   3   6    1.35    0.20 
   0   3   6    1.05    0.28 
   0  -3  -7  376.01    4.85 
   0  -3  -7  323.93    3.84 
   0  -3  -7  272.73    3.08 
   0  -3  -7  259.32    3.81 
   0   3   7  418.50    4.45 
   0   3   7  387.52    4.73 
   0   3   7  387.67    4.76 
   0  -3  -8   17.18    1.03 
   0  -3  -8   15.19    0.82 
   0  -3  -8   12.85    0.65 
   0  -3  -8   12.30    0.83 
   0   3   8   18.21    0.78 
   0   3   8   18.12    1.02 
   0  -3  -9  217.26    3.93 
   0  -3  -9  188.24    3.21 
   0  -3  -9  166.87    2.68 
   0  -3  -9  164.57    3.14 
   0   3   9  230.82    3.20 
   0   3   9  227.21    3.91 
   0  -3 -10   67.24    2.25 
   0  -3 -10   64.38    1.95 
   0  -3 -10   58.72    1.66 
   0  -3 -10   58.79    1.89 
   0   3  10   74.85    1.89 
   0   3  10   71.09    2.25 
   0   3  10   71.98    1.18 
   0   3  10   76.22    1.24 
   0  -3 -11   91.41    2.76 
   0  -3 -11   89.86    2.46 
   0  -3 -11   84.13    2.14 
   0  -3 -11   58.13    1.93 
   0   3  11  105.88    2.42 
   0   3  11   97.07    2.78 
   0   3  11   96.61    1.55 
   0   3  11  103.92    1.63 
   0  -3 -12  101.19    3.05 
   0  -3 -12   99.90    2.75 
   0  -3 -12   93.30    2.41 
   0  -3 -12   78.33    2.30 
   0   3  12  111.33    3.14 
   0   3  12  113.20    1.84 
   0   3  12  119.98    1.92 
   0  -3 -13    6.34    0.85 
   0  -3 -13    6.67    0.78 
   0  -3 -13    7.19    0.73 
   0  -3 -13    7.53    0.77 
   0   3  13    8.28    0.94 
   0   3  13    8.27    0.55 
   0  -3 -14   42.73    2.17 
   0  -3 -14   40.08    1.93 
   0  -3 -14   40.29    1.77 
   0  -3 -14   43.58    1.80 
   0   3  14   43.94    2.17 
   0   3  14   44.56    1.32 
   0  -3 -15    0.39    0.42 
   0  -3 -15    0.66    0.43 
   0  -3 -15    0.33    0.32 
   0  -3 -15    0.73    0.38 
   0   3  15    0.63    0.48 
   0  -3 -16   50.88    2.58 
   0  -3 -16   56.68    2.53 
   0  -3 -16   55.21    2.30 
   0  -3 -16   58.48    2.18 
   0   3  16   55.57    2.66 
   0  -3 -17   14.46    1.47 
   0  -3 -17   16.09    1.44 
   0  -3 -17   15.29    1.30 
   0   3  17   16.99    1.57 
   0  -3 -18   17.80    1.68 
   0  -3 -18   19.97    1.67 
   0  -3 -18   19.96    1.54 
   0   3  18   19.10    1.73 
   0  -3 -19    8.69    1.27 
   0  -3 -19    9.69    1.24 
   0  -3 -19   10.55    1.20 
   0   3  19   11.35    1.43 
   0  -3 -20    8.20    1.30 
   0  -3 -20    7.29    1.16 
   0   3  20    7.35    1.24 
   0  -4  16    3.80    0.95 
   0  -4  16    3.20    0.88 
   0   4 -16    4.16    0.96 
   0   4 -16    3.46    0.94 
   0  -4  15   20.18    1.81 
   0  -4  15   17.18    1.66 
   0   4 -15   17.83    1.71 
   0   4 -15   18.80    1.78 
   0   4 -15   17.22    1.71 
   0  -4  14   29.29    2.07 
   0  -4  14   25.58    1.93 
   0   4 -14   27.93    2.04 
   0   4 -14   29.65    2.11 
   0   4 -14   29.75    2.14 
   0  -4  13   18.83    1.61 
   0  -4  13   14.86    1.44 
   0   4 -13   13.77    1.40 
   0   4 -13   16.38    1.53 
   0   4 -13   16.43    1.54 
   0  -4  12   47.21    2.39 
   0  -4  12   39.43    2.21 
   0   4 -12   41.44    2.27 
   0   4 -12   44.58    2.37 
   0   4 -12   41.34    2.31 
   0  -4  11    0.89    0.48 
   0  -4  11    0.70    0.44 
   0   4 -11    0.91    0.50 
   0   4 -11    0.44    0.42 
   0   4 -11    0.17    0.37 
   0   4 -11    0.87    0.50 
   0  -4  10   57.57    2.48 
   0   4 -10   67.53    2.66 
   0   4 -10   66.55    2.65 
   0   4 -10   63.08    2.61 
   0   4 -10   68.69    2.64 
   0  -4   9    1.71    0.52 
   0   4  -9    1.89    0.54 
   0   4  -9    2.32    0.56 
   0   4  -9    1.85    0.52 
   0   4  -9    1.14    0.50 
   0  -4   8   96.79    2.99 
   0   4  -8  116.11    3.20 
   0   4  -8  112.79    3.15 
   0   4  -8  110.02    3.17 
   0   4  -8  124.05    3.25 
   0  -4   7   24.97    1.46 
   0   4  -7   33.03    1.64 
   0   4  -7   30.14    1.54 
   0   4  -7   29.41    1.56 
   0   4  -7   32.01    1.57 
   0  -4   6   55.76    2.08 
   0   4  -6   80.25    2.43 
   0   4  -6   74.72    2.30 
   0   4  -6   81.14    2.47 
   0   4  -6   64.48    2.19 
   0   4  -6   73.50    2.25 
   0  -4   5   59.17    2.06 
   0  -4   5   82.44    1.39 
   0   4  -5   87.03    2.42 
   0   4  -5   78.31    2.22 
   0   4  -5   87.34    2.45 
   0   4  -5   68.87    2.14 
   0   4  -5   83.43    2.27 
   0  -4   4   61.58    2.01 
   0  -4   4   83.91    1.53 
   0   4  -4  103.87    2.53 
   0   4  -4   89.64    2.25 
   0   4  -4  103.70    2.56 
   0   4  -4   76.25    2.13 
   0   4  -4  100.58    2.37 
   0  -4   3  156.05    2.91 
   0  -4   3  138.05    2.90 
   0  -4   3  159.48    2.33 
   0   4  -3  229.01    3.71 
   0   4  -3  196.20    3.20 
   0   4  -3  229.05    3.75 
   0   4  -3  168.30    3.04 
   0   4  -3  208.79    3.33 
   0  -4   2    5.91    0.54 
   0  -4   2    5.51    0.56 
   0  -4   2    5.34    0.45 
   0   4  -2    8.95    0.70 
   0   4  -2    8.06    0.60 
   0   4  -2    8.60    0.70 
   0   4  -2    6.21    0.55 
   0   4  -2    9.49    0.66 
   0  -4   1  110.76    2.03 
   0  -4   1   86.21    1.84 
   0  -4   1   86.11    2.04 
   0  -4   1   79.34    1.73 
   0   4  -1  135.92    2.61 
   0   4  -1  126.84    2.20 
   0   4  -1  143.84    2.73 
   0   4  -1  104.20    2.04 
   0   4  -1  135.12    2.38 
   0  -4   0    7.49    0.48 
   0  -4   0   11.34    0.59 
   0  -4   0    6.64    0.47 
   0  -4   0    6.10    0.52 
   0  -4   0    5.76    0.50 
   0   4   0    9.12    0.67 
   0   4   0    9.72    0.69 
   0   4   0    9.30    0.60 
   0   4   0    6.40    0.54 
   0  -4  -1  202.11    2.48 
   0  -4  -1  234.20    2.76 
   0  -4  -1  136.66    1.98 
   0  -4  -1  123.75    2.35 
   0   4   1  235.86    3.40 
   0   4   1  242.74    3.50 
   0   4   1  241.08    3.12 
   0   4   1  142.76    2.36 
   0  -4  -2   86.80    1.43 
   0  -4  -2   97.52    1.55 
   0  -4  -2   56.19    1.08 
   0  -4  -2   62.23    1.40 
   0  -4  -2   54.90    1.58 
   0   4   2   91.29    2.03 
   0   4   2   96.39    2.12 
   0   4   2   94.25    1.83 
   0   4   2   59.28    1.36 
   0  -4  -3  115.77    1.67 
   0  -4  -3   71.26    1.10 
   0  -4  -3  115.61    1.54 
   0  -4  -3   81.27    1.48 
   0  -4  -3   62.65    1.75 
   0   4   3  115.06    2.32 
   0   4   3  115.33    1.64 
   0   4   3  113.85    2.33 
   0   4   3  116.11    2.08 
   0   4   3   71.03    1.36 
   0  -4  -4  100.57    1.56 
   0  -4  -4   83.48    1.35 
   0  -4  -4   56.95    1.71 
   0   4   4  103.18    2.25 
   0   4   4  108.91    1.62 
   0   4   4  100.33    2.23 
   0   4   4  108.34    2.08 
   0   4   4   67.90    1.18 
   0  -4  -5   29.87    0.86 
   0  -4  -5   32.91    0.67 
   0  -4  -5   20.96    1.07 
   0   4   5   31.30    1.26 
   0   4   5   38.57    0.98 
   0   4   5   31.36    1.27 
   0   4   5   33.87    1.20 
   0   4   5   25.65    0.57 
   0  -4  -6  237.82    3.77 
   0  -4  -6  221.66    2.80 
   0  -4  -6  181.32    2.12 
   0  -4  -6  145.22    2.95 
   0   4   6  249.60    3.87 
   0   4   6  275.73    3.15 
   0   4   6  264.29    2.75 
   0   4   6  256.46    3.66 
   0  -4  -7    0.10    0.25 
   0  -4  -7    0.12    0.17 
   0  -4  -7    1.15    0.18 
   0  -4  -7    0.13    0.24 
   0   4   7    0.17    0.21 
   0   4   7    0.20    0.15 
   0   4   7    0.18    0.25 
   0  -4  -8  213.00    3.85 
   0  -4  -8  183.08    2.86 
   0  -4  -8  155.41    2.15 
   0  -4  -8  146.72    3.13 
   0   4   8  241.33    2.78 
   0   4   8  222.64    3.73 
   0  -4  -9    3.34    0.55 
   0  -4  -9    3.63    0.45 
   0  -4  -9    3.21    0.34 
   0  -4  -9    2.74    0.49 
   0   4   9    4.12    0.41 
   0   4   9    3.26    0.53 
   0  -4 -10  181.14    3.85 
   0  -4 -10  155.45    2.99 
   0  -4 -10  141.46    2.42 
   0  -4 -10  143.26    3.25 
   0   4  10  208.71    3.00 
   0   4  10  195.92    3.85 
   0  -4 -11   81.11    2.66 
   0  -4 -11   73.73    2.15 
   0  -4 -11   67.23    1.76 
   0  -4 -11   69.28    2.29 
   0   4  11   94.01    2.11 
   0   4  11   84.56    2.61 
   0  -4 -12   61.31    2.41 
   0  -4 -12   61.14    2.08 
   0  -4 -12   53.15    1.68 
   0  -4 -12   53.59    2.07 
   0   4  12   76.36    2.04 
   0   4  12   67.08    2.44 
   0  -4 -13   47.42    2.21 
   0  -4 -13   46.77    1.92 
   0  -4 -13   44.84    1.65 
   0  -4 -13   45.48    1.95 
   0   4  13   49.79    2.20 
   0  -4 -14   17.88    1.44 
   0  -4 -14   19.10    1.31 
   0  -4 -14   18.13    1.13 
   0  -4 -14   18.64    1.29 
   0   4  14   20.51    1.50 
   0  -4 -15   79.56    3.11 
   0  -4 -15   88.71    2.94 
   0  -4 -15   83.38    2.54 
   0  -4 -15   53.32    2.20 
   0   4  15   89.92    3.23 
   0  -4 -16   -0.04    0.40 
   0  -4 -16    0.25    0.37 
   0  -4 -16    0.22    0.33 
   0  -4 -16    0.34    0.39 
   0   4  16    0.51    0.49 
   0  -4 -17   42.61    2.47 
   0  -4 -17   47.81    2.37 
   0  -4 -17   48.24    2.13 
   0  -4 -17   48.24    2.19 
   0   4  17   50.48    2.64 
   0  -4 -18    2.59    0.76 
   0  -4 -18    4.49    0.84 
   0   4  18    3.93    0.89 
   0  -4 -19   16.02    1.68 
   0  -4 -19   20.55    1.72 
   0   4  19   19.52    1.82 
   0  -4 -20    4.65    1.03 
   0  -4 -20    5.83    1.03 
   0   4  20    6.70    1.20 
   0  -5  15    2.10    0.78 
   0  -5  15    1.70    0.74 
   0   5 -15    1.58    0.72 
   0   5 -15    1.88    0.77 
   0  -5  14   34.47    2.31 
   0  -5  14   28.91    2.17 
   0   5 -14   31.53    2.24 
   0   5 -14   36.23    2.43 
   0  -5  13   23.41    1.85 
   0  -5  13   19.34    1.73 
   0   5 -13   20.55    1.77 
   0   5 -13   20.17    1.76 
   0   5 -13   20.41    1.80 
   0  -5  12   19.06    1.61 
   0  -5  12   17.46    1.60 
   0   5 -12   17.03    1.56 
   0   5 -12   19.72    1.67 
   0   5 -12   17.70    1.62 
   0   5 -12   19.52    1.63 
   0  -5  11   26.86    1.82 
   0  -5  11   24.99    1.82 
   0   5 -11   26.39    1.84 
   0   5 -11   27.14    1.86 
   0   5 -11   26.94    1.89 
   0   5 -11   29.54    1.91 
   0  -5  10    9.59    1.12 
   0   5 -10   10.08    1.13 
   0   5 -10   11.46    1.20 
   0   5 -10    9.36    1.11 
   0   5 -10   10.32    1.13 
   0  -5   9   68.13    2.78 
   0   5  -9   87.73    3.07 
   0   5  -9   84.47    2.99 
   0   5  -9   74.25    2.86 
   0   5  -9   79.29    2.84 
   0  -5   8    2.43    0.60 
   0   5  -8    2.82    0.63 
   0   5  -8    2.77    0.61 
   0   5  -8    2.40    0.58 
   0   5  -8    2.94    0.64 
   0  -5   7  101.23    3.16 
   0   5  -7  131.15    3.48 
   0   5  -7  130.76    3.40 
   0   5  -7  140.18    3.65 
   0   5  -7  115.22    3.28 
   0   5  -7  137.84    3.45 
   0  -5   6    9.10    0.94 
   0  -5   6   13.67    0.60 
   0   5  -6   11.76    1.03 
   0   5  -6   13.35    1.06 
   0   5  -6   13.37    1.11 
   0   5  -6   11.83    1.02 
   0   5  -6   12.34    1.01 
   0  -5   5   75.85    2.53 
   0  -5   5  108.13    1.90 
   0   5  -5  119.56    3.08 
   0   5  -5  107.82    2.79 
   0   5  -5  120.08    3.13 
   0   5  -5   99.18    2.76 
   0   5  -5  108.20    2.78 
   0  -5   4   49.06    1.95 
   0  -5   4   62.24    1.52 
   0   5  -4   70.21    2.26 
   0   5  -4   68.89    2.10 
   0   5  -4   75.73    2.39 
   0   5  -4   62.08    2.06 
   0   5  -4   71.86    2.15 
   0  -5   3   62.68    2.11 
   0  -5   3   70.72    1.71 
   0   5  -3   98.91    2.61 
   0   5  -3   91.71    2.29 
   0   5  -3   99.69    2.65 
   0   5  -3   78.59    2.20 
   0   5  -3   91.51    2.33 
   0  -5   2   38.71    1.44 
   0  -5   2   99.41    2.56 
   0  -5   2  108.44    2.22 
   0   5  -2  168.83    3.34 
   0   5  -2  152.44    2.82 
   0   5  -2  168.87    3.39 
   0   5  -2  129.40    2.68 
   0   5  -2  158.61    2.97 
   0  -5   1   23.04    1.04 
   0  -5   1   22.20    1.15 
   0  -5   1   23.36    1.05 
   0   5  -1   35.39    1.47 
   0   5  -1   34.03    1.22 
   0   5  -1   36.39    1.51 
   0   5  -1   35.83    1.33 
   0  -5   0  141.86    2.38 
   0  -5   0  180.60    2.74 
   0  -5   0  114.14    2.18 
   0  -5   0  110.07    2.45 
   0  -5   0  103.75    2.31 
   0   5   0  180.28    3.31 
   0   5   0  179.41    3.35 
   0   5   0  179.11    2.97 
   0  -5  -1    0.27    0.20 
   0  -5  -1    0.35    0.19 
   0  -5  -1    0.27    0.18 
   0  -5  -1    0.00    0.08 
   0  -5  -1    0.34    0.25 
   0   5   1   -0.01    0.26 
   0   5   1    0.11    0.29 
   0   5   1    0.20    0.25 
   0  -5  -2  317.49    3.40 
   0  -5  -2  380.82    3.90 
   0  -5  -2  210.01    2.60 
   0  -5  -2  244.37    3.39 
   0  -5  -2  190.62    3.37 
   0   5   2  358.07    4.77 
   0   5   2  366.75    4.89 
   0   5   2  370.05    4.38 
   0   5   2  231.28    3.27 
   0  -5  -3   66.66    1.33 
   0  -5  -3   72.86    1.40 
   0  -5  -3   42.74    0.95 
   0  -5  -3   69.73    1.26 
   0  -5  -3   51.18    1.36 
   0  -5  -3   41.68    1.57 
   0   5   3   71.06    2.01 
   0   5   3   69.98    2.02 
   0   5   3   72.80    1.79 
   0   5   3   48.68    1.32 
   0  -5  -4   65.80    1.31 
   0  -5  -4   40.05    0.79 
   0  -5  -4   70.08    1.12 
   0  -5  -4   51.65    1.25 
   0  -5  -4   36.67    1.51 
   0   5   4   64.81    1.94 
   0   5   4   69.68    1.34 
   0   5   4   64.69    1.96 
   0   5   4   68.69    1.78 
   0   5   4   44.88    1.16 
   0  -5  -5   85.99    1.55 
   0  -5  -5   78.03    1.39 
   0  -5  -5   50.32    1.82 
   0   5   5   89.14    2.34 
   0   5   5   98.26    1.65 
   0   5   5   89.29    2.36 
   0   5   5   95.48    2.17 
   0   5   5   66.75    1.26 
   0  -5  -6   13.24    0.63 
   0  -5  -6   13.88    0.46 
   0  -5  -6   14.58    0.47 
   0  -5  -6    8.79    0.81 
   0   5   6   13.88    0.96 
   0   5   6   16.59    0.70 
   0   5   6   16.13    1.04 
   0   5   6   15.68    0.92 
   0  -5  -7  121.22    2.08 
   0  -5  -7   85.14    2.49 
   0   5   7  139.91    3.13 
   0   5   7  156.96    2.40 
   0   5   7  144.83    2.92 
   0  -5  -8   10.11    0.64 
   0  -5  -8    7.99    0.82 
   0   5   8   10.45    0.91 
   0   5   8   13.65    0.76 
   0   5   8   12.62    0.46 
   0   5   8   13.12    0.93 
   0  -5  -9  171.63    3.74 
   0  -5  -9  144.98    2.62 
   0  -5  -9  122.96    1.80 
   0  -5  -9  114.38    3.04 
   0   5   9  169.15    3.70 
   0   5   9  196.99    2.37 
   0   5   9  175.14    3.53 
   0  -5 -10    1.58    0.49 
   0  -5 -10    1.52    0.35 
   0  -5 -10    1.36    0.24 
   0  -5 -10    0.91    0.40 
   0   5  10    1.68    0.31 
   0   5  10    2.12    0.51 
   0  -5 -11  131.57    3.51 
   0  -5 -11  109.67    2.57 
   0  -5 -11   98.26    1.93 
   0  -5 -11   91.67    2.84 
   0   5  11  149.55    2.42 
   0   5  11  126.43    3.26 
   0  -5 -12   16.02    1.29 
   0  -5 -12   15.97    1.04 
   0  -5 -12   13.55    0.77 
   0  -5 -12   12.13    1.08 
   0   5  12   15.86    1.23 
   0  -5 -13   77.06    2.89 
   0  -5 -13   71.92    2.32 
   0  -5 -13   66.70    1.85 
   0  -5 -13   64.50    2.49 
   0   5  13   80.21    2.82 
   0  -5 -14   27.41    1.81 
   0  -5 -14   27.81    1.52 
   0  -5 -14   25.12    1.21 
   0  -5 -14   24.56    1.58 
   0   5  14   31.74    1.86 
   0  -5 -15   14.40    1.39 
   0  -5 -15   14.69    1.19 
   0  -5 -15   13.60    1.23 
   0   5  15   15.77    1.40 
   0  -5 -16   42.31    2.41 
   0  -5 -16   43.95    2.11 
   0  -5 -16   41.71    2.14 
   0   5  16   47.59    2.47 
   0  -5 -17    0.36    0.51 
   0  -5 -17    0.29    0.42 
   0  -5 -17    0.80    0.45 
   0   5  17    0.53    0.52 
   0  -5 -18   39.22    2.50 
   0  -5 -18   47.92    2.42 
   0  -5 -18   44.06    2.29 
   0   5  18   50.27    2.75 
   0  -5 -19   -0.43    0.46 
   0  -5 -19    0.51    0.49 
   0  -5 -19    0.38    0.49 
   0   5  19   -0.05    0.52 
   0  -5 -20   17.38    1.83 
   0   5  20   22.77    2.03 
   0  -6  14    0.63    0.62 
   0  -6  14    0.23    0.58 
   0   6 -14    0.81    0.62 
   0   6 -14    0.10    0.54 
   0  -6  13   39.69    2.48 
   0  -6  13   35.85    2.47 
   0   6 -13   38.73    2.50 
   0   6 -13   39.62    2.53 
   0  -6  12   12.88    1.41 
   0  -6  12   10.08    1.32 
   0   6 -12   10.36    1.31 
   0   6 -12   13.33    1.46 
   0   6 -12   12.33    1.44 
   0   6 -12   13.27    1.43 
   0  -6  11   20.82    1.78 
   0   6 -11   25.01    1.89 
   0   6 -11   24.80    1.87 
   0   6 -11   24.11    1.89 
   0   6 -11   25.30    1.85 
   0  -6  10   24.99    1.88 
   0   6 -10   30.28    1.99 
   0   6 -10   31.60    2.01 
   0   6 -10   28.82    1.98 
   0   6 -10   31.98    1.99 
   0  -6   9    9.30    1.15 
   0   6  -9   11.79    1.25 
   0   6  -9   11.15    1.18 
   0   6  -9    9.93    1.15 
   0   6  -9   11.83    1.20 
   0  -6   8   47.98    2.41 
   0   6  -8   64.71    2.69 
   0   6  -8   67.05    2.67 
   0   6  -8   56.25    2.52 
   0   6  -8   61.96    2.53 
   0  -6   7   -0.08    0.33 
   0   6  -7    0.23    0.38 
   0   6  -7    0.21    0.36 
   0   6  -7    0.21    0.40 
   0   6  -7    0.03    0.32 
   0   6  -7    0.48    0.41 
   0  -6   6   55.00    2.40 
   0   6  -6   80.88    2.81 
   0   6  -6   81.85    2.69 
   0   6  -6   81.07    2.85 
   0   6  -6   73.20    2.64 
   0   6  -6   80.97    2.67 
   0  -6   5    2.13    0.55 
   0  -6   5    3.94    0.46 
   0   6  -5    3.97    0.69 
   0   6  -5    4.25    0.64 
   0   6  -5    4.07    0.70 
   0   6  -5    3.51    0.63 
   0   6  -5    3.73    0.63 
   0  -6   4   84.04    2.76 
   0  -6   4  111.79    2.32 
   0   6  -4  134.75    3.42 
   0   6  -4  129.90    3.10 
   0   6  -4  131.63    3.43 
   0   6  -4  108.35    2.93 
   0   6  -4  128.90    3.12 
   0  -6   3   41.19    1.86 
   0  -6   3   50.25    1.60 
   0   6  -3   64.70    2.29 
   0   6  -3   60.57    1.99 
   0   6  -3   66.87    2.37 
   0   6  -3   65.11    2.12 
   0  -6   2   55.35    2.07 
   0  -6   2   59.15    1.81 
   0   6  -2   86.81    2.59 
   0   6  -2   84.59    2.23 
   0   6  -2   83.97    2.59 
   0   6  -2   83.10    2.31 
   0  -6   1  102.04    2.32 
   0  -6   1   64.79    2.15 
   0  -6   1   66.19    1.97 
   0   6  -1   99.43    2.71 
   0   6  -1  105.35    2.84 
   0   6  -1  105.43    2.52 
   0  -6   0   39.96    1.35 
   0  -6   0   25.55    1.12 
   0  -6   0   26.60    1.32 
   0  -6   0   25.59    1.26 
   0   6   0   39.05    1.68 
   0   6   0   40.90    1.74 
   0   6   0   39.63    1.50 
   0  -6  -1  204.93    3.00 
   0  -6  -1  264.99    3.49 
   0  -6  -1  159.95    2.66 
   0  -6  -1   49.31    1.70 
   0  -6  -1  147.88    3.14 
   0   6   1  253.74    4.32 
   0   6   1  260.31    4.45 
   0   6   1  263.14    3.93 
   0  -6  -2    0.09    0.19 
   0  -6  -2    0.53    0.24 
   0  -6  -2    0.29    0.20 
   0  -6  -2    0.33    0.25 
   0  -6  -2    0.24    0.29 
   0   6   2    0.01    0.31 
   0   6   2    0.04    0.32 
   0   6   2   -0.10    0.26 
   0  -6  -3  199.97    2.67 
   0  -6  -3  234.95    2.97 
   0  -6  -3  140.39    2.07 
   0  -6  -3  225.13    2.77 
   0  -6  -3  163.66    2.85 
   0  -6  -3  128.90    3.05 
   0   6   3  225.21    4.03 
   0   6   3  217.87    4.01 
   0   6   3  222.61    3.55 
   0  -6  -4   11.18    0.58 
   0  -6  -4   12.20    0.61 
   0  -6  -4    7.71    0.40 
   0  -6  -4   11.91    0.50 
   0  -6  -4    8.44    0.60 
   0  -6  -4    7.16    0.77 
   0   6   4   10.29    0.88 
   0   6   4   10.51    0.91 
   0   6   4   10.98    0.80 
   0   6   4    8.49    0.60 
   0  -6  -5  141.43    2.13 
   0  -6  -5  120.10    2.07 
   0  -6  -5   87.77    2.61 
   0   6   5  146.76    3.28 
   0   6   5  145.36    3.30 
   0   6   5  147.08    2.91 
   0   6   5  112.23    1.99 
   0  -6  -6   13.82    0.65 
   0  -6  -6   13.34    0.59 
   0  -6  -6    7.62    0.82 
   0   6   6   14.01    1.05 
   0   6   6   16.46    0.72 
   0   6   6   13.50    1.04 
   0   6   6   15.51    0.99 
   0   6   6   11.88    0.56 
   0  -6  -7   72.82    1.57 
   0  -6  -7   47.60    2.01 
   0   6   7   75.90    2.44 
   0   6   7   90.62    1.77 
   0   6   7   78.78    2.50 
   0   6   7   84.96    2.32 
   0  -6  -8  104.31    2.02 
   0  -6  -8   71.45    2.51 
   0   6   8  112.55    3.06 
   0   6   8  133.72    2.31 
   0   6   8  108.59    3.02 
   0   6   8  119.41    2.87 
   0  -6  -9   22.69    0.99 
   0  -6  -9   16.41    1.25 
   0   6   9   25.81    1.52 
   0   6   9   24.73    1.50 
   0   6   9   27.78    1.45 
   0  -6 -10   93.39    2.15 
   0  -6 -10   70.43    2.60 
   0   6  10   98.67    3.04 
   0   6  10  107.30    2.94 
   0  -6 -11    0.38    0.40 
   0  -6 -11    0.15    0.24 
   0  -6 -11    0.11    0.35 
   0   6  11    0.41    0.40 
   0   6  11   -0.01    0.36 
   0  -6 -12   99.89    3.27 
   0  -6 -12   88.51    2.37 
   0  -6 -12   75.30    2.80 
   0   6  12   95.58    3.20 
   0   6  12  105.36    3.16 
   0  -6 -13    1.06    0.52 
   0  -6 -13    1.62    0.42 
   0  -6 -13    1.11    0.49 
   0   6  13    2.34    0.62 
   0  -6 -14   52.39    2.54 
   0  -6 -14   45.42    1.89 
   0  -6 -14   42.82    2.21 
   0   6  14   54.23    2.45 
   0  -6 -15    8.31    1.12 
   0  -6 -15    7.63    0.85 
   0  -6 -15    6.55    0.94 
   0   6  15    7.59    1.03 
   0  -6 -16   34.06    2.21 
   0  -6 -16   35.45    1.85 
   0  -6 -16   33.97    2.06 
   0   6  16   37.86    2.23 
   0  -6 -17   15.34    1.58 
   0  -6 -17   13.17    1.34 
   0   6  17   17.25    1.60 
   0  -6 -18    9.35    1.31 
   0  -6 -18   12.32    1.33 
   0   6  18   11.86    1.40 
   0  -6 -19   26.89    2.18 
   0  -6 -19   27.09    1.96 
   0   6  19   28.65    2.19 
   0  -7  12   31.30    2.22 
   0  -7  12   29.08    2.29 
   0   7 -12   32.90    2.34 
   0   7 -12   33.21    2.33 
   0   7 -12   34.18    2.31 
   0  -7  11    3.11    0.86 
   0   7 -11    2.00    0.72 
   0   7 -11    3.18    0.81 
   0   7 -11    3.30    0.83 
   0  -7  10   23.79    1.94 
   0   7 -10   24.57    1.91 
   0   7 -10   29.83    2.05 
   0   7 -10   25.30    1.86 
   0  -7   9   11.25    1.33 
   0   7  -9   12.78    1.37 
   0   7  -9   14.94    1.41 
   0   7  -9   13.28    1.33 
   0  -7   8   22.10    1.76 
   0   7  -8   28.98    1.93 
   0   7  -8   28.73    1.85 
   0   7  -8   28.41    1.94 
   0   7  -8   30.05    1.88 
   0  -7   7   32.47    2.05 
   0   7  -7   38.90    2.16 
   0   7  -7   44.00    2.18 
   0   7  -7   41.65    2.27 
   0   7  -7   41.77    2.11 
   0  -7   6   10.58    1.17 
   0   7  -6   13.57    1.27 
   0   7  -6   11.84    1.13 
   0   7  -6   13.83    1.31 
   0   7  -6   13.65    1.20 
   0  -7   5   64.41    2.69 
   0   7  -5   98.21    3.22 
   0   7  -5   97.70    2.97 
   0   7  -5   99.76    3.30 
   0   7  -5   95.36    2.96 
   0  -7   4    0.17    0.34 
   0  -7   4    0.28    0.29 
   0   7  -4    0.21    0.39 
   0   7  -4    0.37    0.35 
   0   7  -4    0.41    0.39 
   0  -7   3   64.11    2.50 
   0  -7   3   82.32    2.27 
   0   7  -3  101.62    3.12 
   0   7  -3   98.77    3.12 
   0   7  -3  104.36    2.89 
   0  -7   2   21.78    1.22 
   0  -7   2   13.21    1.12 
   0  -7   2   13.66    0.98 
   0   7  -2   19.37    1.36 
   0   7  -2   19.73    1.39 
   0   7  -2   19.67    1.23 
   0  -7   1   78.60    2.18 
   0  -7   1   47.13    2.00 
   0  -7   1   51.69    1.90 
   0   7  -1   73.27    2.54 
   0   7  -1   73.40    2.58 
   0   7  -1   76.17    2.31 
   0  -7   0   27.69    1.22 
   0  -7   0   17.72    1.19 
   0  -7   0   16.51    1.12 
   0   7   0   24.51    1.47 
   0   7   0   26.56    1.55 
   0   7   0   24.99    1.31 
   0  -7  -1   54.99    1.62 
   0  -7  -1   36.27    1.35 
   0  -7  -1   27.70    1.41 
   0  -7  -1   31.44    1.56 
   0   7   1   49.47    2.03 
   0   7   1   51.74    2.12 
   0   7   1   52.11    1.83 
   0  -7  -2   84.62    1.90 
   0  -7  -2   54.66    1.52 
   0  -7  -2   57.43    1.93 
   0  -7  -2   49.48    1.99 
   0   7   2   82.16    2.60 
   0   7   2   77.90    2.57 
   0   7   2   83.82    2.30 
   0  -7  -3   30.64    1.08 
   0  -7  -3   40.18    1.23 
   0  -7  -3   25.78    0.94 
   0  -7  -3   39.42    1.17 
   0  -7  -3   27.56    1.27 
   0  -7  -3   23.18    1.40 
   0   7   3   37.06    1.75 
   0   7   3   36.13    1.75 
   0   7   3   38.58    1.55 
   0  -7  -4  106.21    1.94 
   0  -7  -4  129.25    2.17 
   0  -7  -4   86.08    1.54 
   0  -7  -4  128.49    1.94 
   0  -7  -4   96.92    2.26 
   0  -7  -4   70.50    2.47 
   0   7   4  120.50    3.17 
   0   7   4  120.56    3.21 
   0   7   4  124.74    2.82 
   0  -7  -5   -0.02    0.21 
   0  -7  -5    0.06    0.19 
   0  -7  -5    0.35    0.25 
   0  -7  -5    0.19    0.35 
   0   7   5   -0.17    0.33 
   0   7   5    0.44    0.40 
   0   7   5    0.02    0.33 
   0  -7  -6   92.39    1.75 
   0  -7  -6   85.44    1.80 
   0  -7  -6   56.19    2.29 
   0   7   6   91.33    2.81 
   0   7   6   90.26    2.83 
   0   7   6   92.03    2.49 
   0  -7  -7   27.24    0.95 
   0  -7  -7   29.49    0.90 
   0  -7  -7   17.79    1.34 
   0   7   7   29.59    1.64 
   0   7   7   30.74    1.69 
   0   7   7   32.03    1.51 
   0  -7  -8   75.82    1.67 
   0  -7  -8   54.82    2.35 
   0   7   8   79.99    2.73 
   0   7   8   83.25    2.81 
   0   7   8   90.89    2.61 
   0  -7  -9   45.86    1.36 
   0  -7  -9   33.64    1.89 
   0   7   9   51.80    2.25 
   0   7   9   51.58    2.27 
   0   7   9   58.17    2.16 
   0  -7 -10   11.00    0.72 
   0  -7 -10    9.54    1.06 
   0   7  10   13.23    1.20 
   0   7  10   14.04    1.24 
   0   7  10   17.52    1.26 
   0  -7 -11   40.36    1.44 
   0  -7 -11   33.93    1.97 
   0   7  11   52.68    2.40 
   0   7  11   50.73    2.37 
   0   7  11   53.71    2.22 
   0  -7 -12    2.82    0.67 
   0   7  12    4.18    0.79 
   0   7  12    5.30    0.80 
   0  -7 -13   42.62    2.29 
   0   7  13   54.53    2.59 
   0   7  13   62.85    2.59 
   0  -7 -14    0.10    0.40 
   0   7  14    0.23    0.48 
   0   7  14    0.05    0.43 
   0  -7 -15   44.72    2.51 
   0  -7 -15   36.32    2.21 
   0   7  15   44.40    2.50 
   0   7  15   47.20    2.42 
   0  -7 -16    7.09    1.12 
   0  -7 -16    6.82    1.04 
   0   7  16    7.52    1.15 
   0   7  16    6.94    1.06 
   0  -7 -17   31.51    2.26 
   0  -7 -17   27.31    2.00 
   0   7  17   28.71    2.16 
   0   7  17   33.17    2.21 
   0  -7 -18   33.83    2.41 
   0  -7 -18   28.74    2.09 
   0   7  18   35.83    2.49 
   0   7  18   34.79    2.34 
   0  -8  10    0.31    0.56 
   0   8 -10    0.37    0.55 
   0   8 -10    0.83    0.61 
   0   8 -10    0.74    0.59 
   0  -8   9   23.14    1.98 
   0   8  -9   26.84    2.04 
   0   8  -9   30.31    2.07 
   0   8  -9   30.96    2.07 
   0  -8   8    7.42    1.14 
   0   8  -8    7.86    1.13 
   0   8  -8    8.58    1.13 
   0   8  -8    7.82    1.15 
   0   8  -8    8.77    1.13 
   0  -8   7   22.60    1.84 
   0   8  -7   29.41    2.01 
   0   8  -7   30.64    1.93 
   0   8  -7   28.60    2.02 
   0   8  -7   30.76    1.92 
   0  -8   6   31.03    2.07 
   0   8  -6   40.60    2.29 
   0   8  -6   43.80    2.20 
   0   8  -6   40.32    2.32 
   0   8  -6   42.51    2.17 
   0  -8   5   13.37    1.35 
   0   8  -5   22.73    1.69 
   0   8  -5   19.51    1.60 
   0   8  -5   20.72    1.49 
   0  -8   4   52.92    2.20 
   0  -8   4   36.88    2.12 
   0   8  -4   54.54    2.52 
   0   8  -4   50.51    2.46 
   0   8  -4   53.14    2.27 
   0  -8   3    0.41    0.37 
   0  -8   3    0.78    0.45 
   0  -8   3    0.55    0.36 
   0   8  -3    0.90    0.51 
   0   8  -3    0.57    0.47 
   0   8  -3    0.86    0.43 
   0  -8   2   75.95    2.39 
   0  -8   2   50.03    2.30 
   0  -8   2   57.38    2.12 
   0   8  -2   71.52    2.76 
   0   8  -2   73.45    2.84 
   0   8  -2   74.19    2.52 
   0  -8   1    1.70    0.44 
   0  -8   1    1.29    0.48 
   0  -8   1    1.45    0.46 
   0   8  -1    1.32    0.54 
   0   8  -1    1.73    0.58 
   0   8  -1    0.98    0.44 
   0  -8   0   67.28    2.03 
   0  -8   0   42.90    1.98 
   0  -8   0   44.52    1.96 
   0   8   0   61.70    2.49 
   0   8   0   63.65    2.57 
   0   8   0   67.09    2.29 
   0  -8  -1   23.88    1.15 
   0  -8  -1   12.54    1.04 
   0  -8  -1   15.54    1.20 
   0   8   1   20.82    1.46 
   0   8   1   21.97    1.52 
   0   8   1   20.71    1.27 
   0  -8  -2  108.30    2.32 
   0  -8  -2   71.07    2.35 
   0  -8  -2   57.91    2.32 
   0   8   2   94.33    3.03 
   0   8   2  101.66    3.19 
   0   8   2  100.76    2.73 
   0  -8  -3  117.96    2.30 
   0  -8  -3  108.81    2.15 
   0  -8  -3   87.75    2.50 
   0  -8  -3   66.25    2.53 
   0   8   3  106.81    3.21 
   0   8   3  110.82    3.32 
   0   8   3  117.77    2.93 
   0  -8  -4   15.84    0.79 
   0  -8  -4   15.27    0.69 
   0  -8  -4   13.34    0.94 
   0  -8  -4   10.54    1.06 
   0   8   4   18.04    1.35 
   0   8   4   17.64    1.36 
   0   8   4   17.93    1.17 
   0  -8  -5   85.52    1.75 
   0  -8  -5   92.95    2.29 
   0  -8  -5   60.23    2.49 
   0   8   5  105.34    3.21 
   0   8   5  103.14    3.22 
   0   8   5  106.45    2.80 
   0  -8  -6    9.15    0.68 
   0  -8  -6    6.22    0.88 
   0   8   6   10.18    1.06 
   0   8   6   10.73    1.09 
   0   8   6   10.08    0.92 
   0  -8  -7   37.53    2.05 
   0   8   7   58.66    2.45 
   0   8   7   58.66    2.48 
   0   8   7   60.93    2.18 
   0  -8  -8    6.64    0.93 
   0   8   8   11.08    1.13 
   0   8   8    9.87    1.08 
   0   8   8   10.76    0.99 
   0  -8  -9   31.95    1.96 
   0   8   9   48.39    2.31 
   0   8   9   49.98    2.36 
   0   8   9   54.40    2.17 
   0  -8 -10   17.53    1.50 
   0   8  10   26.23    1.76 
   0   8  10   29.56    1.87 
   0   8  10   32.35    1.74 
   0  -8 -11   24.74    1.80 
   0   8  11   34.36    2.04 
   0   8  11   34.99    2.07 
   0   8  11   37.82    1.93 
   0  -8 -12   41.85    2.36 
   0   8  12   55.59    2.65 
   0   8  12   64.05    2.86 
   0   8  12   66.01    2.63 
   0  -8 -13    4.82    0.91 
   0   8  13    9.32    1.18 
   0   8  13    8.30    1.12 
   0   8  13   10.39    1.15 
   0  -8 -14   44.73    2.53 
   0   8  14   61.31    2.93 
   0   8  14   62.10    2.97 
   0   8  14   66.38    2.82 
   0  -8 -15    0.32    0.49 
   0   8  15    0.47    0.55 
   0   8  15   -0.24    0.44 
   0   8  15    0.63    0.55 
   0  -8 -16   28.19    2.11 
   0   8  16   32.53    2.29 
   0   8  16   38.04    2.30 
   0  -8 -17    4.05    0.93 
   0   8  17    4.03    0.97 
   0   8  17    4.84    0.98 
   0  -9   8   16.04    1.72 
   0   9  -8   18.10    1.74 
   0   9  -8   20.27    1.87 
   0   9  -8   19.64    1.70 
   0  -9   7    1.89    0.66 
   0  -9   7    1.02    0.63 
   0   9  -7    2.87    0.82 
   0   9  -7    1.72    0.71 
   0   9  -7    2.65    0.75 
   0  -9   6   24.93    1.75 
   0  -9   6   18.08    1.72 
   0   9  -6   22.65    1.85 
   0   9  -6   23.82    1.92 
   0   9  -6   22.15    1.69 
   0  -9   5   27.21    1.75 
   0  -9   5   17.91    1.65 
   0   9  -5   24.05    1.86 
   0   9  -5   22.76    1.84 
   0   9  -5   25.47    1.74 
   0  -9   4   20.18    1.46 
   0  -9   4   11.70    1.31 
   0   9  -4   18.92    1.63 
   0   9  -4   16.17    1.54 
   0   9  -4   19.92    1.50 
   0  -9   3   63.75    2.42 
   0  -9   3   39.53    2.27 
   0   9  -3   58.96    2.74 
   0   9  -3   58.62    2.79 
   0   9  -3   60.43    2.49 
   0  -9   2    6.74    0.97 
   0  -9   2    6.89    0.86 
   0   9  -2    8.64    1.11 
   0   9  -2    8.21    1.11 
   0   9  -2    9.32    1.01 
   0  -9   1   54.69    2.49 
   0  -9   1   58.61    2.36 
   0   9  -1   78.92    3.07 
   0   9  -1   77.66    3.10 
   0   9  -1   79.78    2.72 
   0  -9   0    0.76    0.44 
   0  -9   0    0.69    0.42 
   0   9   0    0.74    0.58 
   0   9   0    0.31    0.50 
   0   9   0    0.52    0.46 
   0  -9  -1   38.01    1.93 
   0  -9  -1   63.53    2.56 
   0   9   1   93.97    3.28 
   0   9   1   89.39    3.25 
   0   9   1   96.71    2.89 
   0  -9  -2   24.94    1.52 
   0  -9  -2   23.34    1.60 
   0   9   2   30.39    1.88 
   0   9   2   32.96    1.99 
   0   9   2   33.02    1.69 
   0  -9  -3   40.23    1.84 
   0  -9  -3   33.23    1.93 
   0   9   3   51.67    2.41 
   0   9   3   49.53    2.40 
   0   9   3   53.74    2.12 
   0  -9  -4   60.96    2.15 
   0  -9  -4   43.67    2.23 
   0   9   4   71.96    2.84 
   0   9   4   77.17    2.99 
   0   9   4   76.82    2.52 
   0  -9  -5   24.92    1.31 
   0  -9  -5   17.95    1.48 
   0   9   5   31.85    1.92 
   0   9   5   27.37    1.81 
   0   9   5   29.44    1.58 
   0  -9  -6   48.57    2.43 
   0   9   6   79.22    3.00 
   0   9   6   82.29    3.11 
   0   9   6   83.73    2.66 
   0  -9  -7    2.71    0.70 
   0   9   7    5.83    0.93 
   0   9   7    5.29    0.91 
   0   9   7    6.04    0.82 
   0  -9  -8   76.29    3.15 
   0   9   8  128.50    3.92 
   0   9   8  126.26    3.93 
   0   9   8  136.56    3.52 
   0  -9  -9    0.26    0.45 
   0   9   9   -0.17    0.42 
   0   9   9    0.13    0.47 
   0   9   9    0.21    0.43 
   0  -9 -10   48.85    2.62 
   0   9  10   74.20    3.08 
   0   9  10   72.10    3.06 
   0   9  10   83.19    2.87 
   0  -9 -11    9.59    1.23 
   0   9  11   11.96    1.32 
   0   9  11   12.19    1.35 
   0   9  11   13.37    1.24 
   0  -9 -12   28.50    2.08 
   0   9  12   52.30    2.70 
   0   9  12   50.07    2.66 
   0   9  12   49.37    2.35 
   0  -9 -13   26.98    2.06 
   0   9  13   36.94    2.33 
   0   9  13   41.22    2.48 
   0   9  13   44.22    2.29 
   0  -9 -14    6.54    1.10 
   0   9  14    7.52    1.16 
   0   9  14    7.22    1.16 
   0   9  14    8.69    1.14 
   0  -9 -15   21.94    1.94 
   0   9  15   29.22    2.19 
   0   9  15   25.22    2.05 
   0   9  15   31.34    2.07 
   0  -9 -16    1.55    0.70 
   0   9  16    2.80    0.84 
   0   9  16    3.09    0.89 
   0   9  16    1.69    0.72 
   0 -10   6    1.66    0.74 
   0  10  -6    2.11    0.79 
   0  10  -6    1.72    0.75 
   0 -10   5   32.43    2.33 
   0  10  -5   40.47    2.54 
   0  10  -5   43.87    2.69 
   0 -10   4    3.97    0.91 
   0  10  -4    6.86    1.12 
   0  10  -4    6.84    1.14 
   0 -10   3   19.18    1.71 
   0  10  -3   21.46    1.81 
   0  10  -3   23.20    1.92 
   0 -10   2   27.04    1.96 
   0  10  -2   33.75    2.21 
   0  10  -2   35.33    2.30 
   0 -10   1    7.82    1.07 
   0 -10   1   10.29    1.12 
   0  10  -1   13.31    1.42 
   0  10  -1   12.70    1.42 
   0 -10   0   48.44    2.43 
   0 -10   0   46.69    2.31 
   0  10   0   65.16    2.96 
   0  10   0   56.85    2.82 
   0  10   0   61.33    2.49 
   0 -10  -1    0.03    0.22 
   0 -10  -1    0.44    0.46 
   0  10   1    1.14    0.66 
   0  10   1    0.80    0.61 
   0  10   1    0.44    0.49 
   0 -10  -2   55.49    2.42 
   0 -10  -2   44.07    2.32 
   0  10   2   64.37    2.90 
   0  10   2   67.69    3.02 
   0  10   2   68.98    2.56 
   0 -10  -3    3.18    0.65 
   0 -10  -3    3.03    0.72 
   0  10   3    3.95    0.88 
   0  10   3    2.97    0.81 
   0  10   3    3.66    0.72 
   0 -10  -4   39.65    2.27 
   0  10   4   64.96    2.90 
   0  10   4   62.21    2.88 
   0  10   4   67.39    2.51 
   0 -10  -5   12.78    1.35 
   0  10   5   22.87    1.76 
   0  10   5   20.32    1.70 
   0  10   5   22.86    1.50 
   0 -10  -6   27.56    1.96 
   0  10   6   40.67    2.32 
   0  10   6   42.88    2.41 
   0  10   6   47.02    2.12 
   0 -10  -7   19.97    1.71 
   0  10   7   37.16    2.23 
   0  10   7   34.89    2.20 
   0  10   7   36.88    1.90 
   0 -10  -8    3.43    0.82 
   0  10   8    6.16    1.02 
   0  10   8    5.71    1.00 
   0  10   8    6.86    0.92 
   0 -10  -9   27.22    2.04 
   0  10   9   44.31    2.48 
   0  10   9   39.62    2.38 
   0  10   9   49.24    2.25 
   0 -10 -10    0.42    0.51 
   0  10  10    0.13    0.54 
   0  10  10    0.15    0.53 
   0  10  10    0.29    0.49 
   0 -10 -11   38.53    2.50 
   0  10  11   55.56    2.86 
   0  10  11   56.86    2.93 
   0 -10 -12    2.99    0.85 
   0  10  12    4.00    0.92 
   0  10  12    4.23    0.95 
   0 -10 -13   18.63    1.82 
   0  10  13   23.71    1.97 
   0  10  13   25.51    2.06 
   0 -10 -14    6.52    1.17 
   0  10  14    8.01    1.25 
   0  10  14    8.95    1.31 
   0 -11   2   22.50    1.91 
   0  11  -2   30.31    2.23 
   0  11  -2   33.17    2.37 
   0 -11   1    8.43    1.19 
   0  11  -1   11.60    1.44 
   0  11  -1   11.34    1.44 
   0 -11   0    9.36    1.20 
   0 -11   0   12.33    1.32 
   0  11   0   12.62    1.48 
   0  11   0   13.73    1.55 
   0 -11  -1   21.22    1.72 
   0  11   1   25.70    2.02 
   0  11   1   25.07    2.03 
   0 -11  -2    3.23    0.79 
   0  11   2    3.90    0.95 
   0  11   2    5.82    1.10 
   0 -11  -3   30.44    2.10 
   0  11   3   38.49    2.41 
   0  11   3   42.50    2.57 
   0 -11  -4    0.41    0.52 
   0  11   4    0.25    0.59 
   0  11   4    0.26    0.60 
   0 -11  -5   36.58    2.36 
   0  11   5   57.15    2.91 
   0  11   5   52.00    2.82 
   0 -11  -6    5.68    1.03 
   0  11   6    8.70    1.23 
   0  11   6    8.10    1.23 
   0 -11  -7   15.17    1.60 
   0  11   7   26.57    2.03 
   0  11   7   23.78    1.96 
   0 -11  -8    9.63    1.31 
   0  11   8   15.40    1.59 
   0  11   8   16.51    1.68 
   0 -11  -9   13.51    1.56 
   0  11   9   19.97    1.81 
   0  11   9   21.15    1.89 
   0 -11 -10   17.37    1.78 
   0  11  10   27.38    2.11 
   0  11  10   29.52    2.22 
   0 -11 -11    1.71    0.73 
   0  11  11    2.53    0.83 
   0  11  11    1.65    0.77 
  -1  11   8   37.20    2.55 
  -1  11   8   37.29    2.58 
   1 -11  -8   23.86    2.08 
  -1  11   7   10.33    1.43 
  -1  11   7   12.94    1.59 
   1 -11  -7    8.71    1.29 
  -1  11   6   28.38    2.23 
  -1  11   6   29.77    2.30 
   1 -11  -6   19.44    1.83 
  -1  11   5   27.54    2.19 
  -1  11   5   27.35    2.20 
   1 -11  -5   19.64    1.82 
  -1  11   4   12.25    1.53 
  -1  11   4   13.06    1.59 
   1 -11  -4    8.68    1.25 
  -1  11   3   38.49    2.57 
  -1  11   3   37.91    2.58 
   1 -11  -3   27.69    2.07 
  -1  11   2    0.07    0.63 
  -1  11   2   -0.66    0.55 
   1 -11  -2   -0.28    0.43 
  -1  10  13   13.65    1.62 
  -1  10  13   13.82    1.65 
   1 -10 -13   10.48    1.46 
  -1  10  12   15.46    1.68 
  -1  10  12   18.52    1.85 
   1 -10 -12   10.65    1.45 
  -1  10  11   26.03    2.10 
  -1  10  11   27.28    2.17 
   1 -10 -11   18.82    1.84 
  -1  10  10    6.53    1.14 
  -1  10  10    6.96    1.18 
   1 -10 -10    3.63    0.90 
  -1  10   9   25.06    2.02 
  -1  10   9   27.10    2.11 
   1 -10  -9   16.34    1.67 
  -1  10   8    1.68    0.71 
  -1  10   8    1.19    0.68 
   1 -10  -8    1.12    0.61 
  -1  10   7   37.71    2.40 
  -1  10   7   40.65    2.52 
   1 -10  -7   25.11    1.98 
  -1  10   6    9.75    1.30 
  -1  10   6    9.41    1.29 
   1 -10  -6    6.16    1.03 
  -1  10   5   33.57    2.25 
  -1  10   5   31.75    2.22 
   1 -10  -5   21.12    1.77 
  -1  10   4   33.69    2.25 
  -1  10   4   30.57    2.17 
   1 -10  -4   21.46    1.76 
  -1  10   3   20.59    1.80 
  -1  10   3   20.23    1.80 
   1 -10  -3   13.98    1.42 
  -1  10   2   41.95    2.52 
  -1  10   2   40.96    2.53 
   1 -10  -2   31.84    1.92 
   1 -10  -2   25.11    1.84 
  -1  10   1    3.30    0.90 
  -1  10   1    2.27    0.83 
   1 -10  -1   -0.07    0.18 
   1 -10  -1    2.37    0.69 
  -1  10   0   44.21    2.62 
  -1  10   0   48.05    2.76 
   1 -10   0   37.01    2.22 
   1 -10   0   37.90    2.16 
  -1  10  -1    0.33    0.60 
  -1  10  -1   -0.50    0.48 
   1 -10   1   -0.05    0.45 
  -1  10  -2   35.90    2.43 
  -1  10  -2   35.07    2.43 
   1 -10   2   28.77    2.09 
  -1  10  -3   11.62    1.48 
  -1  10  -3    9.49    1.37 
   1 -10   3    7.13    1.15 
  -1  10  -4   27.32    2.20 
  -1  10  -4   28.02    2.25 
   1 -10   4   19.98    1.87 
  -1   9  15   35.27    2.51 
  -1   9  15   34.63    2.50 
   1  -9 -15   24.27    2.10 
  -1   9  14    1.57    0.72 
  -1   9  14    1.03    0.68 
   1  -9 -14    0.97    0.62 
  -1   9  13   34.67    2.38 
  -1   9  13   31.89    2.30 
   1  -9 -13   24.90    2.06 
  -1   9  12    8.56    1.24 
  -1   9  12   11.59    1.41 
   1  -9 -12    7.50    1.17 
  -1   9  11   24.90    1.96 
  -1   9  11   25.49    1.99 
   1  -9 -11   21.13    1.84 
  -1   9  10   27.76    2.03 
  -1   9  10   27.49    2.03 
   1  -9 -10   18.53    1.70 
  -1   9   9   17.26    1.61 
  -1   9   9   16.11    1.56 
   1  -9  -9   12.26    1.38 
  -1   9   8   53.41    2.71 
  -1   9   8   55.55    2.78 
   1  -9  -8   33.25    2.18 
  -1   9   7    1.92    0.69 
  -1   9   7    2.67    0.76 
   1  -9  -7    1.20    0.56 
  -1   9   6   52.90    2.64 
  -1   9   6   54.09    2.70 
   1  -9  -6   34.08    2.13 
  -1   9   5    1.61    0.64 
  -1   9   5    0.88    0.59 
   1  -9  -5    0.90    0.52 
  -1   9   4   75.48    3.13 
  -1   9   4   78.00    3.21 
   1  -9  -4   71.49    2.45 
   1  -9  -4   53.84    2.58 
  -1   9   3   26.94    1.90 
  -1   9   3   26.80    1.91 
   1  -9  -3   23.64    1.49 
   1  -9  -3   19.36    1.55 
  -1   9   2   16.12    1.51 
  -1   9   2   16.67    1.55 
   1  -9  -2   14.41    1.23 
   1  -9  -2   10.42    1.15 
  -1   9   1   52.27    2.64 
  -1   9   1   53.33    2.70 
   1  -9  -1   29.10    1.77 
   1  -9  -1   37.82    2.07 
  -1   9   0   15.79    1.52 
  -1   9   0   15.04    1.50 
   1  -9   0   13.68    1.30 
   1  -9   0   12.14    1.19 
  -1   9  -1   65.35    3.00 
  -1   9  -1   61.30    2.94 
   1  -9   1   52.47    2.54 
   1  -9   1   51.75    2.32 
  -1   9  -2    0.53    0.58 
  -1   9  -2    0.87    0.62 
   1  -9   2    1.06    0.55 
   1  -9   2    0.87    0.48 
  -1   9  -3   70.94    3.21 
  -1   9  -3   70.52    3.25 
   1  -9   3   54.42    2.75 
  -1   9  -4    2.33    0.79 
  -1   9  -4    1.50    0.70 
   1  -9   4    1.83    0.68 
  -1   9  -5   42.13    2.59 
  -1   9  -5   41.53    2.60 
   1  -9   5   30.60    2.20 
  -1   9  -6   15.98    1.68 
  -1   9  -6   15.99    1.69 
   1  -9   6   12.01    1.47 
  -1   9  -7   16.38    1.73 
  -1   9  -7   16.33    1.75 
   1  -9   7   13.20    1.57 
  -1   8  17    7.77    1.28 
  -1   8  17    9.12    1.38 
  -1   8  17    8.30    1.18 
   1  -8 -17    7.22    1.20 
  -1   8  16   33.37    2.41 
  -1   8  16   33.03    2.41 
  -1   8  16   35.68    2.18 
   1  -8 -16   28.31    2.18 
  -1   8  15    0.90    0.63 
  -1   8  15    0.75    0.63 
  -1   8  15    0.94    0.58 
   1  -8 -15    0.69    0.58 
  -1   8  14   55.10    2.92 
  -1   8  14   55.08    2.93 
  -1   8  14   64.96    2.70 
   1  -8 -14   43.39    2.59 
  -1   8  13    0.12    0.50 
  -1   8  13    0.37    0.51 
  -1   8  13    0.41    0.49 
   1  -8 -13   -0.08    0.44 
  -1   8  12   65.01    3.02 
  -1   8  12   63.50    3.00 
  -1   8  12   75.22    2.69 
   1  -8 -12   50.85    2.70 
  -1   8  11    6.80    1.05 
  -1   8  11    5.67    0.98 
  -1   8  11    5.56    0.80 
   1  -8 -11    3.69    0.82 
  -1   8  10   83.39    3.28 
  -1   8  10   83.63    3.31 
  -1   8  10   97.83    2.84 
   1  -8 -10   57.02    2.76 
  -1   8   9   34.41    2.09 
  -1   8   9   34.75    2.11 
  -1   8   9   41.31    1.79 
   1  -8  -9   21.33    1.68 
  -1   8   8   22.04    1.67 
  -1   8   8   26.35    1.83 
  -1   8   8   28.21    1.44 
   1  -8  -8   16.84    1.48 
  -1   8   7   72.83    2.93 
  -1   8   7   72.90    2.95 
  -1   8   7   82.49    2.36 
   1  -8  -7   46.92    2.38 
  -1   8   6   16.58    1.43 
  -1   8   6   15.93    1.41 
  -1   8   6   17.94    1.10 
   1  -8  -6   13.65    0.88 
   1  -8  -6   10.54    1.15 
  -1   8   5  140.52    4.01 
  -1   8   5  144.55    4.11 
  -1   8   5  158.95    3.18 
   1  -8  -5  136.94    3.00 
   1  -8  -5   91.32    3.21 
  -1   8   4    0.07    0.45 
  -1   8   4   -0.10    0.45 
  -1   8   4    0.07    0.35 
   1  -8  -4    0.25    0.33 
   1  -8  -4    0.28    0.40 
  -1   8   3  118.49    3.66 
  -1   8   3  119.49    3.71 
  -1   8   3  120.44    2.72 
   1  -8  -3  103.92    2.88 
   1  -8  -3   76.09    2.83 
  -1   8   2    6.17    0.95 
  -1   8   2    6.77    0.98 
  -1   8   2    7.22    0.73 
   1  -8  -2    5.46    0.74 
   1  -8  -2    4.61    0.75 
  -1   8   1   76.07    2.96 
  -1   8   1   72.66    2.93 
  -1   8   1   76.44    2.21 
   1  -8  -1   59.35    2.35 
   1  -8  -1   51.72    2.25 
  -1   8   0   32.70    1.98 
  -1   8   0   30.13    1.93 
  -1   8   0   28.81    1.40 
   1  -8   0   23.04    1.53 
   1  -8   0   23.17    1.49 
  -1   8  -1   42.01    2.26 
  -1   8  -1   40.90    2.25 
  -1   8  -1   40.03    1.69 
   1  -8   1   34.06    1.92 
   1  -8   1   33.03    1.74 
  -1   8  -2   82.88    3.20 
  -1   8  -2   80.36    3.18 
  -1   8  -2   76.53    2.41 
   1  -8   2   62.58    2.67 
   1  -8   2   72.84    2.51 
  -1   8  -3    6.61    1.02 
  -1   8  -3    7.48    1.07 
  -1   8  -3    7.00    0.81 
   1  -8   3    6.88    0.76 
   1  -8   3    4.77    0.84 
   1  -8   3    6.59    0.80 
  -1   8  -4   76.29    3.18 
  -1   8  -4   76.56    3.22 
  -1   8  -4   67.20    2.43 
   1  -8   4   50.74    2.57 
  -1   8  -5    0.09    0.50 
  -1   8  -5    0.05    0.40 
  -1   8  -5   -0.09    0.47 
  -1   8  -5   -0.16    0.37 
   1  -8   5    0.19    0.44 
  -1   8  -6   49.68    2.69 
  -1   8  -6   53.72    2.39 
  -1   8  -6   44.24    2.56 
  -1   8  -6   44.54    2.14 
   1  -8   6   35.02    2.28 
  -1   8  -7    7.62    1.17 
  -1   8  -7    6.56    0.96 
  -1   8  -7    7.39    1.16 
  -1   8  -7    6.56    0.94 
   1  -8   7    4.76    0.96 
  -1   8  -8   21.29    1.88 
  -1   8  -8   20.83    1.65 
  -1   8  -8   17.84    1.75 
  -1   8  -8   19.44    1.56 
   1  -8   8   13.84    1.56 
  -1   8  -9   10.69    1.41 
  -1   8  -9   13.87    1.44 
  -1   8  -9   14.11    1.61 
   1  -8   9   10.32    1.40 
  -1   7  18   38.87    2.66 
  -1   7  18   39.42    2.44 
   1  -7 -18   33.30    2.33 
  -1   7  17    6.17    1.13 
  -1   7  17    6.52    1.06 
   1  -7 -17    5.78    1.05 
  -1   7  16   15.10    1.61 
  -1   7  16   18.93    1.59 
   1  -7 -16   14.75    1.52 
  -1   7  15   25.20    1.98 
  -1   7  15   29.34    1.88 
   1  -7 -15   18.68    1.67 
  -1   7  14   18.76    1.67 
  -1   7  14   16.46    1.59 
  -1   7  14   20.15    1.51 
   1  -7 -14   14.49    1.45 
  -1   7  13   55.29    2.74 
  -1   7  13   60.61    2.88 
  -1   7  13   69.04    2.63 
   1  -7 -13   47.22    2.51 
  -1   7  12    2.89    0.73 
  -1   7  12    2.12    0.68 
  -1   7  12    2.08    0.58 
   1  -7 -12    1.25    0.56 
  -1   7  11  125.03    3.91 
  -1   7  11  124.22    3.91 
  -1   7  11  146.00    3.54 
   1  -7 -11   90.39    3.34 
  -1   7  10    6.00    0.92 
  -1   7  10    6.26    0.94 
  -1   7  10    6.92    0.80 
   1  -7 -10    3.42    0.73 
  -1   7   9   85.16    3.08 
  -1   7   9   83.82    3.07 
  -1   7   9   94.69    2.61 
   1  -7  -9   55.29    2.51 
  -1   7   8   17.47    1.40 
  -1   7   8   18.21    1.43 
  -1   7   8   20.77    1.19 
   1  -7  -8   11.35    1.15 
  -1   7   7   59.44    2.48 
  -1   7   7   56.94    2.45 
  -1   7   7   67.38    2.03 
   1  -7  -7   62.82    1.54 
   1  -7  -7   34.08    1.91 
  -1   7   6   35.22    1.90 
  -1   7   6   37.81    1.98 
  -1   7   6   39.92    1.51 
   1  -7  -6   37.94    1.32 
   1  -7  -6   24.38    1.59 
  -1   7   5   25.97    1.62 
  -1   7   5   23.57    1.56 
  -1   7   5   27.38    1.23 
   1  -7  -5   23.11    1.11 
   1  -7  -5   14.58    1.23 
  -1   7   4   89.90    2.97 
  -1   7   4   90.71    3.00 
  -1   7   4   97.94    2.28 
   1  -7  -4   83.69    2.25 
   1  -7  -4   57.44    2.34 
  -1   7   3   10.93    1.09 
  -1   7   3   10.96    1.09 
  -1   7   3   11.00    0.79 
   1  -7  -3    8.60    0.78 
   1  -7  -3    6.51    0.82 
  -1   7   2  100.88    3.15 
  -1   7   2  102.61    3.20 
  -1   7   2  103.74    2.35 
   1  -7  -2  110.77    1.81 
   1  -7  -2   83.44    2.47 
   1  -7  -2   68.21    2.46 
  -1   7   1   15.28    1.28 
  -1   7   1   15.14    1.28 
  -1   7   1   15.72    0.95 
   1  -7  -1   17.14    0.80 
   1  -7  -1   12.36    1.02 
   1  -7  -1   10.63    0.98 
  -1   7   0   97.56    3.14 
  -1   7   0  103.45    3.26 
  -1   7   0   94.91    2.34 
   1  -7   0  106.98    2.22 
   1  -7   0   73.53    2.51 
   1  -7   0   70.68    2.40 
  -1   7  -1   51.26    2.31 
  -1   7  -1   50.33    2.31 
  -1   7  -1   46.57    1.69 
   1  -7   1   50.87    1.64 
   1  -7   1   38.60    1.89 
   1  -7   1   36.82    1.70 
  -1   7  -2   35.07    1.95 
  -1   7  -2   34.65    1.96 
  -1   7  -2   29.97    1.49 
  -1   7  -2   32.62    1.47 
   1  -7   2   23.80    1.55 
   1  -7   2   29.86    1.49 
  -1   7  -3   61.46    2.61 
  -1   7  -3   60.24    2.05 
  -1   7  -3   59.68    2.60 
  -1   7  -3   50.68    2.04 
  -1   7  -3   53.41    1.95 
   1  -7   3   43.63    2.16 
   1  -7   3   52.22    1.92 
  -1   7  -4    4.92    0.85 
  -1   7  -4    5.32    0.71 
  -1   7  -4    6.53    0.95 
  -1   7  -4    5.67    0.78 
  -1   7  -4    6.78    0.78 
   1  -7   4    3.72    0.73 
   1  -7   4    5.81    0.67 
  -1   7  -5   71.71    2.95 
  -1   7  -5   69.74    2.47 
  -1   7  -5   64.87    2.83 
  -1   7  -5   56.48    2.38 
  -1   7  -5   63.17    2.31 
   1  -7   5   51.97    2.51 
  -1   7  -6    0.72    0.55 
  -1   7  -6    1.22    0.49 
  -1   7  -6    1.82    0.64 
  -1   7  -6    0.68    0.45 
  -1   7  -6    1.05    0.47 
   1  -7   6    0.60    0.48 
  -1   7  -7   60.56    2.85 
  -1   7  -7   57.07    2.47 
  -1   7  -7   58.31    2.82 
  -1   7  -7   51.51    2.48 
  -1   7  -7   53.98    2.33 
   1  -7   7   43.91    2.46 
  -1   7  -8    2.69    0.76 
  -1   7  -8    2.88    0.70 
  -1   7  -8    2.72    0.77 
  -1   7  -8    2.15    0.68 
  -1   7  -8    2.73    0.69 
   1  -7   8    2.81    0.76 
  -1   7  -9   24.26    1.93 
  -1   7  -9   24.51    1.79 
  -1   7  -9   23.69    1.93 
  -1   7  -9   22.63    1.81 
  -1   7  -9   24.07    1.71 
   1  -7   9   -0.03    0.19 
   1  -7   9   21.62    1.86 
  -1   7 -10   11.83    1.44 
  -1   7 -10   12.70    1.38 
  -1   7 -10   12.42    1.45 
   1  -7  10   12.44    1.32 
   1  -7  10   10.38    1.37 
  -1   7 -11   19.31    1.84 
  -1   7 -11   22.38    1.86 
   1  -7  11   20.41    1.72 
   1  -7  11   18.83    1.86 
  -1   6  18   -0.27    0.48 
  -1   6  18   -0.23    0.49 
   1  -6 -18   -0.01    0.51 
   1  -6 -18   -0.03    0.47 
  -1   6  17   39.15    2.53 
  -1   6  17   43.97    2.45 
   1  -6 -17   38.21    2.50 
   1  -6 -17   37.10    2.28 
  -1   6  16    4.13    0.90 
  -1   6  16    4.56    0.87 
   1  -6 -16    4.14    0.90 
   1  -6 -16    3.70    0.80 
  -1   6  15   41.62    2.44 
  -1   6  15   49.43    2.39 
   1  -6 -15   42.35    2.46 
   1  -6 -15   37.01    2.19 
  -1   6  14   36.90    2.23 
  -1   6  14   45.97    2.22 
   1  -6 -14   38.97    2.29 
   1  -6 -14   36.15    2.12 
  -1   6  13   34.97    2.11 
  -1   6  13   38.28    1.94 
   1  -6 -13   28.63    1.86 
  -1   6  12   77.03    3.02 
  -1   6  12   88.04    2.80 
   1  -6 -12   59.07    2.59 
  -1   6  11    2.87    0.66 
  -1   6  11    3.11    0.60 
   1  -6 -11    1.62    0.54 
  -1   6  10   86.50    3.02 
  -1   6  10   87.12    3.03 
  -1   6  10  101.33    2.74 
   1  -6 -10   59.79    1.40 
   1  -6 -10   61.07    2.53 
  -1   6   9    1.86    0.56 
  -1   6   9    1.63    0.54 
  -1   6   9    2.35    0.50 
   1  -6  -9    1.17    0.47 
  -1   6   8   95.96    3.02 
  -1   6   8   95.18    3.03 
  -1   6   8  106.71    2.56 
   1  -6  -8   60.80    2.43 
  -1   6   7   10.16    1.01 
  -1   6   7   12.50    1.11 
  -1   6   7   12.55    0.87 
  -1   6   7    8.70    0.51 
   1  -6  -7   12.70    0.61 
   1  -6  -7    7.52    0.88 
  -1   6   6   81.13    2.68 
  -1   6   6   75.61    2.60 
  -1   6   6   86.19    2.10 
  -1   6   6   58.83    1.47 
   1  -6  -6   82.75    1.75 
   1  -6  -6   50.82    2.13 
  -1   6   5   53.41    2.14 
  -1   6   5   57.12    2.22 
  -1   6   5   59.90    1.68 
  -1   6   5   39.00    1.30 
   1  -6  -5   54.14    1.53 
   1  -6  -5   31.40    1.65 
  -1   6   4   68.06    2.39 
  -1   6   4   68.74    2.42 
  -1   6   4   76.82    1.86 
   1  -6  -4   65.49    1.80 
   1  -6  -4   44.76    1.92 
  -1   6   3  135.05    3.37 
  -1   6   3  134.39    3.39 
  -1   6   3  141.63    2.53 
   1  -6  -3  125.06    1.76 
   1  -6  -3  120.40    2.61 
   1  -6  -3   79.63    2.51 
  -1   6   2    7.16    0.83 
  -1   6   2    7.41    0.85 
  -1   6   2    7.52    0.61 
   1  -6  -2    6.21    0.38 
   1  -6  -2    9.10    0.46 
   1  -6  -2    7.35    0.50 
   1  -6  -2    6.71    0.68 
   1  -6  -2    4.74    0.65 
  -1   6   1   93.18    2.80 
  -1   6   1   89.43    2.77 
  -1   6   1   92.96    2.06 
   1  -6  -1   63.81    1.40 
   1  -6  -1   97.98    1.78 
   1  -6  -1   75.85    1.76 
   1  -6  -1   69.69    2.16 
   1  -6  -1   61.38    2.12 
  -1   6   0    6.47    0.82 
  -1   6   0    6.07    0.80 
  -1   6   0    4.90    0.52 
  -1   6   0    6.28    0.58 
   1  -6   0    5.90    0.50 
   1  -6   0    6.10    0.51 
   1  -6   0    4.58    0.52 
   1  -6   0    4.05    0.60 
   1  -6   0    4.91    0.63 
  -1   6  -1   59.94    2.30 
  -1   6  -1   65.08    1.74 
  -1   6  -1   61.02    2.34 
  -1   6  -1   48.68    1.66 
  -1   6  -1   57.90    1.73 
   1  -6   1   46.48    1.92 
   1  -6   1   46.96    1.77 
  -1   6  -2   29.62    1.66 
  -1   6  -2   27.04    1.22 
  -1   6  -2   26.31    1.58 
  -1   6  -2   22.05    1.20 
  -1   6  -2   24.83    1.19 
   1  -6   2   18.86    1.29 
   1  -6   2   20.48    1.15 
  -1   6  -3   70.23    2.59 
  -1   6  -3   62.99    1.98 
  -1   6  -3   72.11    2.65 
  -1   6  -3   54.79    2.00 
  -1   6  -3   59.41    1.92 
   1  -6   3   46.37    2.07 
   1  -6   3   57.73    1.85 
  -1   6  -4   54.74    2.34 
  -1   6  -4   50.70    1.89 
  -1   6  -4   53.48    2.33 
  -1   6  -4   42.55    1.86 
  -1   6  -4   48.75    1.82 
   1  -6   4   37.40    1.93 
   1  -6   4   50.27    1.66 
  -1   6  -5   34.02    1.91 
  -1   6  -5   31.33    1.58 
  -1   6  -5   32.48    1.88 
  -1   6  -5   28.63    1.61 
  -1   6  -5   31.70    1.55 
   1  -6   5   22.84    1.57 
   1  -6   5   35.45    1.33 
  -1   6  -6   78.57    2.96 
  -1   6  -6   73.65    2.54 
  -1   6  -6   75.68    2.93 
  -1   6  -6   68.52    2.60 
  -1   6  -6   72.60    2.44 
   1  -6   6   56.34    2.53 
  -1   6  -7    0.51    0.49 
  -1   6  -7    0.57    0.41 
  -1   6  -7    1.06    0.52 
  -1   6  -7    1.02    0.49 
  -1   6  -7    0.66    0.42 
   1  -6   7    0.67    0.45 
  -1   6  -8   68.75    2.93 
  -1   6  -8   68.69    2.70 
  -1   6  -8   72.43    3.04 
  -1   6  -8   66.26    2.78 
  -1   6  -8   66.12    2.56 
   1  -6   8   52.16    2.60 
  -1   6  -9    3.10    0.76 
  -1   6  -9    2.41    0.66 
  -1   6  -9    2.46    0.72 
  -1   6  -9    3.04    0.73 
  -1   6  -9    3.17    0.69 
   1  -6   9    3.78    0.73 
   1  -6   9    1.94    0.64 
  -1   6 -10   35.29    2.25 
  -1   6 -10   39.28    2.24 
  -1   6 -10   35.18    2.21 
   1  -6  10   34.69    2.03 
   1  -6  10   30.63    2.14 
  -1   6 -11   10.43    1.33 
  -1   6 -11    9.75    1.23 
  -1   6 -11    7.95    1.17 
   1  -6  11    9.15    1.15 
   1  -6  11    7.26    1.14 
  -1   6 -12   28.88    2.19 
  -1   6 -12   27.94    2.07 
  -1   6 -12   32.18    2.29 
   1  -6  12   30.24    2.06 
   1  -6  12   24.93    2.06 
  -1   6 -13   13.21    1.58 
  -1   6 -13   15.78    1.66 
   1  -6  13   17.08    1.65 
   1  -6  13   14.56    1.66 
  -1   5  19    9.88    1.34 
   1  -5 -19    6.72    1.20 
   1  -5 -19    4.33    0.84 
  -1   5  18   30.27    2.13 
   1  -5 -18   24.26    2.03 
   1  -5 -18   28.51    1.93 
  -1   5  17    3.29    0.81 
   1  -5 -17    2.99    0.80 
   1  -5 -17    2.72    0.71 
  -1   5  16   35.12    2.10 
   1  -5 -16   27.84    2.01 
   1  -5 -16   28.23    1.62 
   1  -5 -16   32.96    1.99 
  -1   5  15   10.25    1.14 
   1  -5 -15    9.86    1.20 
   1  -5 -15    8.46    0.88 
   1  -5 -15    8.60    1.04 
  -1   5  14   33.92    1.89 
   1  -5 -14   26.27    1.83 
   1  -5 -14   26.41    1.40 
   1  -5 -14   25.20    1.68 
  -1   5  13   23.76    1.52 
   1  -5 -13   20.28    1.56 
   1  -5 -13   21.35    1.18 
   1  -5 -13   18.05    1.40 
  -1   5  12   33.92    1.94 
  -1   5  12   36.66    1.79 
   1  -5 -12   34.67    1.96 
   1  -5 -12   29.34    1.29 
   1  -5 -12   26.20    1.63 
  -1   5  11  100.38    3.21 
  -1   5  11  107.02    2.91 
   1  -5 -11  102.97    3.25 
   1  -5 -11   81.07    2.00 
   1  -5 -11   74.24    2.68 
  -1   5  10   13.98    1.19 
  -1   5  10   16.94    1.12 
   1  -5 -10   11.52    0.70 
   1  -5 -10   11.66    1.06 
  -1   5   9  151.40    3.71 
  -1   5   9  185.47    2.61 
  -1   5   9  163.73    3.28 
   1  -5  -9  115.43    2.00 
   1  -5  -9  102.88    3.02 
  -1   5   8    1.44    0.47 
  -1   5   8    1.42    0.26 
  -1   5   8    1.88    0.50 
  -1   5   8    1.48    0.39 
   1  -5  -8    1.46    0.24 
   1  -5  -8    1.21    0.43 
  -1   5   7  231.80    4.40 
  -1   5   7  266.36    2.69 
  -1   5   7  244.67    3.68 
  -1   5   7  168.50    2.05 
   1  -5  -7  253.79    2.75 
   1  -5  -7  142.92    3.43 
  -1   5   6   54.21    2.04 
  -1   5   6   54.02    2.04 
  -1   5   6   59.82    1.65 
  -1   5   6   38.24    1.02 
   1  -5  -6   55.62    1.24 
   1  -5  -6   33.07    1.60 
  -1   5   5  166.31    3.54 
  -1   5   5  167.47    3.57 
  -1   5   5  183.35    2.84 
  -1   5   5  120.78    2.06 
   1  -5  -5  166.81    2.48 
   1  -5  -5  101.73    2.75 
  -1   5   4   97.72    2.65 
  -1   5   4   96.82    2.65 
  -1   5   4  107.09    2.03 
  -1   5   4   68.70    1.65 
   1  -5  -4   91.26    1.91 
   1  -5  -4   57.73    2.02 
  -1   5   3  153.98    3.33 
  -1   5   3  155.42    3.36 
  -1   5   3  164.12    2.50 
  -1   5   3  108.40    2.23 
   1  -5  -3  147.35    1.79 
   1  -5  -3  137.59    2.53 
   1  -5  -3   92.60    2.51 
  -1   5   2  105.50    2.73 
  -1   5   2  107.76    2.77 
  -1   5   2  111.36    2.01 
   1  -5  -2   74.08    1.17 
   1  -5  -2  115.31    1.56 
   1  -5  -2   95.46    1.60 
   1  -5  -2   88.77    2.12 
   1  -5  -2   67.89    2.10 
  -1   5   1   42.09    1.72 
  -1   5   1   40.78    1.71 
  -1   5   1   32.05    1.03 
  -1   5   1   39.39    1.19 
   1  -5  -1   28.10    0.82 
   1  -5  -1   43.96    1.04 
   1  -5  -1   34.55    1.07 
   1  -5  -1   28.48    1.25 
   1  -5  -1   24.79    1.24 
  -1   5   0  102.68    2.73 
  -1   5   0  101.92    1.85 
  -1   5   0  100.08    2.71 
  -1   5   0   75.72    1.77 
  -1   5   0   96.12    1.94 
   1  -5   0   65.98    1.46 
   1  -5   0   79.36    1.82 
   1  -5   0   74.66    2.14 
   1  -5   0   68.06    2.00 
  -1   5  -1   21.03    1.27 
  -1   5  -1   19.89    0.89 
  -1   5  -1   19.85    1.25 
  -1   5  -1   14.98    0.86 
  -1   5  -1   19.45    0.91 
   1  -5   1   14.62    0.76 
   1  -5   1   16.89    0.92 
   1  -5   1   15.18    1.02 
   1  -5   1   15.82    0.95 
  -1   5  -2  206.30    4.06 
  -1   5  -2  182.41    3.03 
  -1   5  -2  202.98    4.06 
  -1   5  -2  142.68    2.87 
  -1   5  -2  181.21    3.01 
   1  -5   2  139.63    3.22 
   1  -5   2  154.93    2.91 
  -1   5  -3    3.27    0.61 
  -1   5  -3    2.67    0.45 
  -1   5  -3    2.76    0.58 
  -1   5  -3    2.33    0.44 
  -1   5  -3    1.90    0.39 
   1  -5   3    2.29    0.51 
   1  -5   3    2.65    0.42 
  -1   5  -4  117.88    3.19 
  -1   5  -4  100.18    2.52 
  -1   5  -4  122.22    3.27 
  -1   5  -4   90.64    2.55 
  -1   5  -4  102.22    2.47 
   1  -5   4   83.35    2.67 
   1  -5   4  109.13    2.24 
  -1   5  -5   53.68    2.22 
  -1   5  -5   46.10    1.81 
  -1   5  -5   54.69    2.25 
  -1   5  -5   41.17    1.81 
  -1   5  -5   49.52    1.81 
   1  -5   5   39.23    1.90 
   1  -5   5   53.66    1.47 
  -1   5  -6   81.59    2.82 
  -1   5  -6   74.24    2.43 
  -1   5  -6   79.80    2.80 
  -1   5  -6   64.93    2.39 
  -1   5  -6   77.05    2.38 
   1  -5   6   60.81    2.45 
   1  -5   6   88.54    1.77 
  -1   5  -7   80.88    2.90 
  -1   5  -7   81.91    2.69 
  -1   5  -7   85.74    3.01 
  -1   5  -7   69.13    2.58 
  -1   5  -7   77.85    2.52 
   1  -5   7   63.70    2.60 
  -1   5  -8   13.27    1.25 
  -1   5  -8   12.79    1.15 
  -1   5  -8   12.12    1.21 
  -1   5  -8   13.02    1.20 
  -1   5  -8   12.95    1.11 
   1  -5   8   10.10    1.10 
  -1   5  -9   33.19    2.00 
  -1   5  -9   28.66    1.76 
  -1   5  -9   29.85    1.86 
  -1   5  -9   31.51    1.77 
   1  -5   9   29.56    1.72 
   1  -5   9   25.38    1.77 
  -1   5 -10    0.17    0.43 
  -1   5 -10    0.81    0.48 
  -1   5 -10    0.39    0.42 
   1  -5  10    0.30    0.39 
   1  -5  10    0.37    0.44 
  -1   5 -11   55.30    2.76 
  -1   5 -11   56.93    2.69 
  -1   5 -11   56.52    2.77 
   1  -5  11   58.90    2.64 
   1  -5  11   49.23    2.61 
  -1   5 -12    2.28    0.73 
  -1   5 -12    2.85    0.77 
  -1   5 -12    2.31    0.71 
   1  -5  12    2.65    0.71 
   1  -5  12    1.49    0.63 
  -1   5 -13   29.42    2.17 
  -1   5 -13   34.35    2.29 
  -1   5 -13   33.33    2.31 
   1  -5  13   33.97    2.19 
   1  -5  13   28.74    2.15 
  -1   5 -14   15.55    1.68 
  -1   5 -14   15.55    1.65 
   1  -5  14   15.37    1.58 
   1  -5  14   12.92    1.53 
  -1   5 -15   11.36    1.51 
  -1   5 -15   11.73    1.51 
   1  -5  15   13.13    1.54 
  -1   4  19   13.46    1.53 
   1  -4 -19   12.47    1.53 
   1  -4 -19   13.13    1.36 
  -1   4  18   16.90    1.62 
   1  -4 -18   13.53    1.52 
   1  -4 -18   13.57    1.32 
   1  -4 -18   17.26    1.44 
  -1   4  17   35.15    2.19 
   1  -4 -17   30.44    2.15 
   1  -4 -17   36.59    2.01 
   1  -4 -17   38.19    2.06 
  -1   4  16    1.65    0.60 
   1  -4 -16    2.44    0.72 
   1  -4 -16    3.22    0.64 
   1  -4 -16    0.43    0.29 
  -1   4  15   26.76    1.76 
   1  -4 -15   24.97    1.81 
   1  -4 -15   24.24    1.49 
   1  -4 -15   23.74    1.56 
  -1   4  14    1.16    0.50 
   1  -4 -14    1.31    0.54 
   1  -4 -14    1.54    0.44 
   1  -4 -14    1.03    0.46 
  -1   4  13   91.68    2.94 
   1  -4 -13   82.76    3.02 
   1  -4 -13   80.15    2.41 
   1  -4 -13   79.19    2.71 
  -1   4  12    8.23    0.89 
   1  -4 -12    7.25    0.91 
   1  -4 -12    6.18    0.66 
   1  -4 -12    5.64    0.77 
  -1   4  11   93.33    1.89 
  -1   4  11   92.88    2.68 
   1  -4 -11   89.42    2.91 
   1  -4 -11   72.04    2.00 
   1  -4 -11   73.10    2.49 
  -1   4  10   54.19    1.27 
  -1   4  10   54.43    1.94 
   1  -4 -10   53.94    2.18 
   1  -4 -10   41.32    1.40 
   1  -4 -10   38.37    1.76 
  -1   4   9   59.55    2.20 
  -1   4   9   69.51    1.67 
  -1   4   9   64.29    1.21 
  -1   4   9   64.61    1.99 
   1  -4  -9   61.75    2.24 
   1  -4  -9   47.96    1.38 
   1  -4  -9   45.83    1.88 
  -1   4   8  231.36    2.92 
  -1   4   8  217.68    3.55 
   1  -4  -8  211.09    4.07 
   1  -4  -8  151.29    2.30 
   1  -4  -8  140.31    3.24 
  -1   4   7   14.50    1.03 
  -1   4   7   16.14    0.63 
  -1   4   7   14.09    0.84 
   1  -4  -7   10.30    0.50 
   1  -4  -7    8.59    0.80 
  -1   4   6  210.01    3.82 
  -1   4   6  238.26    2.48 
  -1   4   6  206.21    3.79 
  -1   4   6  221.04    3.18 
  -1   4   6  162.12    2.00 
   1  -4  -6  141.04    1.78 
   1  -4  -6  226.30    2.54 
   1  -4  -6  128.88    2.95 
  -1   4   5    6.22    0.65 
  -1   4   5    6.29    0.66 
  -1   4   5    6.42    0.51 
  -1   4   5    5.46    0.39 
   1  -4  -5    6.46    0.41 
   1  -4  -5    3.88    0.53 
  -1   4   4  184.69    3.40 
  -1   4   4  183.57    3.40 
  -1   4   4  194.56    2.63 
  -1   4   4  140.88    2.14 
   1  -4  -4  171.10    2.41 
   1  -4  -4  110.05    2.59 
  -1   4   3   69.13    2.01 
  -1   4   3   66.26    1.97 
  -1   4   3   73.53    1.45 
  -1   4   3   52.24    1.35 
   1  -4  -3   60.25    1.45 
   1  -4  -3   41.13    1.52 
  -1   4   2  373.35    4.94 
  -1   4   2  359.54    4.85 
  -1   4   2  277.46    3.51 
  -1   4   2  396.85    3.89 
  -1   4   2  267.79    3.48 
   1  -4  -2  318.88    4.20 
   1  -4  -2  307.04    3.80 
   1  -4  -2  224.38    3.61 
  -1   4   1  102.11    2.44 
  -1   4   1  105.15    2.49 
  -1   4   1   73.29    1.42 
  -1   4   1  105.41    1.74 
  -1   4   1   77.52    1.88 
   1  -4  -1   72.13    1.19 
   1  -4  -1   84.41    1.52 
   1  -4  -1   41.94    1.37 
   1  -4  -1   64.83    1.82 
  -1   4   0   84.07    2.23 
  -1   4   0   76.62    1.43 
  -1   4   0   82.40    2.22 
  -1   4   0   57.00    1.39 
  -1   4   0   81.32    1.57 
   1  -4   0   56.60    1.21 
   1  -4   0   66.66    1.50 
   1  -4   0   63.32    1.78 
   1  -4   0   58.64    1.68 
  -1   4  -1  160.26    3.18 
  -1   4  -1  135.33    2.19 
  -1   4  -1  158.57    3.18 
  -1   4  -1  111.24    2.17 
  -1   4  -1  146.41    2.29 
   1  -4   1  105.67    1.90 
   1  -4   1  119.32    2.25 
   1  -4   1  115.99    2.56 
   1  -4   1  117.01    2.34 
  -1   4  -2   13.29    0.94 
  -1   4  -2   11.19    0.68 
  -1   4  -2   12.51    0.92 
  -1   4  -2    9.61    0.69 
  -1   4  -2   11.82    0.68 
   1  -4   2    9.84    0.64 
   1  -4   2    5.62    0.53 
   1  -4   2    8.41    0.73 
   1  -4   2   10.87    0.69 
  -1   4  -3  157.72    3.32 
  -1   4  -3  138.40    2.62 
  -1   4  -3  162.38    3.39 
  -1   4  -3  116.08    2.56 
  -1   4  -3  138.12    2.53 
   1  -4   3  108.42    2.70 
   1  -4   3  142.82    2.43 
  -1   4  -4    0.19    0.32 
  -1   4  -4    0.24    0.24 
  -1   4  -4   -0.04    0.29 
  -1   4  -4    0.21    0.24 
  -1   4  -4    0.03    0.23 
   1  -4   4    0.24    0.29 
   1  -4   4    0.54    0.23 
  -1   4  -5  130.21    3.21 
  -1   4  -5  112.27    2.68 
  -1   4  -5  138.88    3.34 
  -1   4  -5  101.93    2.69 
  -1   4  -5  122.60    2.69 
   1  -4   5   95.56    2.75 
   1  -4   5  139.21    2.17 
  -1   4  -6   28.61    1.56 
  -1   4  -6   23.52    1.30 
  -1   4  -6   27.04    1.53 
  -1   4  -6   21.73    1.31 
  -1   4  -6   24.07    1.27 
   1  -4   6   19.28    1.29 
   1  -4   6   28.78    0.86 
  -1   4  -7   58.32    2.30 
  -1   4  -7   52.91    2.05 
  -1   4  -7   60.99    2.37 
  -1   4  -7   48.77    2.05 
  -1   4  -7   52.60    1.96 
   1  -4   7   44.26    2.02 
  -1   4  -8   70.38    2.63 
  -1   4  -8   65.00    2.40 
  -1   4  -8   72.35    2.68 
  -1   4  -8   61.22    2.41 
  -1   4  -8   68.95    2.37 
   1  -4   8   66.74    2.33 
   1  -4   8   49.04    2.21 
  -1   4  -9   33.78    1.90 
  -1   4  -9   33.78    1.82 
  -1   4  -9   30.21    1.78 
  -1   4  -9   32.22    1.72 
   1  -4   9   35.39    1.79 
   1  -4   9   28.36    1.75 
  -1   4 -10   74.94    2.93 
  -1   4 -10   73.00    2.80 
  -1   4 -10   69.72    2.81 
   1  -4  10   70.30    2.64 
   1  -4  10   57.27    2.56 
  -1   4 -11    4.74    0.85 
  -1   4 -11    4.85    0.84 
  -1   4 -11    4.97    0.84 
   1  -4  11    4.57    0.79 
   1  -4  11    4.06    0.79 
  -1   4 -12   70.56    3.07 
  -1   4 -12   74.67    3.10 
  -1   4 -12   68.94    3.03 
   1  -4  12   77.96    3.04 
   1  -4  12   64.27    2.90 
  -1   4 -13    0.63    0.54 
  -1   4 -13    0.76    0.53 
  -1   4 -13    0.54    0.51 
   1  -4  13    0.65    0.52 
   1  -4  13    1.02    0.57 
  -1   4 -14   30.53    2.19 
  -1   4 -14   38.45    2.43 
  -1   4 -14   32.37    2.26 
   1  -4  14   34.78    2.23 
   1  -4  14   30.10    2.14 
  -1   4 -15    5.57    1.07 
  -1   4 -15    5.80    1.09 
   1  -4  15    5.24    1.03 
   1  -4  15    4.24    0.94 
  -1   4 -16    9.40    1.39 
  -1   4 -16   11.09    1.48 
   1  -4  16   13.45    1.55 
   1  -4  16   12.70    1.53 
  -1   3  20    1.26    0.73 
   1  -3 -20    0.36    0.57 
   1  -3 -20    0.45    0.51 
  -1   3  19   24.34    2.01 
   1  -3 -19   21.87    1.96 
   1  -3 -19   23.10    1.82 
  -1   3  18   13.57    1.48 
   1  -3 -18   11.48    1.40 
   1  -3 -18   15.76    1.47 
  -1   3  17   24.87    1.87 
   1  -3 -17   20.88    1.77 
   1  -3 -17   25.91    1.76 
   1  -3 -17   25.80    1.59 
  -1   3  16   26.71    1.85 
   1  -3 -16   20.06    1.67 
   1  -3 -16   24.84    1.65 
   1  -3 -16   24.15    1.51 
  -1   3  15   15.38    1.36 
   1  -3 -15   15.11    1.41 
   1  -3 -15   15.71    1.26 
   1  -3 -15   16.95    1.25 
  -1   3  14   57.03    2.44 
   1  -3 -14   51.59    2.43 
   1  -3 -14   54.33    2.18 
   1  -3 -14   53.49    1.96 
   1  -3 -14   53.57    2.12 
  -1   3  13    2.96    0.62 
  -1   3  13    3.14    0.36 
   1  -3 -13    3.30    0.67 
   1  -3 -13    2.76    0.54 
   1  -3 -13    2.67    0.47 
   1  -3 -13    1.09    0.36 
  -1   3  12  104.26    3.00 
  -1   3  12   96.95    1.71 
   1  -3 -12   97.10    3.08 
   1  -3 -12   90.28    2.52 
   1  -3 -12   90.14    2.26 
   1  -3 -12   89.02    2.62 
  -1   3  11    3.25    0.46 
  -1   3  11    3.15    0.56 
  -1   3  11    3.53    0.32 
  -1   3  11    3.67    0.33 
   1  -3 -11    2.79    0.59 
   1  -3 -11    2.07    0.41 
   1  -3 -11    2.83    0.42 
   1  -3 -11    2.67    0.51 
  -1   3  10  112.36    2.18 
  -1   3  10  114.44    2.82 
  -1   3  10   96.53    1.51 
  -1   3  10  135.69    1.82 
   1  -3 -10  108.71    2.99 
   1  -3 -10   94.11    2.25 
   1  -3 -10   94.29    2.57 
  -1   3   9   24.34    0.90 
  -1   3   9   26.16    1.26 
  -1   3   9   21.84    0.63 
  -1   3   9   31.39    0.76 
   1  -3  -9   26.93    1.42 
   1  -3  -9   20.70    0.97 
   1  -3  -9   20.59    1.17 
  -1   3   8  156.31    2.52 
  -1   3   8  138.06    2.01 
  -1   3   8  148.71    2.86 
  -1   3   8  126.98    1.65 
  -1   3   8  168.85    1.95 
   1  -3  -8  151.58    3.26 
   1  -3  -8  113.88    2.12 
   1  -3  -8  116.04    2.71 
  -1   3   7  166.07    2.36 
  -1   3   7  150.66    1.91 
  -1   3   7  169.67    2.87 
  -1   3   7  176.74    2.00 
   1  -3  -7  167.21    3.29 
   1  -3  -7  118.92    1.97 
   1  -3  -7  157.86    1.90 
   1  -3  -7  123.66    2.73 
  -1   3   6   27.20    1.25 
  -1   3   6   28.09    0.80 
  -1   3   6   26.43    0.58 
  -1   3   6   29.60    1.07 
  -1   3   6   28.96    0.70 
   1  -3  -6   27.99    1.27 
   1  -3  -6   20.93    0.69 
   1  -3  -6   30.18    0.72 
   1  -3  -6   19.38    1.04 
  -1   3   5  269.22    3.97 
  -1   3   5  271.09    2.72 
  -1   3   5  276.63    3.30 
  -1   3   5  246.91    2.59 
   1  -3  -5  184.28    2.12 
   1  -3  -5  284.11    3.55 
   1  -3  -5  167.20    3.04 
  -1   3   4    9.97    0.72 
  -1   3   4    9.59    0.71 
  -1   3   4   10.07    0.53 
  -1   3   4    8.34    0.44 
   1  -3  -4   10.27    0.48 
   1  -3  -4    6.33    0.58 
  -1   3   3  630.79    6.31 
  -1   3   3  656.69   10.06 
  -1   3   3  696.43    9.23 
  -1   3   3  504.67    6.76 
   1  -3  -3  639.41    7.93 
   1  -3  -3  584.04    7.50 
   1  -3  -3  365.57    4.49 
  -1   3   2   33.11    1.23 
  -1   3   2   36.47    1.30 
  -1   3   2   22.06    0.54 
  -1   3   2   35.80    0.82 
  -1   3   2   28.41    0.93 
   1  -3  -2   32.61    0.67 
   1  -3  -2   37.34    0.84 
   1  -3  -2   28.26    0.92 
   1  -3  -2   21.06    0.96 
  -1   3   1  303.37    3.98 
  -1   3   1  269.72    3.64 
  -1   3   1  294.31    3.92 
  -1   3   1  182.62    2.21 
  -1   3   1  310.48    3.58 
  -1   3   1  229.71    3.02 
   1  -3  -1  211.42    2.60 
   1  -3  -1  241.33    2.60 
   1  -3  -1  332.82    3.10 
   1  -3  -1  183.91    2.87 
  -1   3   0  208.38    3.24 
  -1   3   0  168.51    2.07 
  -1   3   0  207.73    3.25 
  -1   3   0  130.12    1.97 
  -1   3   0  197.50    2.30 
  -1   3   0  156.62    2.57 
   1  -3   0  143.08    1.83 
   1  -3   0  159.96    2.20 
   1  -3   0  237.83    2.53 
   1  -3   0  151.43    2.53 
   1  -3   0  141.20    2.40 
  -1   3  -1   51.65    1.59 
  -1   3  -1   38.75    1.02 
  -1   3  -1   52.77    1.61 
  -1   3  -1   34.15    1.06 
  -1   3  -1   44.33    1.05 
  -1   3  -1   40.17    1.34 
   1  -3   1   37.48    1.00 
   1  -3   1   38.62    1.13 
   1  -3   1   55.37    1.18 
   1  -3   1   38.14    1.30 
   1  -3   1   37.65    1.16 
  -1   3  -2  113.75    2.46 
  -1   3  -2   87.25    1.75 
  -1   3  -2  116.16    2.49 
  -1   3  -2   78.33    1.79 
  -1   3  -2   97.64    1.76 
   1  -3   2   83.31    1.70 
   1  -3   2   58.72    1.54 
   1  -3   2   94.04    1.80 
  -1   3  -3   40.99    1.30 
  -1   3  -3   49.10    1.66 
  -1   3  -3   37.32    1.32 
  -1   3  -3   42.30    1.24 
   1  -3   3   37.58    1.33 
   1  -3   3   36.96    1.43 
   1  -3   3   45.96    1.18 
  -1   3  -4  205.90    3.63 
  -1   3  -4  156.52    2.83 
  -1   3  -4  203.74    3.62 
  -1   3  -4  144.03    2.85 
  -1   3  -4  170.97    2.81 
   1  -3   4  152.03    2.93 
   1  -3   4  142.39    2.98 
   1  -3   4  198.98    2.52 
  -1   3  -5    0.01    0.27 
  -1   3  -5    0.03    0.21 
  -1   3  -5    0.19    0.29 
  -1   3  -5    0.03    0.21 
  -1   3  -5    0.35    0.25 
   1  -3   5    0.02    0.25 
   1  -3   5    0.00    0.15 
  -1   3  -6  113.04    2.88 
  -1   3  -6   90.13    2.41 
  -1   3  -6  110.84    2.86 
  -1   3  -6   86.18    2.45 
  -1   3  -6   99.00    2.41 
   1  -3   6   77.55    2.38 
   1  -3   6  125.73    1.65 
  -1   3  -7    8.48    0.86 
  -1   3  -7    8.25    0.80 
  -1   3  -7    9.61    0.91 
  -1   3  -7    7.06    0.76 
  -1   3  -7    8.83    0.80 
   1  -3   7    8.82    0.78 
   1  -3   7    6.86    0.78 
  -1   3  -8  107.57    3.06 
  -1   3  -8   98.41    2.83 
  -1   3  -8   92.00    2.80 
  -1   3  -8  104.73    2.80 
   1  -3   8  104.27    2.79 
   1  -3   8   80.42    2.63 
  -1   3  -9   21.29    1.44 
  -1   3  -9   21.46    1.40 
  -1   3  -9   20.04    1.38 
   1  -3   9   23.39    1.40 
   1  -3   9   17.21    1.29 
  -1   3 -10   10.15    1.07 
  -1   3 -10    9.00    0.98 
  -1   3 -10    9.17    1.00 
   1  -3  10    9.05    0.96 
   1  -3  10    8.77    0.98 
  -1   3 -11   58.77    2.57 
  -1   3 -11   61.60    2.58 
  -1   3 -11   58.16    2.55 
   1  -3  11   60.25    2.47 
   1  -3  11   53.64    2.40 
  -1   3 -12    6.14    0.94 
  -1   3 -12    6.59    0.95 
   1  -3  12    6.56    0.92 
   1  -3  12    5.67    0.87 
  -1   3 -13   56.73    2.73 
  -1   3 -13   55.00    2.68 
   1  -3  13   62.11    2.76 
   1  -3  13   52.90    2.56 
  -1   3 -14    0.02    0.45 
  -1   3 -14   -0.11    0.42 
  -1   3 -14    0.39    0.48 
   1  -3  14    0.46    0.51 
   1  -3  14    0.21    0.45 
  -1   3 -15   34.24    2.31 
  -1   3 -15   45.61    2.65 
   1  -3  15   48.84    2.66 
   1  -3  15   39.76    2.38 
  -1   3 -16    1.57    0.72 
  -1   3 -16    2.38    0.79 
   1  -3  16    1.91    0.73 
   1  -3  16    2.03    0.72 
  -1   3 -17   13.97    1.64 
  -1   3 -17   16.16    1.77 
   1  -3  17   17.60    1.77 
   1  -3  17   15.86    1.65 
  -1   2  20   21.67    2.01 
   1  -2 -20   18.68    1.89 
   1  -2 -20   19.69    1.81 
  -1   2  19    0.25    0.54 
   1  -2 -19    0.07    0.51 
   1  -2 -19    0.06    0.45 
  -1   2  18   41.80    2.53 
   1  -2 -18   37.47    2.43 
   1  -2 -18   37.56    2.27 
  -1   2  17    6.74    1.05 
   1  -2 -17    5.91    1.01 
   1  -2 -17    6.49    0.97 
  -1   2  16   41.55    2.31 
   1  -2 -16   36.73    2.22 
   1  -2 -16   38.52    2.11 
   1  -2 -16   39.47    1.99 
   1  -2 -16   42.07    1.81 
  -1   2  15   23.14    1.66 
   1  -2 -15   19.31    1.57 
   1  -2 -15   21.78    1.52 
   1  -2 -15   21.82    1.42 
   1  -2 -15   24.91    1.38 
  -1   2  14   10.33    1.09 
  -1   2  14    9.98    0.75 
   1  -2 -14    9.53    1.08 
   1  -2 -14   10.20    1.01 
   1  -2 -14   10.60    0.95 
   1  -2 -14   10.64    0.90 
  -1   2  13   71.10    2.62 
  -1   2  13   71.41    1.86 
   1  -2 -13   64.41    2.57 
   1  -2 -13   66.51    2.38 
   1  -2 -13   66.72    2.22 
   1  -2 -13   71.79    2.22 
  -1   2  12    8.20    0.88 
  -1   2  12    6.97    0.57 
  -1   2  12    8.37    0.63 
   1  -2 -12    6.29    0.82 
   1  -2 -12    7.39    0.78 
   1  -2 -12    7.20    0.72 
   1  -2 -12    7.51    0.73 
  -1   2  11  105.85    2.89 
  -1   2  11   92.27    1.90 
  -1   2  11  109.44    2.07 
   1  -2 -11   91.67    2.80 
   1  -2 -11   88.11    2.45 
   1  -2 -11   88.23    2.27 
   1  -2 -11   95.55    2.45 
  -1   2  10    0.30    0.25 
  -1   2  10    0.28    0.30 
  -1   2  10    0.42    0.21 
   1  -2 -10    0.00    0.28 
   1  -2 -10    0.24    0.25 
   1  -2 -10    0.20    0.21 
   1  -2 -10    0.05    0.11 
  -1   2   9  139.55    2.51 
  -1   2   9  138.15    2.95 
  -1   2   9  119.70    1.93 
  -1   2   9  160.14    2.26 
   1  -2  -9  140.72    3.17 
   1  -2  -9  120.04    2.52 
   1  -2  -9  119.23    2.31 
   1  -2  -9  124.75    2.67 
  -1   2   8   51.07    1.36 
  -1   2   8   54.45    1.71 
  -1   2   8   45.42    1.07 
  -1   2   8   60.05    1.23 
   1  -2  -8   53.35    1.83 
   1  -2  -8   44.60    1.39 
   1  -2  -8   44.47    1.27 
   1  -2  -8   44.40    1.52 
  -1   2   7  121.48    2.15 
  -1   2   7  109.56    1.84 
  -1   2   7  121.73    2.41 
  -1   2   7  112.54    1.66 
  -1   2   7  141.98    1.88 
   1  -2  -7  127.01    2.72 
   1  -2  -7   95.83    1.90 
   1  -2  -7  100.69    2.25 
  -1   2   6   98.35    1.73 
  -1   2   6   89.94    1.48 
  -1   2   6  106.62    2.07 
  -1   2   6  123.34    1.66 
   1  -2  -6  114.80    2.44 
   1  -2  -6   83.57    1.59 
   1  -2  -6  103.92    1.52 
   1  -2  -6   82.77    1.97 
  -1   2   5   64.05    1.20 
  -1   2   5   57.00    1.01 
  -1   2   5   73.21    1.54 
  -1   2   5   82.24    1.27 
   1  -2  -5   73.70    1.84 
   1  -2  -5   54.21    1.11 
   1  -2  -5   77.28    1.24 
   1  -2  -5   54.70    1.54 
  -1   2   4  242.00    3.34 
  -1   2   4  201.70    2.19 
  -1   2   4  171.41    2.05 
  -1   2   4  249.76    3.28 
  -1   2   4  233.31    2.71 
  -1   2   4  251.54    2.60 
   1  -2  -4  246.54    3.38 
   1  -2  -4  179.01    2.08 
   1  -2  -4  215.45    2.53 
   1  -2  -4  256.10    2.72 
   1  -2  -4  166.67    2.69 
  -1   2   3    4.15    0.42 
  -1   2   3    4.29    0.30 
  -1   2   3    4.60    0.32 
   1  -2  -3    4.41    0.29 
   1  -2  -3    4.39    0.31 
   1  -2  -3    3.81    0.40 
  -1   2   2 1121.78   16.91 
  -1   2   2  900.89   12.07 
  -1   2   2 1213.48   13.48 
  -1   2   2  979.37   12.32 
   1  -2  -2 1103.81   14.06 
   1  -2  -2 1041.21   11.43 
   1  -2  -2 1034.88   13.60 
   1  -2  -2  626.68    8.46 
  -1   2   1    4.76    0.43 
  -1   2   1    4.23    0.41 
  -1   2   1    3.26    0.23 
  -1   2   1    4.53    0.22 
  -1   2   1    3.41    0.33 
   1  -2  -1    3.92    0.25 
   1  -2  -1    4.64    0.22 
   1  -2  -1    0.03    0.06 
   1  -2  -1    2.61    0.32 
  -1   2   0  625.35    5.72 
  -1   2   0  381.27    5.29 
  -1   2   0  614.99    5.66 
  -1   2   0  384.79    4.36 
  -1   2   0  555.75    7.08 
  -1   2   0  465.99    4.45 
   1  -2   0  444.40    5.91 
   1  -2   0  484.31    6.71 
   1  -2   0  655.11    7.65 
   1  -2   0  448.49    6.75 
   1  -2   0  406.53    5.28 
  -1   2  -1   53.47    1.09 
  -1   2  -1   76.00    1.70 
  -1   2  -1   54.80    1.23 
  -1   2  -1   63.00    1.08 
  -1   2  -1   64.26    1.51 
   1  -2   1   59.08    1.14 
   1  -2   1   37.32    0.99 
   1  -2   1   80.63    1.23 
   1  -2   1   56.02    1.40 
   1  -2   1   57.83    1.27 
  -1   2  -2  336.27    4.04 
  -1   2  -2  230.41    2.82 
  -1   2  -2  337.26    4.04 
  -1   2  -2  223.94    2.95 
  -1   2  -2  267.90    2.91 
  -1   2  -2  263.03    3.44 
   1  -2   2  240.96    2.86 
   1  -2   2  250.57    3.13 
   1  -2   2  332.30    3.27 
   1  -2   2  243.98    3.32 
   1  -2   2  285.97    3.08 
  -1   2  -3  183.27    2.97 
  -1   2  -3  132.09    2.23 
  -1   2  -3  128.86    2.33 
  -1   2  -3  146.17    2.20 
  -1   2  -3  145.13    2.61 
   1  -2   3  137.78    2.27 
   1  -2   3  142.14    2.45 
   1  -2   3  126.98    2.43 
   1  -2   3  165.67    2.11 
  -1   2  -4   91.11    2.15 
  -1   2  -4   74.23    1.79 
  -1   2  -4  100.18    2.26 
  -1   2  -4   70.65    1.82 
  -1   2  -4   78.40    1.72 
   1  -2   4   76.32    1.90 
   1  -2   4   70.76    1.89 
   1  -2   4   95.83    1.45 
  -1   2  -5  122.95    2.65 
  -1   2  -5   99.88    2.25 
  -1   2  -5  116.96    2.58 
  -1   2  -5   98.04    2.31 
  -1   2  -5  105.12    2.19 
  -1   2  -5  106.19    1.42 
   1  -2   5   98.75    2.33 
   1  -2   5  103.84    2.17 
   1  -2   5   90.68    2.25 
  -1   2  -6    8.07    0.73 
  -1   2  -6    6.54    0.64 
  -1   2  -6    6.91    0.68 
  -1   2  -6    6.66    0.65 
  -1   2  -6    6.64    0.61 
   1  -2   6    6.76    0.61 
   1  -2   6    5.98    0.63 
  -1   2  -7   92.00    2.53 
  -1   2  -7   85.25    2.37 
  -1   2  -7   78.78    2.33 
   1  -2   7   87.52    2.30 
   1  -2   7   74.36    2.24 
  -1   2  -8   -0.02    0.29 
  -1   2  -8    0.34    0.30 
  -1   2  -8    0.09    0.26 
   1  -2   8    0.25    0.30 
   1  -2   8    0.22    0.29 
  -1   2  -9   92.45    2.80 
  -1   2  -9   85.90    2.66 
  -1   2  -9   82.39    2.64 
   1  -2   9   92.29    2.67 
   1  -2   9   79.19    2.52 
  -1   2 -10    8.71    0.95 
  -1   2 -10    8.67    0.92 
  -1   2 -10    8.60    0.92 
   1  -2  10    9.90    0.95 
   1  -2  10    8.30    0.89 
  -1   2 -11   29.66    1.75 
  -1   2 -11   29.56    1.73 
  -1   2 -11   29.50    1.74 
   1  -2  11   32.02    1.75 
   1  -2  11   26.74    1.60 
  -1   2 -12   15.64    1.35 
  -1   2 -12   17.11    1.39 
  -1   2 -12   14.63    1.30 
   1  -2  12   16.41    1.34 
   1  -2  12   15.06    1.26 
  -1   2 -13   17.72    1.50 
  -1   2 -13   19.12    1.54 
  -1   2 -13   17.83    1.49 
   1  -2  13   20.63    1.56 
   1  -2  13   20.87    1.53 
  -1   2 -14   43.07    2.39 
  -1   2 -14   47.04    2.50 
  -1   2 -14   47.40    2.50 
   1  -2  14   47.07    2.44 
   1  -2  14   43.25    2.26 
  -1   2 -15    0.90    0.54 
  -1   2 -15    0.27    0.47 
  -1   2 -15    0.83    0.52 
   1  -2  15    1.68    0.64 
   1  -2  15    0.78    0.51 
  -1   2 -16   17.01    1.67 
  -1   2 -16   20.95    1.84 
  -1   2 -16   18.52    1.73 
   1  -2  16   18.47    1.69 
   1  -2  16   17.31    1.57 
  -1   2 -17    1.45    0.70 
  -1   2 -17    0.95    0.64 
   1  -2  17    2.10    0.76 
   1  -2  17    1.26    0.63 
  -1   2 -18   20.68    1.98 
  -1   2 -18   24.86    2.16 
   1  -2  18   21.68    1.99 
   1  -2  18   23.35    1.94 
  -1   1  19   23.51    2.04 
   1  -1 -19   21.99    1.97 
   1  -1 -19   21.77    1.88 
  -1   1  18   -0.03    0.48 
   1  -1 -18    0.35    0.52 
   1  -1 -18    0.47    0.52 
  -1   1  17   46.24    2.58 
   1  -1 -17   39.74    2.40 
   1  -1 -17   44.33    2.44 
   1  -1 -17   45.13    2.34 
  -1   1  16    1.70    0.61 
  -1   1  16    2.17    0.52 
   1  -1 -16    1.70    0.63 
   1  -1 -16    1.92    0.60 
   1  -1 -16    1.70    0.54 
  -1   1  15   67.24    2.84 
  -1   1  15   68.35    2.23 
   1  -1 -15   60.53    2.72 
   1  -1 -15   68.45    2.76 
   1  -1 -15   67.53    2.61 
  -1   1  14   19.57    1.49 
  -1   1  14   17.81    1.11 
   1  -1 -14   16.00    1.37 
   1  -1 -14   16.96    1.33 
   1  -1 -14   18.43    1.31 
   1  -1 -14   20.32    1.11 
  -1   1  13   36.64    1.92 
  -1   1  13   33.36    1.43 
   1  -1 -13   32.69    1.83 
   1  -1 -13   33.90    1.77 
   1  -1 -13   31.23    1.62 
   1  -1 -13   36.36    1.44 
  -1   1  12   55.47    2.24 
  -1   1  12   47.11    1.61 
   1  -1 -12   47.32    2.10 
   1  -1 -12   46.88    1.97 
   1  -1 -12   43.54    1.80 
   1  -1 -12   54.35    1.71 
  -1   1  11   22.56    1.36 
  -1   1  11   19.16    0.98 
   1  -1 -11   19.11    1.28 
   1  -1 -11   18.82    1.19 
   1  -1 -11   18.49    1.12 
   1  -1 -11   21.11    1.05 
  -1   1  10  135.19    3.16 
  -1   1  10  116.37    2.31 
  -1   1  10  138.80    2.53 
   1  -1 -10  127.16    3.12 
   1  -1 -10  129.29    2.94 
   1  -1 -10  112.32    2.60 
   1  -1 -10  140.20    2.66 
  -1   1   9    0.15    0.22 
  -1   1   9    0.18    0.26 
  -1   1   9    0.20    0.20 
  -1   1   9    0.39    0.20 
   1  -1  -9    0.30    0.27 
   1  -1  -9    0.35    0.25 
   1  -1  -9    0.86    0.27 
   1  -1  -9    0.26    0.23 
  -1   1   8   73.36    1.81 
  -1   1   8   71.07    2.00 
  -1   1   8   64.18    1.49 
  -1   1   8   78.68    1.65 
   1  -1  -8   68.73    2.03 
   1  -1  -8   66.07    1.82 
   1  -1  -8   62.05    1.66 
   1  -1  -8   70.27    1.74 
  -1   1   7    0.56    0.21 
  -1   1   7    1.17    0.30 
  -1   1   7    0.57    0.18 
  -1   1   7    0.62    0.20 
   1  -1  -7    1.08    0.31 
   1  -1  -7    0.98    0.26 
   1  -1  -7    0.80    0.22 
   1  -1  -7    0.07    0.10 
  -1   1   6  137.22    2.26 
  -1   1   6  127.39    2.06 
  -1   1   6  136.89    2.42 
  -1   1   6  130.08    1.93 
  -1   1   6  156.00    2.12 
   1  -1  -6  147.85    2.67 
   1  -1  -6  115.61    2.07 
   1  -1  -6  114.29    1.95 
   1  -1  -6  126.17    2.22 
  -1   1   5    7.79    0.47 
  -1   1   5    7.66    0.44 
  -1   1   5    8.14    0.53 
  -1   1   5    9.09    0.44 
   1  -1  -5    8.67    0.60 
   1  -1  -5    7.02    0.45 
   1  -1  -5    8.03    0.42 
   1  -1  -5    7.30    0.51 
  -1   1   4   48.46    1.03 
  -1   1   4   49.03    0.99 
  -1   1   4   51.34    1.16 
  -1   1   4   63.47    1.13 
   1  -1  -4   60.57    1.45 
   1  -1  -4   46.44    1.01 
   1  -1  -4   58.56    1.09 
   1  -1  -4   46.73    1.22 
  -1   1   3   75.62    1.15 
  -1   1   3   76.01    1.25 
  -1   1   3   76.56    1.24 
  -1   1   3   98.87    1.42 
   1  -1  -3   76.01    1.18 
   1  -1  -3   94.45    1.40 
   1  -1  -3   67.50    1.42 
  -1   1   2  260.38    2.94 
  -1   1   2  214.66    3.29 
  -1   1   2  249.56    3.88 
  -1   1   2  256.95    3.74 
  -1   1   2  179.89    2.28 
  -1   1   2  209.45    2.68 
  -1   1   2  252.64    2.60 
   1  -1  -2  253.36    2.69 
  -1   1   1  384.86    6.10 
  -1   1   1  373.08    6.07 
  -1   1   1  393.41    3.78 
  -1   1   1  360.26    5.53 
  -1   1   1  353.06    3.34 
   1  -1  -1  377.75    5.95 
   1  -1  -1  426.71    5.87 
   1  -1  -1  374.25    4.85 
   1  -1  -1  266.17    2.93 
  -1   1   0  113.02    1.73 
  -1   1   0   92.44    1.29 
  -1   1   0  113.70    1.73 
  -1   1   0   92.94    1.37 
  -1   1   0   96.69    1.53 
   1  -1   0  102.54    1.35 
   1  -1   0  122.41    1.78 
   1  -1   0  103.31    1.44 
   1  -1   0   84.10    1.42 
  -1   1  -1  321.16    3.38 
  -1   1  -1  231.37    3.17 
  -1   1  -1  322.94    3.38 
  -1   1  -1  243.60    2.72 
  -1   1  -1  265.28    2.95 
   1  -1   1  248.65    3.66 
   1  -1   1  265.15    3.70 
   1  -1   1  231.47    3.81 
   1  -1   1  261.45    3.73 
   1  -1   1  252.79    2.91 
   1  -1   1  259.82    2.75 
  -1   1  -2   46.94    1.19 
  -1   1  -2   36.78    0.94 
  -1   1  -2   47.75    1.19 
  -1   1  -2   38.68    1.03 
  -1   1  -2   41.51    1.13 
  -1   1  -2   38.61    0.85 
   1  -1   2   19.21    0.67 
   1  -1   2   38.64    1.03 
   1  -1   2   37.29    0.84 
   1  -1   2   39.26    0.86 
   1  -1   2   38.78    1.09 
   1  -1   2   43.44    0.91 
  -1   1  -3  263.63    3.29 
  -1   1  -3  201.66    2.68 
  -1   1  -3  262.41    3.27 
  -1   1  -3  203.47    2.79 
  -1   1  -3  238.39    2.41 
   1  -1   3  214.21    2.75 
   1  -1   3  211.83    2.84 
   1  -1   3  130.00    1.92 
   1  -1   3  203.07    2.83 
   1  -1   3  254.57    2.62 
  -1   1  -4  248.89    3.38 
  -1   1  -4  200.07    2.89 
  -1   1  -4  254.84    3.42 
  -1   1  -4  205.68    3.02 
  -1   1  -4  247.32    2.44 
  -1   1  -4  265.27    2.68 
   1  -1   4  218.50    3.02 
   1  -1   4  215.63    3.09 
   1  -1   4  214.10    2.84 
   1  -1   4  197.12    2.94 
  -1   1  -5  174.87    2.95 
  -1   1  -5  153.42    2.69 
  -1   1  -5  180.18    2.99 
  -1   1  -5  148.46    2.70 
  -1   1  -5  181.35    1.94 
  -1   1  -5  192.08    2.11 
   1  -1   5  161.40    2.82 
   1  -1   5  157.30    2.59 
   1  -1   5  142.56    2.59 
  -1   1  -6   79.82    2.08 
  -1   1  -6   75.06    1.98 
  -1   1  -6   71.55    1.96 
  -1   1  -6   88.06    1.19 
  -1   1  -6   89.72    1.23 
   1  -1   6   77.62    2.05 
   1  -1   6   77.78    1.93 
   1  -1   6   68.90    1.87 
  -1   1  -7   30.87    1.37 
  -1   1  -7   29.61    1.33 
  -1   1  -7   28.19    1.31 
   1  -1   7   32.00    1.33 
   1  -1   7   26.08    1.21 
  -1   1  -8  172.73    3.50 
  -1   1  -8  166.65    3.41 
  -1   1  -8  154.53    3.29 
   1  -1   8  174.25    3.39 
   1  -1   8  149.48    3.09 
  -1   1  -9    0.42    0.33 
  -1   1  -9   -0.01    0.26 
  -1   1  -9    0.26    0.28 
   1  -1   9    0.00    0.26 
   1  -1   9    0.39    0.30 
  -1   1 -10   51.68    2.10 
  -1   1 -10   53.93    2.13 
  -1   1 -10   53.03    2.11 
   1  -1  10   55.56    2.12 
   1  -1  10   47.65    1.88 
  -1   1 -11   11.42    1.07 
  -1   1 -11   12.11    1.09 
  -1   1 -11   11.97    1.07 
   1  -1  11   13.22    1.11 
   1  -1  11   12.51    1.04 
  -1   1 -12   39.43    2.02 
  -1   1 -12   45.79    2.17 
  -1   1 -12   44.30    2.12 
   1  -1  12   45.68    2.13 
   1  -1  12   41.35    1.91 
  -1   1 -13   23.63    1.65 
  -1   1 -13   29.54    1.84 
  -1   1 -13   28.45    1.78 
   1  -1  13   27.84    1.76 
   1  -1  13   26.98    1.62 
  -1   1 -14   27.29    1.85 
  -1   1 -14   28.31    1.88 
  -1   1 -14   25.82    1.78 
   1  -1  14   28.27    1.86 
   1  -1  14   25.47    1.64 
  -1   1 -15   37.63    2.26 
  -1   1 -15   39.96    2.33 
  -1   1 -15   36.03    2.19 
   1  -1  15   38.90    2.26 
   1  -1  15   41.32    2.15 
  -1   1 -16    7.76    1.14 
  -1   1 -16    9.83    1.27 
  -1   1 -16   10.17    1.25 
   1  -1  16   10.46    1.28 
   1  -1  16    9.22    1.11 
  -1   1 -17   28.49    2.15 
  -1   1 -17   30.75    2.23 
  -1   1 -17   33.32    2.28 
   1  -1  17   32.98    2.28 
   1  -1  17   30.02    1.98 
  -1   1 -18    0.32    0.56 
  -1   1 -18    0.39    0.58 
   1  -1  18    0.15    0.55 
   1  -1  18    0.40    0.54 
  -1   0  19    6.70    1.18 
   1   0 -19    5.01    1.05 
   1   0 -19    6.59    1.14 
  -1   0  18   19.26    1.80 
   1   0 -18   17.53    1.72 
   1   0 -18   19.72    1.77 
  -1   0  17    4.39    0.92 
  -1   0  17    3.94    0.72 
   1   0 -17    3.64    0.85 
   1   0 -17    5.45    0.96 
   1   0 -17    4.64    0.87 
  -1   0  16   63.65    2.95 
  -1   0  16   62.54    2.42 
   1   0 -16   51.79    2.65 
   1   0 -16   59.40    2.78 
   1   0 -16   56.26    2.61 
  -1   0  15    0.65    0.49 
  -1   0  15    0.49    0.38 
   1   0 -15    0.35    0.45 
   1   0 -15    0.22    0.41 
   1   0 -15    0.08    0.35 
  -1   0  14   41.54    2.19 
  -1   0  14   34.33    1.66 
   1   0 -14   35.65    2.01 
   1   0 -14   34.49    1.94 
   1   0 -14   33.33    1.84 
  -1   0  13   33.45    1.87 
  -1   0  13   34.34    1.59 
   1   0 -13   29.40    1.75 
   1   0 -13   33.06    1.81 
   1   0 -13   31.68    1.71 
   1   0 -13   36.13    1.25 
  -1   0  12   60.82    2.40 
  -1   0  12   58.37    1.98 
   1   0 -12   56.61    2.30 
   1   0 -12   59.20    2.30 
   1   0 -12   56.26    2.17 
   1   0 -12   68.28    1.70 
  -1   0  11   52.73    2.12 
  -1   0  11   44.34    1.64 
   1   0 -11   46.40    1.98 
   1   0 -11   46.93    1.94 
   1   0 -11   46.75    1.88 
   1   0 -11   54.48    1.48 
  -1   0  10   51.16    1.97 
  -1   0  10   45.61    1.58 
   1   0 -10   44.46    1.83 
   1   0 -10   46.70    1.84 
   1   0 -10   45.20    1.74 
   1   0 -10   54.37    1.44 
  -1   0   9   79.03    2.32 
  -1   0   9   65.63    1.80 
   1   0  -9   67.14    2.12 
   1   0  -9   73.51    2.17 
   1   0  -9   64.80    1.97 
   1   0  -9   82.32    1.74 
  -1   0   8   23.11    1.11 
  -1   0   8   24.10    1.20 
  -1   0   8   19.20    0.91 
  -1   0   8   23.17    1.01 
   1   0  -8   20.85    1.11 
   1   0  -8   21.72    1.11 
   1   0  -8   20.63    1.04 
   1   0  -8   24.64    0.91 
  -1   0   7  151.64    2.70 
  -1   0   7  155.63    2.90 
  -1   0   7  137.72    2.37 
  -1   0   7  161.27    2.58 
   1   0  -7  142.88    2.77 
   1   0  -7  141.85    2.69 
   1   0  -7  131.31    2.50 
   1   0  -7  158.07    2.92 
   1   0  -7  165.32    2.39 
  -1   0   6    0.43    0.20 
  -1   0   6    0.30    0.16 
  -1   0   6    0.67    0.20 
   1   0  -6    0.19    0.20 
   1   0  -6    0.34    0.20 
   1   0  -6    0.18    0.16 
   1   0  -6    0.71    0.24 
   1   0  -6    0.59    0.19 
  -1   0   5  114.17    2.04 
  -1   0   5  104.16    1.89 
  -1   0   5  102.76    1.78 
  -1   0   5  114.42    1.88 
   1   0  -5  104.29    2.00 
   1   0  -5  102.56    1.93 
   1   0  -5   92.03    1.78 
   1   0  -5  111.74    2.08 
   1   0  -5  112.10    1.79 
  -1   0   4   10.42    0.55 
  -1   0   4    9.20    0.50 
  -1   0   4    9.56    0.48 
  -1   0   4   10.28    0.51 
   1   0  -4    8.61    0.52 
   1   0  -4    8.88    0.51 
   1   0  -4    9.66    0.54 
   1   0  -4    5.30    0.36 
  -1   0   3   49.05    1.05 
  -1   0   3   46.39    1.01 
  -1   0   3   49.45    1.08 
  -1   0   3   51.56    1.05 
   1   0  -3   51.11    1.12 
   1   0  -3   43.47    0.99 
   1   0  -3   45.72    1.04 
   1   0  -3   33.20    0.86 
  -1   0   2  370.48    4.57 
  -1   0   2  317.20    4.24 
  -1   0   2  319.63    4.74 
  -1   0   2  358.42    5.56 
   1   0  -2  340.94    4.42 
   1   0  -2  313.14    5.20 
   1   0  -2  296.32    4.86 
   1   0  -2  282.91    2.91 
  -1   0   1  134.79    1.65 
  -1   0   1  142.80    1.65 
  -1   0   1  134.61    1.68 
  -1   0   1  132.82    1.70 
  -1   0   1  130.68    1.54 
  -1   0   1  128.89    1.65 
   1   0  -1   74.35    1.10 
   1   0  -1  121.62    1.52 
   1   0  -1  127.44    1.67 
   1   0  -1  102.25    1.48 
  -1   0   0  265.59    3.70 
  -1   0   0  256.07    3.46 
  -1   0   0  274.61    4.07 
  -1   0   0  245.66    4.08 
  -1   0   0  274.43    4.15 
  -1   0   0  248.00    3.15 
  -1   0   0  217.69    2.28 
   1   0   0  281.41    3.93 
   1   0   0  278.75    3.22 
   1   0   0  247.24    4.22 
   1   0   0  278.22    4.39 
   1   0   0  242.66    3.31 
   1   0   0  212.31    2.32 
  -1   0  -1  133.67    1.67 
  -1   0  -1  119.88    1.59 
  -1   0  -1  128.98    1.62 
  -1   0  -1  119.72    1.64 
  -1   0  -1  124.12    1.48 
  -1   0  -1  123.67    1.67 
  -1   0  -1  113.25    1.48 
   1   0   1  140.00    1.66 
   1   0   1  131.26    1.65 
   1   0   1  142.12    1.67 
   1   0   1  121.69    1.64 
   1   0   1  128.30    1.58 
   1   0   1  107.03    1.47 
  -1   0  -2  187.72    2.22 
  -1   0  -2  175.17    2.18 
  -1   0  -2  188.01    2.21 
  -1   0  -2  191.57    2.10 
  -1   0  -2  189.65    2.27 
  -1   0  -2  155.81    1.85 
  -1   0  -2  181.85    1.99 
   1   0   2  187.62    2.23 
   1   0   2  211.16    2.32 
   1   0   2  185.42    2.27 
   1   0   2  173.91    2.19 
  -1   0  -3    2.56    0.29 
  -1   0  -3    2.40    0.29 
  -1   0  -3    2.91    0.31 
  -1   0  -3    3.13    0.32 
  -1   0  -3    3.10    0.30 
  -1   0  -3    2.47    0.29 
  -1   0  -3    2.57    0.23 
   1   0   3    2.73    0.31 
   1   0   3    3.10    0.33 
   1   0   3    2.46    0.26 
   1   0   3    2.88    0.31 
   1   0   3    2.60    0.22 
  -1   0  -4  447.34    5.95 
  -1   0  -4  437.13    5.86 
  -1   0  -4  460.43    4.42 
  -1   0  -4  506.28    6.27 
   1   0   4  473.17    4.64 
   1   0   4  446.02    5.86 
   1   0   4  451.14    5.88 
   1   0   4  418.16    4.22 
   1   0   4  490.26    4.50 
  -1   0  -5  116.12    2.19 
  -1   0  -5  126.26    2.31 
  -1   0  -5  122.50    2.27 
  -1   0  -5  130.51    2.20 
  -1   0  -5  136.81    1.75 
   1   0   5  138.17    2.42 
   1   0   5  132.71    2.37 
   1   0   5  130.67    2.28 
   1   0   5  119.53    2.11 
   1   0   5  131.88    1.67 
  -1   0  -6  141.20    2.63 
  -1   0  -6  152.93    2.76 
  -1   0  -6  144.69    2.67 
  -1   0  -6  154.94    2.57 
  -1   0  -6  158.64    1.96 
   1   0   6  159.30    2.81 
   1   0   6  158.04    2.74 
   1   0   6  140.63    2.45 
  -1   0  -7  227.10    3.64 
  -1   0  -7  238.35    3.76 
  -1   0  -7  235.77    3.70 
  -1   0  -7  248.83    2.67 
   1   0   7  257.77    3.89 
   1   0   7  265.96    3.92 
   1   0   7  232.66    3.42 
  -1   0  -8   61.07    1.94 
  -1   0  -8   66.98    2.04 
  -1   0  -8   63.92    1.97 
  -1   0  -8   66.82    1.23 
   1   0   8   71.74    2.08 
   1   0   8   65.23    1.83 
  -1   0  -9  175.15    3.56 
  -1   0  -9  189.63    3.72 
  -1   0  -9  189.18    3.67 
  -1   0  -9  187.18    2.29 
   1   0   9  199.07    3.77 
   1   0   9  181.83    3.29 
  -1   0 -10    1.31    0.43 
  -1   0 -10    0.50    0.34 
  -1   0 -10    0.83    0.35 
  -1   0 -10    1.66    0.23 
   1   0  10    0.79    0.36 
   1   0  10    0.68    0.32 
  -1   0 -11   55.13    2.19 
  -1   0 -11   63.92    2.36 
  -1   0 -11   62.80    2.30 
  -1   0 -11   66.47    1.28 
   1   0  11   65.09    2.36 
   1   0  11   58.73    2.02 
  -1   0 -12    0.82    0.43 
  -1   0 -12    1.04    0.44 
  -1   0 -12    1.14    0.42 
  -1   0 -12    1.54    0.24 
   1   0  12    1.24    0.47 
   1   0  12    1.20    0.42 
  -1   0 -13   58.31    2.49 
  -1   0 -13   66.41    2.65 
  -1   0 -13   62.12    2.52 
   1   0  13   65.87    2.33 
  -1   0 -14   19.36    1.53 
  -1   0 -14   18.37    1.49 
  -1   0 -14   19.19    1.48 
   1   0  14   20.95    1.58 
   1   0  14   18.05    1.30 
  -1   0 -15   43.54    2.36 
  -1   0 -15   43.06    2.35 
  -1   0 -15   41.91    2.26 
   1   0  15   44.55    2.38 
   1   0  15   42.38    2.03 
  -1   0 -16   29.93    2.06 
  -1   0 -16   32.31    2.13 
  -1   0 -16   32.65    2.09 
   1   0  16   33.16    2.15 
   1   0  16   32.45    1.86 
  -1   0 -17    4.11    0.90 
  -1   0 -17    4.08    0.89 
  -1   0 -17    4.15    0.85 
   1   0  17    3.71    0.87 
   1   0  17    3.54    0.74 
  -1   0 -18   27.13    2.13 
  -1   0 -18   27.04    2.13 
  -1   0 -18   28.81    2.13 
   1   0  18   28.35    2.17 
   1   0  18   28.38    1.87 
  -1   0 -19    0.51    0.62 
  -1   0 -19    0.96    0.66 
   1   0  19    1.07    0.68 
  -1  -1  19    6.32    1.18 
   1   1 -19    4.82    1.05 
   1   1 -19    6.50    1.17 
  -1  -1  18   10.34    1.40 
  -1  -1  18   12.15    1.29 
   1   1 -18    9.18    1.31 
   1   1 -18   10.32    1.36 
  -1  -1  17   20.73    1.83 
  -1  -1  17   22.10    1.64 
   1   1 -17   19.98    1.77 
   1   1 -17   21.41    1.83 
  -1  -1  16   12.91    1.41 
  -1  -1  16   12.12    1.19 
   1   1 -16    9.00    1.18 
   1   1 -16   11.53    1.32 
   1   1 -16   10.68    1.25 
  -1  -1  15   57.15    2.74 
  -1  -1  15   53.21    2.32 
   1   1 -15   50.61    2.54 
   1   1 -15   51.58    2.57 
   1   1 -15   52.04    2.52 
  -1  -1  14    0.20    0.42 
  -1  -1  14    0.26    0.36 
   1   1 -14    0.96    0.50 
   1   1 -14    0.08    0.36 
   1   1 -14    0.41    0.39 
  -1  -1  13   27.89    1.76 
  -1  -1  13   26.47    1.52 
   1   1 -13   23.97    1.61 
   1   1 -13   28.75    1.76 
   1   1 -13   26.45    1.65 
  -1  -1  12   -0.21    0.34 
  -1  -1  12   -0.03    0.29 
   1   1 -12    0.32    0.37 
   1   1 -12   -0.05    0.30 
   1   1 -12    0.38    0.34 
   1   1 -12    0.28    0.19 
  -1  -1  11   67.55    2.47 
  -1  -1  11   55.94    2.01 
   1   1 -11   55.91    2.20 
   1   1 -11   59.79    2.29 
   1   1 -11   58.50    2.23 
   1   1 -11   69.68    1.40 
  -1  -1  10   84.27    2.62 
  -1  -1  10   71.94    2.18 
   1   1 -10   70.46    2.34 
   1   1 -10   77.25    2.48 
   1   1 -10   69.77    2.31 
   1   1 -10   82.44    2.60 
   1   1 -10   90.10    1.60 
  -1  -1   9  108.82    2.83 
  -1  -1   9   84.39    2.26 
   1   1  -9   89.17    2.49 
   1   1  -9   96.33    2.63 
   1   1  -9   88.46    2.47 
   1   1  -9  110.00    2.85 
   1   1  -9  112.99    1.78 
  -1  -1   8  150.89    2.91 
   1   1  -8  161.39    3.19 
   1   1  -8  170.03    3.34 
   1   1  -8  154.46    3.13 
   1   1  -8  180.55    3.49 
   1   1  -8  198.26    2.43 
  -1  -1   7    8.57    0.70 
  -1  -1   7    7.19    0.61 
   1   1  -7    7.03    0.63 
   1   1  -7    7.32    0.66 
   1   1  -7    7.62    0.66 
   1   1  -7    7.91    0.70 
   1   1  -7    8.82    0.45 
  -1  -1   6  337.47    4.29 
  -1  -1   6  302.90    3.89 
   1   1  -6  314.74    4.06 
   1   1  -6  329.53    4.30 
   1   1  -6  299.38    4.02 
   1   1  -6  373.97    4.65 
   1   1  -6  332.69    4.08 
   1   1  -6  390.02    5.00 
  -1  -1   5    3.73    0.42 
  -1  -1   5    2.80    0.35 
  -1  -1   5    3.17    0.37 
   1   1  -5    2.38    0.34 
   1   1  -5    3.27    0.39 
   1   1  -5    2.98    0.37 
   1   1  -5    3.37    0.41 
   1   1  -5    2.96    0.36 
   1   1  -5    4.12    0.30 
  -1  -1   4  165.71    2.52 
  -1  -1   4  148.56    2.36 
  -1  -1   4  133.40    2.17 
  -1  -1   4  147.25    2.28 
   1   1  -4  127.78    2.05 
   1   1  -4  147.54    2.38 
   1   1  -4  160.53    2.50 
   1   1  -4  143.56    2.25 
   1   1  -4  157.51    1.94 
  -1  -1   3   60.43    1.34 
  -1  -1   3   54.52    1.26 
  -1  -1   3   48.00    1.17 
  -1  -1   3   53.97    1.24 
  -1  -1   3   63.50    1.09 
   1   1  -3   12.82    0.54 
   1   1  -3   55.13    1.28 
   1   1  -3   60.46    1.35 
   1   1  -3   56.99    1.04 
  -1  -1   2  154.18    1.80 
  -1  -1   2  204.44    2.45 
  -1  -1   2  230.92    2.60 
  -1  -1   2  172.17    2.23 
  -1  -1   2  183.82    2.29 
  -1  -1   2  189.79    2.15 
  -1  -1   2  212.54    2.24 
   1   1  -2  144.04    1.77 
   1   1  -2  221.32    2.59 
   1   1  -2  167.06    2.19 
  -1  -1   1   58.62    0.86 
  -1  -1   1   84.39    1.37 
  -1  -1   1   88.63    1.39 
  -1  -1   1   96.45    1.43 
  -1  -1   1   76.90    1.29 
  -1  -1   1   72.63    1.17 
   1   1  -1   65.16    0.96 
   1   1  -1   92.32    1.41 
   1   1  -1   74.03    1.28 
   1   1  -1   79.05    1.21 
  -1  -1   0  270.95    2.83 
  -1  -1   0  239.13    3.34 
  -1  -1   0  297.66    4.22 
  -1  -1   0  238.07    3.09 
  -1  -1   0  203.87    2.89 
   1   1   0  266.82    4.25 
   1   1   0  254.86    4.26 
   1   1   0  274.61    3.75 
   1   1   0  223.56    3.57 
   1   1   0  228.35    2.35 
  -1  -1  -1  324.12    5.13 
  -1  -1  -1  480.25    7.33 
  -1  -1  -1  453.37    7.48 
  -1  -1  -1  528.40    7.66 
  -1  -1  -1  501.23    7.09 
  -1  -1  -1  357.72    5.66 
   1   1   1  400.31    5.91 
   1   1   1  501.70    7.29 
   1   1   1  476.49    7.34 
   1   1   1  500.12    7.29 
   1   1   1  471.98    6.34 
   1   1   1  381.99    4.42 
  -1  -1  -2   94.25    1.29 
  -1  -1  -2  135.68    1.85 
  -1  -1  -2  137.70    1.85 
  -1  -1  -2  147.02    1.86 
  -1  -1  -2  143.74    1.77 
  -1  -1  -2  110.03    1.57 
   1   1   2  105.71    1.35 
   1   1   2  148.06    1.92 
   1   1   2  144.58    1.88 
   1   1   2  135.97    1.81 
   1   1   2  144.05    1.81 
  -1  -1  -3  436.88    5.93 
  -1  -1  -3  570.04    7.69 
  -1  -1  -3  548.38    7.63 
  -1  -1  -3  630.29    5.84 
  -1  -1  -3  627.01    8.76 
  -1  -1  -3  491.40    7.48 
   1   1   3  615.02    9.31 
   1   1   3  607.12    9.00 
   1   1   3  590.62    8.97 
   1   1   3  584.47    8.08 
  -1  -1  -4   11.38    0.57 
  -1  -1  -4   15.91    0.71 
  -1  -1  -4   14.87    0.66 
  -1  -1  -4   16.87    0.61 
  -1  -1  -4    7.23    0.40 
   1   1   4   16.24    0.72 
   1   1   4   16.69    0.71 
   1   1   4   16.61    0.72 
   1   1   4   15.83    0.59 
  -1  -1  -5  436.24    6.08 
  -1  -1  -5  572.39    8.32 
  -1  -1  -5  528.74    7.37 
  -1  -1  -5  555.58    6.28 
  -1  -1  -5  518.73    8.19 
   1   1   5  604.44    8.16 
   1   1   5  588.98    5.45 
   1   1   5  582.14   10.16 
   1   1   5  556.80    7.35 
  -1  -1  -6    5.62    0.51 
  -1  -1  -6    8.05    0.61 
  -1  -1  -6    7.86    0.58 
  -1  -1  -6    8.51    0.52 
  -1  -1  -6    7.22    0.45 
   1   1   6    8.97    0.62 
   1   1   6    8.03    0.61 
   1   1   6    8.82    0.53 
  -1  -1  -7  248.52    3.69 
  -1  -1  -7  288.98    4.06 
  -1  -1  -7  273.32    3.82 
  -1  -1  -7  284.02    3.44 
  -1  -1  -7  268.48    3.12 
   1   1   7  315.55    4.13 
   1   1   7  308.33    4.22 
   1   1   7  291.91    3.53 
  -1  -1  -8   80.62    2.16 
  -1  -1  -8   97.96    2.40 
  -1  -1  -8   94.43    2.28 
  -1  -1  -8   96.54    2.00 
  -1  -1  -8   91.61    1.73 
   1   1   8  106.70    2.44 
   1   1   8  102.99    2.48 
   1   1   8   99.52    2.04 
  -1  -1  -9  110.03    2.70 
  -1  -1  -9  131.01    2.97 
  -1  -1  -9  126.17    2.81 
  -1  -1  -9  119.75    2.07 
   1   1   9  134.10    3.02 
   1   1   9  129.67    2.49 
  -1  -1 -10  112.76    2.91 
  -1  -1 -10  127.10    3.08 
  -1  -1 -10  123.67    2.94 
  -1  -1 -10  126.03    2.19 
   1   1  10  137.05    3.23 
   1   1  10  131.20    2.64 
  -1  -1 -11   34.07    1.68 
  -1  -1 -11   37.39    1.75 
  -1  -1 -11   34.66    1.63 
  -1  -1 -11   37.77    1.19 
   1   1  11   41.31    1.86 
   1   1  11   37.34    1.47 
  -1  -1 -12   68.77    2.52 
  -1  -1 -12   76.05    2.63 
  -1  -1 -12   75.35    2.53 
  -1  -1 -12   81.62    1.81 
   1   1  12   78.60    2.69 
   1   1  12   80.20    2.26 
  -1  -1 -13    1.26    0.48 
  -1  -1 -13    0.91    0.44 
  -1  -1 -13    0.45    0.34 
  -1  -1 -13    0.55    0.25 
   1   1  13    0.78    0.45 
   1   1  13    0.75    0.38 
  -1  -1 -14   66.92    2.73 
  -1  -1 -14   78.52    2.94 
  -1  -1 -14   73.35    2.74 
   1   1  14   78.99    2.97 
   1   1  14   83.12    2.52 
  -1  -1 -15   14.83    1.38 
  -1  -1 -15   16.80    1.45 
  -1  -1 -15   17.87    1.43 
   1   1  15   17.56    1.50 
   1   1  15   18.80    1.27 
  -1  -1 -16   20.12    1.67 
  -1  -1 -16   22.40    1.74 
  -1  -1 -16   23.51    1.71 
   1   1  16   23.38    1.80 
   1   1  16   23.62    1.48 
  -1  -1 -17    7.86    1.14 
  -1  -1 -17    6.64    1.04 
  -1  -1 -17    8.79    1.13 
   1   1  17    7.81    1.14 
   1   1  17    7.91    0.94 
  -1  -1 -18    7.06    1.14 
  -1  -1 -18    7.91    1.18 
  -1  -1 -18    7.51    1.11 
   1   1  18    6.34    1.09 
  -1  -1 -19   14.78    1.66 
  -1  -1 -19   15.75    1.67 
  -1  -1 -19   13.53    1.50 
   1   1  19   13.14    1.57 
  -1  -2  18    3.54    0.97 
  -1  -2  18    2.89    0.80 
   1   2 -18    1.59    0.73 
   1   2 -18    3.14    0.89 
  -1  -2  17   23.34    1.99 
  -1  -2  17   22.94    1.77 
   1   2 -17   21.15    1.87 
   1   2 -17   21.33    1.89 
  -1  -2  16   28.84    2.10 
  -1  -2  16   27.21    1.86 
   1   2 -16   25.86    1.96 
   1   2 -16   27.11    2.03 
  -1  -2  15   22.03    1.78 
  -1  -2  15   20.23    1.55 
   1   2 -15   19.01    1.62 
   1   2 -15   21.34    1.74 
   1   2 -15   19.90    1.66 
  -1  -2  14   41.96    2.32 
  -1  -2  14   34.98    1.94 
   1   2 -14   34.70    2.06 
   1   2 -14   38.17    2.20 
   1   2 -14   35.68    2.10 
  -1  -2  13    7.36    0.99 
  -1  -2  13    6.78    0.87 
   1   2 -13    6.51    0.91 
   1   2 -13    6.83    0.95 
   1   2 -13    5.88    0.87 
  -1  -2  12  109.77    3.42 
  -1  -2  12   90.34    2.88 
   1   2 -12   96.68    3.13 
   1   2 -12  103.48    3.31 
   1   2 -12   96.20    3.16 
   1   2 -12  107.55    3.39 
  -1  -2  11    0.27    0.37 
  -1  -2  11    0.18    0.31 
   1   2 -11   -0.17    0.30 
   1   2 -11    0.08    0.35 
   1   2 -11    0.17    0.33 
   1   2 -11    0.03    0.37 
  -1  -2  10  136.39    3.28 
   1   2 -10  141.80    3.44 
   1   2 -10  158.24    3.75 
   1   2 -10  142.30    3.52 
   1   2 -10  166.19    3.86 
  -1  -2   9   20.37    1.22 
   1   2  -9   23.16    1.31 
   1   2  -9   26.50    1.45 
   1   2  -9   21.78    1.31 
   1   2  -9   26.05    1.45 
  -1  -2   8   61.75    2.00 
  -1  -2   8   75.29    1.14 
   1   2  -8   65.05    2.06 
   1   2  -8   74.33    2.30 
   1   2  -8   66.56    2.16 
   1   2  -8   80.49    2.40 
  -1  -2   7   57.60    1.84 
  -1  -2   7   72.18    1.14 
  -1  -2   7   82.86    1.21 
   1   2  -7   63.44    1.90 
   1   2  -7   69.72    2.10 
   1   2  -7   62.69    1.98 
   1   2  -7   75.86    2.20 
  -1  -2   6   72.62    1.96 
  -1  -2   6   89.14    1.31 
  -1  -2   6  109.28    1.45 
   1   2  -6   80.39    2.00 
   1   2  -6   88.23    2.24 
   1   2  -6   77.99    2.09 
   1   2  -6   99.47    2.38 
  -1  -2   5  197.91    3.22 
  -1  -2   5  160.91    2.84 
  -1  -2   5  204.13    2.25 
  -1  -2   5  263.56    2.58 
   1   2  -5  191.11    2.95 
   1   2  -5  208.75    3.33 
   1   2  -5  188.15    3.14 
   1   2  -5  225.97    3.48 
  -1  -2   4   18.39    0.89 
  -1  -2   4   15.09    0.79 
  -1  -2   4   18.92    0.57 
  -1  -2   4   23.91    0.64 
   1   2  -4   17.60    0.78 
   1   2  -4   18.80    0.90 
   1   2  -4   21.20    0.95 
   1   2  -4   16.67    0.84 
  -1  -2   3  302.57    3.63 
  -1  -2   3  252.03    3.26 
  -1  -2   3  206.68    2.92 
  -1  -2   3  254.29    2.65 
   1   2  -3    0.09    0.07 
   1   2  -3  275.57    3.47 
   1   2  -3  309.77    3.71 
   1   2  -3  307.77    2.92 
  -1  -2   2    4.35    0.39 
  -1  -2   2    4.41    0.34 
  -1  -2   2    3.95    0.37 
  -1  -2   2    2.98    0.34 
  -1  -2   2    3.46    0.36 
  -1  -2   2    3.43    0.27 
   1   2  -2    3.89    0.30 
   1   2  -2    4.79    0.40 
   1   2  -2    4.08    0.39 
   1   2  -2    3.53    0.36 
  -1  -2   1  513.20    6.69 
  -1  -2   1  450.16    5.19 
  -1  -2   1  451.82    6.66 
  -1  -2   1  510.39    7.38 
  -1  -2   1  280.08    3.15 
  -1  -2   1  334.46    3.47 
  -1  -2   1  342.88    4.98 
   1   2  -1  412.95    6.04 
   1   2  -1  419.70    5.98 
   1   2  -1  457.82    7.05 
  -1  -2   0  120.31    1.43 
  -1  -2   0  108.91    1.71 
  -1  -2   0  119.11    1.45 
  -1  -2   0   76.77    1.37 
  -1  -2   0   86.58    1.46 
  -1  -2   0   73.19    1.32 
   1   2   0  113.65    1.43 
   1   2   0  112.83    1.72 
   1   2   0  113.10    1.45 
   1   2   0   78.04    1.39 
  -1  -2  -1  302.15    4.11 
  -1  -2  -1  287.92    3.03 
  -1  -2  -1  344.63    3.40 
  -1  -2  -1  269.34    3.46 
  -1  -2  -1  204.51    2.47 
   1   2   1  304.01    4.40 
   1   2   1  312.77    4.40 
   1   2   1  318.91    4.07 
   1   2   1  326.03    4.26 
   1   2   1  290.30    4.29 
   1   2   1  317.49    3.31 
   1   2   1  239.64    3.35 
  -1  -2  -2  153.09    1.80 
  -1  -2  -2  149.72    1.97 
  -1  -2  -2  150.63    1.82 
  -1  -2  -2  104.69    1.72 
   1   2   2  142.65    1.66 
   1   2   2  165.55    2.14 
   1   2   2  154.45    1.98 
   1   2   2  160.52    2.20 
   1   2   2  138.41    1.77 
  -1  -2  -3    8.46    0.42 
  -1  -2  -3   10.09    0.53 
  -1  -2  -3    9.10    0.47 
  -1  -2  -3    9.90    0.40 
  -1  -2  -3    6.92    0.46 
   1   2   3   10.38    0.54 
   1   2   3    9.93    0.48 
   1   2   3    9.96    0.56 
   1   2   3    9.13    0.38 
  -1  -2  -4   33.80    0.95 
  -1  -2  -4   39.52    1.10 
  -1  -2  -4   38.71    1.01 
  -1  -2  -4   43.07    0.86 
  -1  -2  -4   29.90    0.96 
   1   2   4   43.91    1.16 
   1   2   4   41.17    1.04 
   1   2   4   39.96    1.16 
   1   2   4   41.35    0.84 
  -1  -2  -5   23.48    0.88 
  -1  -2  -5   27.42    0.99 
  -1  -2  -5   27.77    0.92 
  -1  -2  -5   28.94    0.73 
  -1  -2  -5   21.51    0.85 
   1   2   5   31.91    1.07 
   1   2   5   30.35    0.97 
   1   2   5   29.04    1.07 
   1   2   5   30.55    0.76 
  -1  -2  -6  198.57    2.97 
  -1  -2  -6  227.48    3.07 
  -1  -2  -6  234.49    2.59 
  -1  -2  -6  190.74    2.75 
   1   2   6  257.72    3.29 
   1   2   6  240.78    3.47 
   1   2   6  256.14    2.80 
  -1  -2  -7    6.65    0.59 
  -1  -2  -7    7.49    0.62 
  -1  -2  -7    7.25    0.56 
  -1  -2  -7    7.30    0.44 
  -1  -2  -7    0.18    0.11 
   1   2   7    8.72    0.63 
   1   2   7    9.62    0.72 
   1   2   7    9.02    0.49 
  -1  -2  -8  173.04    3.17 
  -1  -2  -8  202.78    3.44 
  -1  -2  -8  202.11    3.25 
  -1  -2  -8  194.61    2.59 
  -1  -2  -8  172.58    2.77 
   1   2   8  233.65    3.52 
   1   2   8  215.30    3.66 
   1   2   8  221.13    2.82 
  -1  -2  -9   43.52    1.66 
  -1  -2  -9   48.67    1.74 
  -1  -2  -9   49.67    1.65 
  -1  -2  -9   46.35    1.28 
  -1  -2  -9   45.05    1.41 
   1   2   9   51.46    1.84 
   1   2   9   52.13    1.36 
  -1  -2 -10  123.84    3.00 
  -1  -2 -10  142.76    3.19 
  -1  -2 -10  141.91    3.01 
  -1  -2 -10  137.91    2.42 
  -1  -2 -10  130.10    2.51 
   1   2  10  150.70    3.38 
   1   2  10  150.97    2.55 
  -1  -2 -11   81.93    2.57 
  -1  -2 -11   90.46    2.66 
  -1  -2 -11   84.04    2.43 
  -1  -2 -11   84.36    2.05 
   1   2  11   98.24    2.85 
   1   2  11   97.68    2.14 
  -1  -2 -12   12.27    1.08 
  -1  -2 -12   15.31    1.17 
  -1  -2 -12   14.06    1.06 
  -1  -2 -12   15.54    0.91 
   1   2  12   16.46    1.25 
   1   2  12   15.43    0.91 
  -1  -2 -13   80.16    2.81 
  -1  -2 -13   88.57    2.90 
  -1  -2 -13   85.18    2.71 
  -1  -2 -13   87.45    2.20 
   1   2  13   85.97    2.94 
   1   2  13   95.77    2.35 
  -1  -2 -14    1.92    0.57 
  -1  -2 -14    1.88    0.54 
  -1  -2 -14    1.20    0.44 
  -1  -2 -14    1.95    0.41 
   1   2  14    1.38    0.53 
   1   2  14    1.98    0.45 
  -1  -2 -15   62.68    2.73 
  -1  -2 -15   65.48    2.74 
  -1  -2 -15   66.81    2.63 
  -1  -2 -15   68.69    2.01 
   1   2  15   70.61    2.91 
   1   2  15   71.42    2.22 
  -1  -2 -16    0.82    0.53 
  -1  -2 -16    0.19    0.43 
  -1  -2 -16    0.08    0.35 
   1   2  16    0.49    0.50 
   1   2  16    0.57    0.39 
  -1  -2 -17   22.43    1.81 
  -1  -2 -17   24.80    1.86 
  -1  -2 -17   24.46    1.75 
   1   2  17   24.20    1.89 
  -1  -2 -18    5.32    1.01 
  -1  -2 -18    5.39    0.98 
  -1  -2 -18    4.62    0.86 
   1   2  18    3.90    0.91 
  -1  -2 -19   13.42    1.55 
  -1  -2 -19   13.92    1.55 
  -1  -2 -19   15.58    1.54 
   1   2  19   16.91    1.73 
  -1  -2 -20   12.09    1.54 
  -1  -2 -20   13.85    1.61 
  -1  -2 -20   14.85    1.57 
   1   2  20   14.14    1.66 
  -1  -3  17    3.20    0.93 
  -1  -3  17    2.68    0.78 
   1   3 -17    2.29    0.79 
   1   3 -17    3.03    0.88 
  -1  -3  16   42.13    2.60 
  -1  -3  16   34.40    2.21 
   1   3 -16   33.89    2.28 
   1   3 -16   41.11    2.57 
  -1  -3  15   16.13    1.59 
  -1  -3  15   13.16    1.35 
   1   3 -15   14.28    1.47 
   1   3 -15   13.73    1.47 
  -1  -3  14   30.44    2.05 
  -1  -3  14   28.72    1.88 
   1   3 -14   27.84    1.91 
   1   3 -14   32.08    2.11 
   1   3 -14   28.75    1.98 
  -1  -3  13   45.14    2.38 
  -1  -3  13   40.93    2.16 
   1   3 -13   40.24    2.18 
   1   3 -13   47.55    2.44 
   1   3 -13   43.54    2.33 
   1   3 -13   46.46    2.42 
  -1  -3  12    8.22    1.03 
  -1  -3  12    5.57    0.83 
   1   3 -12    6.39    0.88 
   1   3 -12    7.57    1.00 
   1   3 -12    6.42    0.91 
   1   3 -12    8.95    1.07 
  -1  -3  11   45.18    2.10 
   1   3 -11   46.72    2.13 
   1   3 -11   52.67    2.35 
   1   3 -11   49.62    2.28 
   1   3 -11   53.01    2.36 
  -1  -3  10    1.22    0.45 
   1   3 -10    1.35    0.46 
   1   3 -10    1.13    0.45 
   1   3 -10    1.16    0.45 
   1   3 -10    1.15    0.49 
  -1  -3   9  108.28    3.01 
   1   3  -9  117.43    3.07 
   1   3  -9  131.00    3.40 
   1   3  -9  116.28    3.20 
   1   3  -9  142.70    3.54 
  -1  -3   8    3.45    0.57 
   1   3  -8    4.07    0.59 
   1   3  -8    4.85    0.67 
   1   3  -8    4.07    0.62 
   1   3  -8    4.73    0.67 
  -1  -3   7   89.96    2.51 
   1   3  -7  107.02    2.62 
   1   3  -7  111.96    2.84 
   1   3  -7   99.01    2.68 
   1   3  -7  118.83    2.92 
  -1  -3   6   37.81    1.55 
  -1  -3   6   46.16    0.88 
  -1  -3   6   63.03    1.03 
   1   3  -6   49.91    1.67 
   1   3  -6   49.29    1.77 
   1   3  -6   46.89    1.74 
   1   3  -6   54.24    1.86 
  -1  -3   5  141.46    2.90 
  -1  -3   5  163.77    1.99 
   1   3  -5  188.12    3.12 
   1   3  -5  193.30    3.41 
   1   3  -5  211.29    3.58 
  -1  -3   4  143.17    2.76 
  -1  -3   4  115.77    2.48 
  -1  -3   4  129.98    1.79 
   1   3  -4  155.97    2.63 
   1   3  -4  162.00    2.93 
   1   3  -4  175.07    3.07 
  -1  -3   3   25.07    1.06 
  -1  -3   3   18.26    0.92 
  -1  -3   3   20.10    0.69 
   1   3  -3    0.13    0.09 
   1   3  -3   24.21    1.04 
   1   3  -3   27.29    1.01 
   1   3  -3   29.92    1.16 
  -1  -3   2  164.72    2.63 
  -1  -3   2  136.41    2.37 
  -1  -3   2  103.07    2.09 
  -1  -3   2  121.19    1.85 
   1   3  -2  159.99    2.31 
   1   3  -2  160.36    2.60 
   1   3  -2    0.00    0.05 
   1   3  -2  170.58    2.73 
   1   3  -2  111.85    2.18 
  -1  -3   1    0.75    0.23 
  -1  -3   1    0.96    0.23 
  -1  -3   1    0.94    0.23 
  -1  -3   1    0.58    0.19 
   1   3  -1    0.43    0.17 
   1   3  -1    0.48    0.19 
   1   3  -1    0.70    0.23 
   1   3  -1    0.48    0.20 
  -1  -3   0  466.80    5.69 
  -1  -3   0  485.08    5.74 
  -1  -3   0  543.64    6.66 
  -1  -3   0  283.53    3.32 
  -1  -3   0  347.75    3.72 
  -1  -3   0  305.40    3.41 
   1   3   0  516.43    7.26 
   1   3   0  505.38    5.97 
   1   3   0  497.64    4.88 
   1   3   0  348.16    3.72 
  -1  -3  -1   43.82    1.13 
  -1  -3  -1   49.35    1.06 
  -1  -3  -1   42.44    1.06 
  -1  -3  -1   33.91    0.95 
  -1  -3  -1   28.44    0.96 
   1   3   1   44.95    0.98 
   1   3   1   45.45    1.14 
   1   3   1   46.20    1.03 
   1   3   1   44.31    1.21 
  -1  -3  -2   40.88    1.07 
  -1  -3  -2   38.63    0.97 
  -1  -3  -2   27.19    0.78 
  -1  -3  -2   34.64    0.88 
  -1  -3  -2   26.66    0.96 
   1   3   2   41.39    0.96 
   1   3   2   42.55    1.09 
   1   3   2   40.48    0.98 
   1   3   2   39.15    0.97 
   1   3   2   40.34    1.16 
  -1  -3  -3    1.97    0.26 
  -1  -3  -3    1.83    0.27 
  -1  -3  -3    1.68    0.24 
  -1  -3  -3    1.80    0.21 
  -1  -3  -3    1.19    0.27 
   1   3   3    1.83    0.24 
   1   3   3    2.52    0.30 
   1   3   3    1.85    0.25 
   1   3   3    1.98    0.31 
   1   3   3    1.49    0.19 
  -1  -3  -4   40.90    1.11 
  -1  -3  -4   42.99    1.17 
  -1  -3  -4   40.98    1.02 
  -1  -3  -4   43.48    0.85 
  -1  -3  -4   27.13    1.04 
   1   3   4   44.77    1.19 
   1   3   4   45.13    1.07 
   1   3   4   43.05    1.29 
   1   3   4   34.89    0.76 
  -1  -3  -5  179.41    2.66 
  -1  -3  -5  178.87    2.66 
  -1  -3  -5  180.78    2.45 
  -1  -3  -5  200.83    2.18 
  -1  -3  -5  123.03    2.33 
   1   3   5  212.44    2.92 
   1   3   5  203.62    2.60 
   1   3   5  186.69    2.95 
   1   3   5  176.12    2.04 
  -1  -3  -6   11.79    0.71 
  -1  -3  -6   11.10    0.68 
  -1  -3  -6   12.01    0.63 
  -1  -3  -6   12.42    0.42 
  -1  -3  -6    8.19    0.62 
   1   3   6   13.55    0.76 
   1   3   6   13.91    0.68 
   1   3   6   12.63    0.79 
   1   3   6   12.79    0.43 
  -1  -3  -7  121.00    2.47 
  -1  -3  -7  127.27    2.48 
  -1  -3  -7  124.94    2.23 
  -1  -3  -7  122.85    1.59 
  -1  -3  -7   92.03    2.12 
   1   3   7  147.11    2.43 
   1   3   7  136.26    2.76 
   1   3   7  143.07    1.80 
  -1  -3  -8    0.96    0.31 
  -1  -3  -8    1.10    0.31 
  -1  -3  -8    1.08    0.27 
  -1  -3  -8    1.81    0.21 
  -1  -3  -8    1.13    0.31 
   1   3   8    1.45    0.32 
   1   3   8    0.94    0.34 
   1   3   8    1.32    0.20 
  -1  -3  -9  140.13    3.02 
  -1  -3  -9  155.28    3.09 
  -1  -3  -9  152.87    2.82 
  -1  -3  -9  133.93    1.89 
  -1  -3  -9  120.69    2.59 
   1   3   9  177.23    3.06 
   1   3   9  159.47    3.33 
   1   3   9  174.33    2.25 
  -1  -3 -10   30.66    1.48 
  -1  -3 -10   31.92    1.46 
  -1  -3 -10   31.75    1.33 
  -1  -3 -10   28.89    0.90 
   1   3  10   33.95    1.60 
   1   3  10   38.58    1.05 
  -1  -3 -11   82.09    2.56 
  -1  -3 -11   89.39    2.58 
  -1  -3 -11   87.83    2.36 
  -1  -3 -11   84.84    1.70 
  -1  -3 -11   80.20    2.21 
   1   3  11   99.87    2.88 
   1   3  11  105.84    1.92 
  -1  -3 -12   23.71    1.46 
  -1  -3 -12   25.90    1.47 
  -1  -3 -12   22.31    1.26 
  -1  -3 -12   23.58    0.94 
  -1  -3 -12   22.26    1.20 
   1   3  12   24.31    1.51 
   1   3  12   27.91    1.03 
  -1  -3 -13   33.10    1.80 
  -1  -3 -13   38.74    1.88 
  -1  -3 -13   35.44    1.67 
  -1  -3 -13   37.58    1.58 
   1   3  13   41.23    2.04 
   1   3  13   44.03    1.38 
  -1  -3 -14   47.09    2.25 
  -1  -3 -14   49.90    2.23 
  -1  -3 -14   47.62    2.03 
  -1  -3 -14   49.22    1.85 
   1   3  14   48.51    2.31 
   1   3  14   57.88    1.67 
  -1  -3 -15    3.96    0.78 
  -1  -3 -15    4.77    0.80 
  -1  -3 -15    5.30    0.76 
  -1  -3 -15    4.85    0.65 
   1   3  15    4.87    0.84 
  -1  -3 -16   73.01    3.05 
  -1  -3 -16   83.52    3.16 
  -1  -3 -16   83.41    2.95 
  -1  -3 -16   88.22    2.58 
   1   3  16   83.77    3.30 
  -1  -3 -17    0.26    0.47 
  -1  -3 -17   -0.05    0.39 
  -1  -3 -17    0.22    0.39 
   1   3  17    0.14    0.46 
  -1  -3 -18   32.22    2.22 
  -1  -3 -18   38.84    2.35 
  -1  -3 -18   37.40    2.16 
   1   3  18   42.09    2.55 
  -1  -3 -19    6.96    1.16 
  -1  -3 -19    5.74    1.03 
  -1  -3 -19    7.40    1.06 
   1   3  19    6.06    1.10 
  -1  -3 -20   13.43    1.60 
  -1  -3 -20   15.41    1.65 
  -1  -3 -20   15.46    1.55 
   1   3  20   16.31    1.76 
  -1  -4  17   17.16    1.84 
  -1  -4  17   16.11    1.69 
   1   4 -17   15.38    1.69 
   1   4 -17   17.78    1.87 
  -1  -4  16    0.67    0.63 
  -1  -4  16    0.22    0.54 
   1   4 -16   -0.01    0.52 
   1   4 -16    0.35    0.54 
  -1  -4  15   36.51    2.41 
  -1  -4  15   33.03    2.21 
   1   4 -15   30.27    2.14 
   1   4 -15   32.20    2.28 
  -1  -4  14   11.85    1.37 
  -1  -4  14   12.00    1.33 
   1   4 -14   10.11    1.23 
   1   4 -14   11.40    1.35 
  -1  -4  13   25.68    1.89 
  -1  -4  13   23.86    1.76 
   1   4 -13   22.60    1.71 
   1   4 -13   27.95    1.96 
   1   4 -13   25.62    1.88 
  -1  -4  12   13.36    1.29 
   1   4 -12   17.41    1.44 
   1   4 -12   16.40    1.46 
   1   4 -12   16.56    1.47 
  -1  -4  11   14.25    1.29 
   1   4 -11   16.86    1.36 
   1   4 -11   16.96    1.42 
   1   4 -11   16.49    1.41 
   1   4 -11   19.19    1.51 
  -1  -4  10   47.12    2.21 
   1   4 -10   50.66    2.21 
   1   4 -10   54.10    2.39 
   1   4 -10   51.75    2.35 
   1   4 -10   57.22    2.44 
  -1  -4   9    4.10    0.70 
   1   4  -9    4.18    0.68 
   1   4  -9    3.70    0.68 
   1   4  -9    4.07    0.69 
   1   4  -9    4.34    0.72 
  -1  -4   8   62.35    2.35 
   1   4  -8   74.43    2.43 
   1   4  -8   77.44    2.61 
   1   4  -8   69.11    2.48 
   1   4  -8   87.37    2.77 
  -1  -4   7    3.89    0.62 
   1   4  -7    4.12    0.60 
   1   4  -7    4.50    0.65 
   1   4  -7    4.87    0.69 
  -1  -4   6   70.19    2.30 
  -1  -4   6   78.72    1.32 
   1   4  -6   90.41    2.42 
   1   4  -6   93.00    2.61 
   1   4  -6   95.78    2.64 
  -1  -4   5   40.36    1.66 
  -1  -4   5   47.48    1.09 
   1   4  -5   58.56    1.83 
   1   4  -5   57.95    1.94 
   1   4  -5   59.37    1.88 
   1   4  -5   62.32    2.03 
  -1  -4   4   47.04    1.71 
  -1  -4   4   53.23    1.23 
   1   4  -4   70.86    1.90 
   1   4  -4   67.81    2.00 
   1   4  -4   71.11    1.95 
   1   4  -4   74.21    2.11 
  -1  -4   3   99.68    2.33 
  -1  -4   3   81.11    2.16 
  -1  -4   3   85.18    1.65 
   1   4  -3   98.33    2.13 
   1   4  -3  119.08    2.54 
   1   4  -3  125.32    2.48 
   1   4  -3  128.38    2.68 
  -1  -4   2   26.05    1.11 
  -1  -4   2   20.48    1.03 
  -1  -4   2   21.90    0.86 
   1   4  -2   33.03    1.25 
   1   4  -2   35.34    1.23 
   1   4  -2   35.01    1.32 
  -1  -4   1  198.31    3.03 
  -1  -4   1  158.23    2.65 
  -1  -4   1  108.91    2.27 
  -1  -4   1  129.07    2.22 
   1   4  -1  214.17    2.95 
   1   4  -1  204.88    3.20 
  -1  -4   0   26.38    1.01 
  -1  -4   0   27.45    1.02 
  -1  -4   0   14.30    0.72 
  -1  -4   0   16.33    0.81 
  -1  -4   0   16.35    0.80 
   1   4   0   28.91    0.98 
   1   4   0   26.25    1.07 
   1   4   0   20.13    0.91 
  -1  -4  -1  529.16    7.37 
  -1  -4  -1   70.59    1.60 
  -1  -4  -1  394.21    4.21 
  -1  -4  -1  316.69    3.92 
   1   4   1  570.63    7.13 
   1   4   1  549.39    5.19 
   1   4   1  399.39    5.58 
   1   4   1  562.96    5.64 
   1   4   1  400.40    4.25 
  -1  -4  -2   28.53    0.98 
  -1  -4  -2   28.45    0.91 
  -1  -4  -2   17.86    0.74 
  -1  -4  -2   23.69    0.85 
  -1  -4  -2   17.05    0.87 
   1   4   2   31.78    1.01 
   1   4   2   31.13    1.02 
   1   4   2   18.31    0.78 
   1   4   2   31.82    1.15 
  -1  -4  -3  342.31    3.82 
  -1  -4  -3  330.11    3.51 
  -1  -4  -3  196.68    2.48 
  -1  -4  -3  295.87    3.16 
  -1  -4  -3  195.06    3.12 
   1   4   3  329.45    3.72 
   1   4   3  355.84    3.86 
   1   4   3  344.54    4.19 
  -1  -4  -4   30.40    1.03 
  -1  -4  -4   31.33    0.91 
  -1  -4  -4   18.21    0.62 
  -1  -4  -4   29.75    0.79 
  -1  -4  -4   19.64    0.98 
   1   4   4    0.05    0.07 
   1   4   4   33.55    1.08 
   1   4   4   17.16    0.81 
   1   4   4   31.02    0.91 
   1   4   4   31.83    1.20 
  -1  -4  -5  134.52    2.42 
  -1  -4  -5  135.40    2.32 
  -1  -4  -5  135.34    2.05 
  -1  -4  -5   86.47    1.30 
  -1  -4  -5  143.10    1.76 
  -1  -4  -5   82.54    2.08 
   1   4   5  139.02    2.46 
   1   4   5  153.69    2.48 
   1   4   5  145.05    2.11 
   1   4   5  137.74    2.64 
  -1  -4  -6  150.43    2.71 
  -1  -4  -6  148.02    2.55 
  -1  -4  -6  144.00    2.20 
  -1  -4  -6  104.01    1.40 
  -1  -4  -6  164.49    1.89 
  -1  -4  -6  101.06    2.37 
   1   4   6  168.93    2.40 
   1   4   6  156.80    2.94 
  -1  -4  -7   39.00    1.43 
  -1  -4  -7   38.53    1.33 
  -1  -4  -7   39.82    1.17 
  -1  -4  -7   26.40    1.24 
   1   4   7   45.71    1.26 
   1   4   7   40.35    1.53 
  -1  -4  -8  124.57    2.74 
  -1  -4  -8  124.32    2.57 
  -1  -4  -8  124.10    2.26 
  -1  -4  -8   94.38    2.42 
   1   4   8  148.97    2.49 
   1   4   8  132.09    2.94 
  -1  -4  -9    2.03    0.43 
  -1  -4  -9    2.11    0.41 
  -1  -4  -9    1.78    0.33 
  -1  -4  -9    1.47    0.37 
   1   4   9    2.65    0.41 
   1   4   9    2.35    0.49 
  -1  -4 -10  140.00    3.24 
  -1  -4 -10  148.07    3.13 
  -1  -4 -10  137.03    2.68 
  -1  -4 -10  116.81    2.84 
   1   4  10  181.65    3.13 
   1   4  10  157.63    3.53 
  -1  -4 -11    0.89    0.39 
  -1  -4 -11    1.41    0.40 
  -1  -4 -11    1.00    0.31 
  -1  -4 -11    0.89    0.36 
   1   4  11    1.23    0.46 
  -1  -4 -12   97.47    2.96 
  -1  -4 -12  103.44    2.87 
  -1  -4 -12   98.33    2.52 
  -1  -4 -12   91.90    2.64 
   1   4  12  110.28    3.21 
   1   4  12  130.87    1.80 
  -1  -4 -13   17.55    1.34 
  -1  -4 -13   19.18    1.31 
  -1  -4 -13   18.92    1.17 
  -1  -4 -13   10.14    0.91 
   1   4  13   20.64    1.47 
   1   4  13   22.95    0.77 
  -1  -4 -14   63.37    2.61 
  -1  -4 -14   70.04    2.59 
  -1  -4 -14   65.22    2.27 
  -1  -4 -14   62.32    2.26 
   1   4  14   73.00    2.84 
  -1  -4 -15   42.99    2.25 
  -1  -4 -15   43.51    2.14 
  -1  -4 -15   45.88    2.00 
  -1  -4 -15   45.45    1.98 
   1   4  15   46.48    2.37 
  -1  -4 -16   24.51    1.79 
  -1  -4 -16   26.82    1.77 
  -1  -4 -16   26.06    1.59 
  -1  -4 -16   25.79    1.53 
   1   4  16   26.87    1.89 
  -1  -4 -17   39.61    2.35 
  -1  -4 -17   41.36    2.28 
  -1  -4 -17   41.03    2.08 
  -1  -4 -17   41.72    1.97 
   1   4  17   45.01    2.54 
  -1  -4 -18    0.41    0.53 
  -1  -4 -18    0.97    0.56 
  -1  -4 -18    0.61    0.45 
   1   4  18    0.52    0.57 
  -1  -4 -19   30.27    2.24 
  -1  -4 -19   31.90    2.18 
   1   4  19   31.19    2.29 
  -1  -4 -20    0.90    0.64 
  -1  -4 -20    1.60    0.70 
   1   4  20    2.36    0.88 
  -1  -5  15    0.10    0.55 
  -1  -5  15    0.21    0.53 
   1   5 -15    0.58    0.57 
   1   5 -15    0.14    0.52 
  -1  -5  14   33.32    2.30 
  -1  -5  14   30.05    2.17 
   1   5 -14   30.11    2.12 
   1   5 -14   30.37    2.20 
  -1  -5  13    2.05    0.71 
  -1  -5  13    2.15    0.69 
   1   5 -13    2.34    0.69 
   1   5 -13    2.76    0.76 
   1   5 -13    1.83    0.71 
  -1  -5  12   28.71    1.98 
   1   5 -12   32.53    2.03 
   1   5 -12   33.76    2.15 
   1   5 -12   34.97    2.18 
  -1  -5  11   11.50    1.24 
   1   5 -11   14.11    1.32 
   1   5 -11   13.01    1.32 
   1   5 -11   13.42    1.34 
  -1  -5  10   30.58    1.91 
   1   5 -10   35.13    1.94 
   1   5 -10   38.16    2.11 
   1   5 -10   37.56    2.08 
  -1  -5   9   49.12    2.32 
   1   5  -9   56.45    2.35 
   1   5  -9   57.35    2.47 
   1   5  -9   64.47    2.61 
  -1  -5   8   13.75    1.21 
   1   5  -8   17.31    1.26 
   1   5  -8   16.34    1.28 
   1   5  -8   19.77    1.41 
  -1  -5   7   65.82    2.49 
   1   5  -7   86.31    2.65 
   1   5  -7   86.05    2.78 
   1   5  -7   89.64    2.83 
  -1  -5   6    1.58    0.46 
  -1  -5   6    1.81    0.27 
   1   5  -6    1.45    0.43 
   1   5  -6    1.96    0.48 
   1   5  -6    2.68    0.56 
  -1  -5   5  107.58    2.96 
  -1  -5   5  126.51    2.09 
   1   5  -5  161.98    3.36 
   1   5  -5  153.65    3.42 
   1   5  -5  160.76    3.41 
   1   5  -5  162.88    3.55 
  -1  -5   4   11.18    0.93 
  -1  -5   4   11.31    0.65 
   1   5  -4   15.28    0.98 
   1   5  -4   15.40    1.03 
   1   5  -4   14.61    0.99 
   1   5  -4   15.98    1.07 
  -1  -5   3   64.17    2.09 
  -1  -5   3   67.36    1.64 
   1   5  -3  101.75    2.40 
   1   5  -3   99.62    2.49 
   1   5  -3  103.46    2.49 
   1   5  -3  103.52    2.60 
  -1  -5   2   24.00    1.16 
  -1  -5   2   16.41    1.02 
  -1  -5   2   16.56    0.85 
   1   5  -2   13.76    0.84 
   1   5  -2   25.78    1.19 
   1   5  -2   25.11    1.23 
  -1  -5   1  136.63    2.67 
  -1  -5   1  104.24    2.31 
  -1  -5   1   78.18    2.11 
  -1  -5   1   80.67    1.93 
   1   5  -1    0.22    0.13 
   1   5  -1  138.93    2.70 
   1   5  -1  136.21    2.81 
  -1  -5   0  241.18    3.50 
  -1  -5   0   55.27    1.56 
  -1  -5   0  130.57    2.63 
  -1  -5   0  138.60    2.64 
   1   5   0  127.12    2.42 
   1   5   0  252.60    3.65 
   1   5   0  244.87    3.77 
  -1  -5  -1   50.13    1.46 
  -1  -5  -1   39.06    1.24 
  -1  -5  -1   25.63    1.08 
  -1  -5  -1   27.84    1.19 
   1   5   1   43.55    1.37 
   1   5   1   37.79    1.31 
   1   5   1   50.32    1.62 
  -1  -5  -2  272.79    3.55 
  -1  -5  -2  251.49    3.24 
  -1  -5  -2  142.68    2.47 
  -1  -5  -2  201.55    2.98 
  -1  -5  -2  147.08    2.86 
   1   5   2  184.64    2.92 
   1   5   2  277.01    3.56 
   1   5   2  178.58    2.94 
   1   5   2  272.48    3.92 
   1   5   2  204.21    3.00 
  -1  -5  -3    8.85    0.60 
  -1  -5  -3    7.55    0.51 
  -1  -5  -3    4.74    0.42 
  -1  -5  -3    6.37    0.49 
  -1  -5  -3    4.59    0.55 
   1   5   3   10.23    0.65 
   1   5   3    8.90    0.65 
   1   5   3    8.83    0.70 
  -1  -5  -4  130.54    2.32 
  -1  -5  -4  135.82    2.11 
  -1  -5  -4   75.09    1.51 
  -1  -5  -4  116.12    1.91 
  -1  -5  -4   76.77    2.14 
   1   5   4  141.98    2.42 
   1   5   4  136.56    2.60 
   1   5   4  135.68    2.72 
  -1  -5  -5   40.27    1.28 
  -1  -5  -5   41.97    1.11 
  -1  -5  -5   24.93    0.77 
  -1  -5  -5   40.78    0.99 
  -1  -5  -5   24.41    1.24 
   1   5   5   40.78    1.42 
   1   5   5   46.21    1.37 
   1   5   5   40.07    1.42 
   1   5   5   42.59    1.54 
  -1  -5  -6  240.37    3.41 
  -1  -5  -6  239.62    2.95 
  -1  -5  -6  152.03    1.89 
  -1  -5  -6  261.08    2.66 
  -1  -5  -6  145.73    3.13 
   1   5   6  236.61    3.70 
   1   5   6  257.31    3.05 
   1   5   6  245.78    3.95 
  -1  -5  -7   95.58    2.38 
  -1  -5  -7   92.32    2.10 
  -1  -5  -7   92.92    1.77 
  -1  -5  -7   60.02    2.03 
   1   5   7   92.50    2.34 
   1   5   7  108.49    1.92 
   1   5   7  100.77    2.54 
  -1  -5  -8   46.50    1.73 
  -1  -5  -8   47.23    1.56 
  -1  -5  -8   45.21    1.27 
  -1  -5  -8   30.56    1.49 
   1   5   8   52.49    1.37 
   1   5   8   49.65    1.85 
  -1  -5  -9  106.57    2.76 
  -1  -5  -9  107.88    2.50 
  -1  -5  -9  103.45    2.07 
  -1  -5  -9   79.13    2.45 
   1   5   9  128.51    2.33 
   1   5   9  117.33    2.97 
  -1  -5 -10   11.19    0.96 
  -1  -5 -10    9.85    0.81 
  -1  -5 -10    9.74    0.68 
  -1  -5 -10    7.54    0.81 
   1   5  10   12.26    0.78 
   1   5  10   11.19    0.99 
  -1  -5 -11  126.86    3.30 
  -1  -5 -11  120.95    2.93 
  -1  -5 -11  119.69    2.51 
  -1  -5 -11   96.37    2.84 
   1   5  11  154.21    2.88 
   1   5  11  129.81    3.40 
  -1  -5 -12    2.67    0.59 
  -1  -5 -12    1.53    0.43 
  -1  -5 -12    1.82    0.38 
  -1  -5 -12    1.46    0.46 
   1   5  12    2.65    0.61 
  -1  -5 -13   63.33    2.53 
  -1  -5 -13   65.16    2.35 
  -1  -5 -13   60.90    1.98 
  -1  -5 -13   53.67    2.21 
   1   5  13   69.72    2.69 
  -1  -5 -14    9.34    1.06 
  -1  -5 -14   10.84    1.04 
  -1  -5 -14   10.43    0.89 
  -1  -5 -14   10.29    1.02 
   1   5  14   11.91    1.21 
  -1  -5 -15   34.68    2.05 
  -1  -5 -15   35.91    1.92 
  -1  -5 -15   33.49    1.63 
  -1  -5 -15   34.63    1.86 
   1   5  15   37.91    2.16 
  -1  -5 -16   41.73    2.33 
  -1  -5 -16   44.77    2.23 
  -1  -5 -16   45.85    2.00 
   1   5  16   44.51    2.43 
  -1  -5 -17   32.99    2.17 
  -1  -5 -17   38.13    2.16 
  -1  -5 -17   33.44    1.91 
   1   5  17   33.85    2.21 
  -1  -5 -18   34.93    2.32 
  -1  -5 -18   39.10    2.27 
  -1  -5 -18   38.22    2.07 
   1   5  18   40.48    2.51 
  -1  -5 -19    4.58    0.98 
  -1  -5 -19    3.73    0.84 
   1   5  19    4.78    1.01 
  -1  -5 -20   22.44    2.03 
  -1  -5 -20   24.79    1.98 
   1   5  20   24.63    2.13 
  -1  -6  14    0.84    0.64 
  -1  -6  14    0.69    0.62 
   1   6 -14    0.89    0.61 
   1   6 -14    0.95    0.63 
   1   6 -14    0.28    0.58 
  -1  -6  13   35.08    2.36 
  -1  -6  13   29.82    2.21 
   1   6 -13   29.37    2.11 
   1   6 -13   34.49    2.36 
   1   6 -13   30.00    2.20 
  -1  -6  12    0.18    0.46 
   1   6 -12    0.57    0.51 
   1   6 -12    0.61    0.51 
   1   6 -12    0.48    0.54 
  -1  -6  11   25.99    1.94 
   1   6 -11   27.18    1.88 
   1   6 -11   30.44    2.06 
   1   6 -11   30.36    2.05 
  -1  -6  10    6.53    0.99 
   1   6 -10    7.15    0.98 
   1   6 -10    6.96    0.99 
   1   6 -10    8.33    1.09 
  -1  -6   9   36.63    2.14 
   1   6  -9   43.74    2.19 
   1   6  -9   45.03    2.30 
   1   6  -9   44.15    2.27 
  -1  -6   8   41.71    2.21 
   1   6  -8   53.48    2.32 
   1   6  -8   52.73    2.39 
   1   6  -8   61.25    2.57 
  -1  -6   7   38.65    2.05 
   1   6  -7   56.13    2.28 
   1   6  -7   53.74    2.32 
   1   6  -7   54.67    2.35 
  -1  -6   6   75.81    2.77 
  -1  -6   6   97.95    1.90 
   1   6  -6  110.02    3.08 
   1   6  -6  110.81    3.20 
   1   6  -6  111.11    3.16 
   1   6  -6  108.65    3.18 
  -1  -6   5    2.34    0.55 
  -1  -6   5    2.28    0.37 
   1   6  -5    2.16    0.52 
   1   6  -5    2.53    0.55 
   1   6  -5    2.77    0.56 
   1   6  -5    2.41    0.57 
  -1  -6   4   86.79    2.75 
  -1  -6   4  101.08    2.17 
   1   6  -4  136.69    3.19 
   1   6  -4  134.94    3.25 
   1   6  -4  133.64    3.23 
   1   6  -4  136.18    3.33 
  -1  -6   3    1.90    0.46 
  -1  -6   3    1.88    0.38 
   1   6  -3    3.17    0.54 
   1   6  -3    4.44    0.63 
   1   6  -3    3.45    0.59 
  -1  -6   2  134.49    2.98 
  -1  -6   2   75.46    2.37 
  -1  -6   2   83.65    2.11 
   1   6  -2  132.88    2.94 
   1   6  -2  132.33    3.01 
   1   6  -2  137.16    3.14 
  -1  -6   1   45.04    1.63 
  -1  -6   1   26.87    1.36 
  -1  -6   1   27.93    1.25 
   1   6  -1   42.20    1.59 
   1   6  -1   47.68    1.74 
   1   6  -1   44.49    1.73 
  -1  -6   0  106.15    2.42 
  -1  -6   0   80.91    2.09 
  -1  -6   0   57.02    1.88 
  -1  -6   0   61.38    1.90 
   1   6   0  111.07    2.61 
   1   6   0  107.94    2.64 
  -1  -6  -1  146.78    2.77 
  -1  -6  -1  111.14    2.33 
  -1  -6  -1   84.34    2.19 
  -1  -6  -1   82.18    2.26 
   1   6   1  160.09    3.12 
   1   6   1  147.46    3.06 
  -1  -6  -2   74.99    1.89 
  -1  -6  -2   56.89    1.56 
  -1  -6  -2   73.12    1.78 
  -1  -6  -2   41.83    1.45 
  -1  -6  -2   39.47    1.60 
   1   6   2   74.60    2.08 
   1   6   2   73.59    2.12 
  -1  -6  -3  248.66    3.53 
  -1  -6  -3  246.16    3.28 
  -1  -6  -3  137.22    2.54 
  -1  -6  -3  133.29    3.03 
   1   6   3  101.45    2.38 
   1   6   3  253.30    3.98 
   1   6   3  254.20    4.07 
  -1  -6  -4   31.39    1.18 
  -1  -6  -4   31.72    1.05 
  -1  -6  -4   19.55    0.87 
  -1  -6  -4   26.79    1.02 
  -1  -6  -4   17.75    1.13 
   1   6   4   31.53    1.34 
   1   6   4   30.97    1.36 
   1   6   4   31.81    1.41 
  -1  -6  -5  190.44    3.02 
  -1  -6  -5  190.18    2.64 
  -1  -6  -5  118.73    2.03 
  -1  -6  -5  168.17    2.46 
  -1  -6  -5  103.44    2.77 
   1   6   5  187.77    3.41 
   1   6   5  185.89    3.45 
   1   6   5  189.76    3.55 
  -1  -6  -6    6.47    0.58 
  -1  -6  -6    6.41    0.47 
  -1  -6  -6    4.57    0.36 
  -1  -6  -6    6.77    0.44 
  -1  -6  -6    4.21    0.63 
   1   6   6    6.14    0.66 
   1   6   6    6.43    0.68 
   1   6   6    6.46    0.71 
  -1  -6  -7  113.45    2.38 
  -1  -6  -7  115.11    1.96 
  -1  -6  -7   94.85    1.40 
  -1  -6  -7   69.84    2.37 
   1   6   7  116.90    2.81 
   1   6   7  120.47    2.89 
   1   6   7  118.27    2.90 
  -1  -6  -8   48.92    1.60 
  -1  -6  -8   50.35    1.29 
  -1  -6  -8   32.40    1.65 
   1   6   8   52.66    1.94 
   1   6   8   56.69    1.37 
   1   6   8   55.51    2.04 
  -1  -6  -9   60.37    2.16 
  -1  -6  -9   61.04    1.87 
  -1  -6  -9   57.18    1.44 
  -1  -6  -9   37.58    1.82 
   1   6   9   56.41    2.09 
   1   6   9   65.92    1.55 
   1   6   9   65.32    2.29 
  -1  -6 -10   73.59    2.49 
  -1  -6 -10   68.70    2.07 
  -1  -6 -10   67.72    1.65 
  -1  -6 -10   49.77    2.13 
   1   6  10   69.69    2.41 
   1   6  10   85.13    1.87 
   1   6  10   75.63    2.55 
  -1  -6 -11   17.69    1.29 
  -1  -6 -11   17.86    1.12 
  -1  -6 -11   15.62    0.84 
  -1  -6 -11   13.18    1.15 
   1   6  11   21.56    1.00 
   1   6  11   20.50    1.41 
  -1  -6 -12   98.37    3.11 
  -1  -6 -12   96.24    2.70 
  -1  -6 -12   83.99    2.07 
  -1  -6 -12   74.47    2.72 
   1   6  12   99.87    3.16 
  -1  -6 -13    0.26    0.40 
  -1  -6 -13    0.05    0.29 
  -1  -6 -13    0.15    0.24 
  -1  -6 -13    0.23    0.37 
   1   6  13   -0.07    0.37 
  -1  -6 -14   40.31    2.16 
  -1  -6 -14   41.51    1.94 
  -1  -6 -14   34.78    1.47 
  -1  -6 -14   34.90    1.95 
   1   6  14   43.71    2.26 
  -1  -6 -15    1.54    0.60 
  -1  -6 -15    1.29    0.48 
  -1  -6 -15    1.53    0.56 
   1   6  15    1.67    0.63 
  -1  -6 -16   51.53    2.63 
  -1  -6 -16   51.81    2.36 
  -1  -6 -16   46.20    2.33 
   1   6  16   56.00    2.75 
  -1  -6 -17   17.75    1.64 
  -1  -6 -17   19.23    1.53 
  -1  -6 -17   17.72    1.50 
   1   6  17   18.80    1.69 
  -1  -6 -18   10.31    1.35 
  -1  -6 -18   11.08    1.24 
  -1  -6 -18   11.47    1.25 
   1   6  18   11.66    1.42 
  -1  -6 -19   12.38    1.50 
  -1  -6 -19   15.68    1.51 
  -1  -6 -19    4.44    0.80 
   1   6  19   15.81    1.69 
  -1  -7  13    3.31    0.93 
   1   7 -13    3.73    0.91 
   1   7 -13    3.58    0.95 
   1   7 -13    3.33    0.93 
  -1  -7  12   21.87    1.96 
   1   7 -12   21.82    1.84 
   1   7 -12   23.50    1.98 
   1   7 -12   25.46    2.04 
  -1  -7  11    0.09    0.46 
   1   7 -11    0.26    0.47 
   1   7 -11    0.04    0.48 
   1   7 -11    0.55    0.55 
  -1  -7  10   24.85    1.95 
   1   7 -10   30.95    2.02 
   1   7 -10   31.39    2.11 
   1   7 -10   32.22    2.13 
  -1  -7   9    1.69    0.63 
   1   7  -9    1.74    0.61 
   1   7  -9    1.97    0.66 
   1   7  -9    2.18    0.69 
  -1  -7   8   38.02    2.25 
   1   7  -8   49.29    2.37 
   1   7  -8   51.36    2.49 
   1   7  -8   48.38    2.41 
  -1  -7   7   27.55    1.86 
   1   7  -7   34.02    1.90 
   1   7  -7   35.07    1.98 
   1   7  -7   34.82    1.99 
  -1  -7   6   12.72    1.24 
   1   7  -6   15.41    1.26 
   1   7  -6   17.59    1.37 
   1   7  -6   16.94    1.35 
   1   7  -6   16.16    1.33 
  -1  -7   5   51.04    2.35 
  -1  -7   5   62.15    1.77 
   1   7  -5   74.13    2.61 
   1   7  -5   74.55    2.68 
   1   7  -5   72.25    2.66 
  -1  -7   4   22.31    1.41 
  -1  -7   4   12.76    1.16 
  -1  -7   4   17.52    1.00 
   1   7  -4   24.31    1.46 
   1   7  -4   20.92    1.40 
   1   7  -4   21.30    1.42 
  -1  -7   3  122.93    3.15 
  -1  -7   3   75.31    2.66 
  -1  -7   3   87.93    2.30 
   1   7  -3  125.60    3.21 
   1   7  -3  128.27    3.33 
   1   7  -3  125.74    3.31 
  -1  -7   2    0.42    0.36 
  -1  -7   2    0.38    0.33 
  -1  -7   2    0.01    0.27 
   1   7  -2    0.39    0.38 
   1   7  -2    0.15    0.36 
   1   7  -2   -0.01    0.36 
  -1  -7   1  132.80    3.03 
  -1  -7   1   72.33    2.42 
  -1  -7   1   77.98    2.28 
   1   7  -1  135.35    3.17 
   1   7  -1  130.23    3.19 
   1   7  -1  129.05    3.19 
  -1  -7   0   18.46    1.09 
  -1  -7   0   11.20    0.93 
  -1  -7   0   11.77    0.93 
   1   7   0   20.59    1.23 
   1   7   0   19.79    1.24 
   1   7   0   20.01    1.25 
  -1  -7  -1  139.73    2.89 
  -1  -7  -1   81.33    2.36 
  -1  -7  -1   76.94    2.37 
   1   7   1  135.19    3.07 
   1   7   1  133.86    3.13 
   1   7   1  134.14    3.15 
  -1  -7  -2  149.13    2.90 
  -1  -7  -2  104.27    2.31 
  -1  -7  -2  143.58    2.74 
  -1  -7  -2   86.68    2.32 
  -1  -7  -2   79.63    2.47 
   1   7   2  145.38    3.17 
   1   7   2  151.27    3.31 
   1   7   2  147.86    3.28 
  -1  -7  -3   61.36    1.78 
  -1  -7  -3   45.17    1.42 
  -1  -7  -3   60.21    1.65 
  -1  -7  -3   37.57    1.44 
  -1  -7  -3   33.29    1.63 
   1   7   3   59.49    2.01 
   1   7   3   63.89    2.13 
   1   7   3   59.18    2.05 
  -1  -7  -4  117.92    2.46 
  -1  -7  -4   91.14    1.93 
  -1  -7  -4  122.50    2.26 
  -1  -7  -4   75.11    1.93 
  -1  -7  -4   65.77    2.33 
   1   7   4  117.91    2.86 
   1   7   4  123.18    2.98 
   1   7   4  124.14    3.00 
  -1  -7  -5    2.13    0.41 
  -1  -7  -5    1.62    0.29 
  -1  -7  -5    2.54    0.36 
  -1  -7  -5    1.62    0.33 
  -1  -7  -5    2.64    0.40 
  -1  -7  -5    1.40    0.46 
   1   7   5    2.19    0.50 
   1   7   5    1.72    0.47 
   1   7   5    2.59    0.55 
  -1  -7  -6  186.99    3.15 
  -1  -7  -6  197.95    2.72 
  -1  -7  -6  136.55    2.27 
  -1  -7  -6  182.69    2.67 
  -1  -7  -6  105.50    3.07 
   1   7   6  184.88    3.73 
   1   7   6  190.23    3.85 
   1   7   6  189.60    3.83 
  -1  -7  -7    3.00    0.46 
  -1  -7  -7    3.74    0.39 
  -1  -7  -7    2.92    0.32 
  -1  -7  -7    3.55    0.35 
  -1  -7  -7    1.93    0.53 
   1   7   7    3.38    0.60 
   1   7   7    3.00    0.57 
   1   7   7    3.22    0.61 
  -1  -7  -8  145.93    2.86 
  -1  -7  -8  141.71    2.17 
  -1  -7  -8   89.91    2.94 
   1   7   8  147.73    3.49 
   1   7   8  150.61    3.56 
   1   7   8  157.34    3.63 
  -1  -7  -9    2.82    0.47 
  -1  -7  -9    2.90    0.34 
  -1  -7  -9    2.47    0.60 
   1   7   9    2.42    0.56 
   1   7   9    3.12    0.62 
   1   7   9    3.29    0.65 
  -1  -7 -10  111.51    2.66 
  -1  -7 -10   96.31    1.84 
  -1  -7 -10   74.02    2.77 
   1   7  10  118.66    3.31 
   1   7  10  114.53    3.27 
   1   7  10  121.67    3.36 
  -1  -7 -11   39.67    1.64 
  -1  -7 -11   30.17    1.82 
   1   7  11   42.54    2.05 
   1   7  11   44.64    2.10 
  -1  -7 -12   25.46    1.65 
  -1  -7 -12   25.04    1.37 
  -1  -7 -12   20.30    1.53 
   1   7  12   25.86    1.66 
   1   7  12   25.40    1.66 
  -1  -7 -13   38.64    2.10 
  -1  -7 -13   37.53    1.74 
  -1  -7 -13   28.95    1.85 
   1   7  13   41.75    2.18 
   1   7  13   39.67    2.13 
  -1  -7 -14    6.49    0.96 
  -1  -7 -14    5.95    0.77 
  -1  -7 -14    4.59    0.83 
   1   7  14    6.34    0.96 
  -1  -7 -15   36.96    2.20 
  -1  -7 -15   36.45    1.87 
  -1  -7 -15   29.85    1.96 
   1   7  15   37.65    2.23 
  -1  -7 -16    0.92    0.58 
  -1  -7 -16    2.04    0.58 
  -1  -7 -16    1.01    0.55 
   1   7  16    0.65    0.57 
  -1  -7 -17   38.25    2.41 
  -1  -7 -17   35.39    2.01 
  -1  -7 -17   32.47    2.12 
   1   7  17   42.56    2.53 
  -1  -7 -18    0.88    0.62 
  -1  -7 -18    1.75    0.66 
   1   7  18    2.17    0.80 
  -1  -7 -19   20.60    1.92 
  -1  -7 -19   18.43    1.69 
   1   7  19   22.99    2.03 
  -1  -8  11   17.05    1.79 
   1   8 -11   21.99    1.88 
   1   8 -11   24.40    2.05 
   1   8 -11   22.95    1.98 
  -1  -8  10    0.60    0.58 
   1   8 -10    0.41    0.52 
   1   8 -10    0.29    0.53 
   1   8 -10    0.67    0.59 
  -1  -8   9   18.53    1.74 
   1   8  -9   25.53    1.89 
   1   8  -9   28.80    2.05 
   1   8  -9   23.20    1.84 
  -1  -8   8    1.39    0.62 
   1   8  -8    2.03    0.66 
   1   8  -8    2.11    0.69 
   1   8  -8    1.54    0.64 
  -1  -8   7   37.04    2.29 
   1   8  -7   52.61    2.52 
   1   8  -7   52.81    2.58 
   1   8  -7   52.73    2.57 
  -1  -8   6    4.58    0.81 
  -1  -8   6    2.37    0.66 
   1   8  -6    3.65    0.74 
   1   8  -6    3.85    0.77 
   1   8  -6    4.51    0.83 
  -1  -8   5   51.75    2.33 
  -1  -8   5   29.91    1.93 
   1   8  -5   48.51    2.27 
   1   8  -5   45.05    2.24 
   1   8  -5   47.18    2.28 
  -1  -8   4   31.01    1.75 
  -1  -8   4   18.37    1.48 
  -1  -8   4   23.67    1.26 
   1   8  -4   28.35    1.70 
   1   8  -4   24.40    1.62 
   1   8  -4   29.30    1.76 
  -1  -8   3   32.67    1.73 
  -1  -8   3   17.79    1.40 
  -1  -8   3   23.73    1.31 
   1   8  -3   31.89    1.76 
   1   8  -3   32.71    1.82 
   1   8  -3   31.63    1.78 
  -1  -8   2   99.86    2.89 
  -1  -8   2   58.49    2.43 
  -1  -8   2   67.45    2.25 
   1   8  -2   91.53    2.89 
   1   8  -2   94.66    3.01 
   1   8  -2   93.55    2.96 
  -1  -8   1    4.75    0.67 
  -1  -8   1    2.87    0.58 
  -1  -8   1    3.46    0.58 
   1   8  -1    4.67    0.72 
   1   8  -1    5.81    0.81 
   1   8  -1    4.90    0.75 
  -1  -8   0  103.00    2.72 
  -1  -8   0   57.55    2.24 
  -1  -8   0   58.07    2.18 
   1   8   0   99.92    2.91 
   1   8   0   97.96    2.96 
   1   8   0   95.71    2.88 
  -1  -8  -1    3.55    0.56 
  -1  -8  -1    2.46    0.51 
  -1  -8  -1    2.25    0.52 
   1   8   1    3.29    0.65 
   1   8   1    3.56    0.66 
   1   8   1    3.34    0.65 
  -1  -8  -2  126.45    2.83 
  -1  -8  -2  120.93    2.67 
  -1  -8  -2   76.30    2.38 
  -1  -8  -2   64.55    2.39 
   1   8   2  117.59    3.11 
   1   8   2  116.55    3.16 
   1   8   2  119.95    3.16 
  -1  -8  -3   30.63    1.35 
  -1  -8  -3   19.64    1.02 
  -1  -8  -3   28.43    1.22 
  -1  -8  -3   19.71    1.16 
  -1  -8  -3   15.29    1.21 
   1   8   3   29.78    1.57 
   1   8   3   28.15    1.56 
   1   8   3   28.07    1.53 
  -1  -8  -4   63.69    1.89 
  -1  -8  -4   69.01    1.79 
  -1  -8  -4   42.92    1.61 
  -1  -8  -4   34.73    1.82 
   1   8   4   67.41    2.34 
   1   8   4   61.09    2.28 
   1   8   4   65.59    2.31 
  -1  -8  -5   29.41    1.28 
  -1  -8  -5   28.84    1.08 
  -1  -8  -5   19.37    1.02 
  -1  -8  -5   14.73    1.23 
   1   8   5   27.72    1.53 
   1   8   5   25.83    1.50 
   1   8   5   25.34    1.47 
  -1  -8  -6   42.19    1.51 
  -1  -8  -6   41.33    1.21 
  -1  -8  -6   33.23    1.23 
  -1  -8  -6   25.17    1.61 
   1   8   6   40.12    1.85 
   1   8   6   42.87    1.95 
   1   8   6   43.18    1.91 
  -1  -8  -7   71.22    1.98 
  -1  -8  -7   57.57    1.34 
  -1  -8  -7   58.45    1.47 
  -1  -8  -7   39.95    2.06 
   1   8   7   70.11    2.48 
   1   8   7   71.94    2.55 
   1   8   7   75.83    2.57 
  -1  -8  -8    0.16    0.29 
  -1  -8  -8    0.20    0.40 
   1   8   8    0.77    0.42 
   1   8   8    0.41    0.43 
   1   8   8   -0.08    0.40 
  -1  -8  -9  112.16    2.59 
  -1  -8  -9   67.29    2.76 
   1   8   9  114.25    3.32 
   1   8   9  119.55    3.44 
   1   8   9  122.87    3.42 
  -1  -8 -10    3.90    0.55 
  -1  -8 -10    2.48    0.65 
   1   8  10    3.40    0.69 
   1   8  10    4.23    0.75 
   1   8  10    3.30    0.70 
  -1  -8 -11   59.83    2.00 
  -1  -8 -11   44.70    2.34 
   1   8  11   62.77    2.59 
   1   8  11   64.39    2.65 
   1   8  11   68.46    2.69 
  -1  -8 -12   20.66    1.23 
  -1  -8 -12   16.37    1.47 
   1   8  12   21.16    1.58 
   1   8  12   24.18    1.69 
   1   8  12   24.70    1.69 
  -1  -8 -13   20.36    1.66 
   1   8  13   30.24    1.93 
   1   8  13   29.25    1.91 
   1   8  13   30.72    1.93 
  -1  -8 -14   12.58    1.35 
   1   8  14   15.62    1.47 
   1   8  14   17.90    1.55 
  -1  -8 -15    7.44    1.09 
   1   8  15    9.60    1.20 
   1   8  15    9.48    1.21 
  -1  -8 -16   29.15    2.09 
   1   8  16   30.03    2.12 
   1   8  16   36.36    2.31 
  -1  -8 -17   -0.01    0.49 
  -1  -8 -17    0.12    0.49 
   1   8  17   -0.29    0.43 
   1   8  17    0.44    0.58 
  -1  -8 -18   33.54    2.38 
  -1  -8 -18   31.60    2.25 
   1   8  18   35.31    2.45 
   1   8  18   40.32    2.59 
  -1  -9   9    2.50    0.79 
  -1  -9   9    2.66    0.84 
   1   9  -9    2.19    0.74 
   1   9  -9    2.16    0.78 
  -1  -9   8   28.91    2.07 
  -1  -9   8   17.93    1.77 
   1   9  -8   22.49    1.83 
   1   9  -8   23.12    1.88 
  -1  -9   7    0.03    0.44 
  -1  -9   7   -0.07    0.42 
   1   9  -7    0.32    0.47 
   1   9  -7    0.19    0.48 
   1   9  -7    0.37    0.50 
  -1  -9   6   31.40    1.99 
  -1  -9   6   22.40    1.85 
   1   9  -6   29.19    1.95 
   1   9  -6   28.95    1.99 
   1   9  -6   30.32    2.01 
  -1  -9   5   11.68    1.22 
  -1  -9   5    7.56    1.09 
   1   9  -5    9.94    1.16 
   1   9  -5   10.44    1.22 
   1   9  -5   10.44    1.20 
  -1  -9   4   64.31    2.63 
  -1  -9   4   38.47    2.26 
   1   9  -4   61.68    2.68 
   1   9  -4   60.88    2.73 
   1   9  -4   61.36    2.68 
  -1  -9   3   21.26    1.48 
  -1  -9   3   12.38    1.27 
  -1  -9   3   17.79    1.23 
   1   9  -3   19.38    1.50 
   1   9  -3   21.03    1.59 
   1   9  -3   20.57    1.55 
  -1  -9   2   23.58    1.50 
  -1  -9   2   13.83    1.29 
  -1  -9   2   18.92    1.30 
   1   9  -2   23.14    1.59 
   1   9  -2   25.05    1.69 
   1   9  -2   23.91    1.62 
  -1  -9   1   36.50    1.78 
  -1  -9   1   21.57    1.54 
  -1  -9   1   25.51    1.54 
   1   9  -1   34.36    1.89 
   1   9  -1   37.15    2.02 
   1   9  -1   36.36    1.94 
  -1  -9   0   16.81    1.18 
  -1  -9   0    9.41    1.01 
  -1  -9   0    9.43    0.98 
   1   9   0   15.21    1.28 
   1   9   0   15.26    1.31 
   1   9   0   14.45    1.25 
  -1  -9  -1   64.04    2.18 
  -1  -9  -1   58.21    2.06 
  -1  -9  -1   38.13    1.89 
  -1  -9  -1   37.59    1.93 
   1   9   1   60.33    2.43 
   1   9   1   60.70    2.50 
   1   9   1   62.94    2.46 
  -1  -9  -2    0.78    0.38 
  -1  -9  -2    1.19    0.39 
  -1  -9  -2    0.37    0.34 
  -1  -9  -2    0.25    0.39 
   1   9   2    0.60    0.50 
   1   9   2    0.06    0.45 
   1   9   2    0.37    0.47 
  -1  -9  -3  120.56    2.83 
  -1  -9  -3  113.27    2.59 
  -1  -9  -3   83.50    2.58 
  -1  -9  -3   64.22    2.60 
   1   9   3  113.08    3.29 
   1   9   3  116.74    3.42 
   1   9   3  118.36    3.33 
  -1  -9  -4    9.76    0.82 
  -1  -9  -4    6.67    0.74 
  -1  -9  -4    6.24    0.88 
   1   9   4   10.98    1.08 
   1   9   4    8.72    1.01 
   1   9   4    9.67    1.01 
  -1  -9  -5   73.10    2.09 
  -1  -9  -5   58.03    1.94 
  -1  -9  -5   43.95    2.22 
   1   9   5   76.88    2.72 
   1   9   5   73.09    2.71 
   1   9   5   73.17    2.62 
  -1  -9  -6   45.68    1.62 
  -1  -9  -6   39.41    1.49 
  -1  -9  -6   32.23    1.94 
   1   9   6   57.02    2.37 
   1   9   6   55.52    2.38 
   1   9   6   55.46    2.30 
  -1  -9  -7   19.88    1.57 
   1   9   7   30.98    1.78 
   1   9   7   32.78    1.87 
   1   9   7   34.96    1.85 
  -1  -9  -8   36.85    2.14 
   1   9   8   66.07    2.62 
   1   9   8   70.78    2.75 
   1   9   8   68.17    2.61 
  -1  -9  -9    5.26    0.90 
   1   9   9    6.08    0.89 
   1   9   9    7.83    1.01 
   1   9   9    8.42    1.01 
  -1  -9 -10   42.90    2.39 
   1   9  10   70.77    2.82 
   1   9  10   69.27    2.83 
   1   9  10   72.64    2.81 
  -1  -9 -11    0.24    0.45 
   1   9  11    1.02    0.54 
   1   9  11    0.73    0.52 
   1   9  11    0.90    0.55 
  -1  -9 -12   31.27    2.12 
   1   9  12   55.23    2.62 
   1   9  12   51.41    2.56 
   1   9  12   51.32    2.48 
  -1  -9 -13    3.69    0.84 
   1   9  13    6.35    1.00 
   1   9  13    5.46    0.96 
   1   9  13    6.41    1.00 
  -1  -9 -14   26.90    2.05 
   1   9  14   38.48    2.32 
   1   9  14   38.25    2.34 
   1   9  14   40.07    2.33 
  -1  -9 -15   15.52    1.60 
   1   9  15   20.48    1.78 
   1   9  15   21.91    1.84 
   1   9  15   22.97    1.84 
  -1  -9 -16   10.99    1.40 
   1   9  16   11.47    1.41 
   1   9  16   11.17    1.41 
   1   9  16   12.36    1.44 
  -1  -9 -17   27.70    2.19 
   1   9  17   33.80    2.39 
   1   9  17   33.49    2.38 
   1   9  17   36.79    2.45 
  -1 -10   7   24.58    1.93 
   1  10  -7   23.47    1.92 
   1  10  -7   24.55    1.98 
  -1 -10   6    1.15    0.62 
  -1 -10   6    0.45    0.53 
   1  10  -6   -0.02    0.46 
   1  10  -6    0.55    0.56 
   1  10  -6    0.52    0.57 
  -1 -10   5   26.24    1.85 
  -1 -10   5   16.65    1.66 
   1  10  -5   24.05    1.86 
   1  10  -5   24.20    1.91 
   1  10  -5   26.69    1.95 
  -1 -10   4    1.67    0.61 
  -1 -10   4    1.14    0.58 
   1  10  -4    1.55    0.64 
   1  10  -4    1.43    0.63 
   1  10  -4    1.16    0.59 
  -1 -10   3   23.61    1.64 
  -1 -10   3   16.01    1.53 
   1  10  -3   22.07    1.71 
   1  10  -3   19.78    1.66 
   1  10  -3   20.32    1.63 
  -1 -10   2   23.31    1.57 
  -1 -10   2   14.54    1.42 
  -1 -10   2   15.59    1.28 
   1  10  -2   20.05    1.61 
   1  10  -2   19.18    1.61 
   1  10  -2   20.97    1.62 
  -1 -10   1   16.61    1.46 
  -1 -10   1   20.77    1.49 
   1  10  -1   25.78    1.78 
   1  10  -1   26.25    1.84 
   1  10  -1   27.04    1.79 
  -1 -10   0   17.80    1.46 
  -1 -10   0   19.65    1.49 
   1  10   0   27.56    1.82 
   1  10   0   25.80    1.81 
   1  10   0   25.65    1.73 
  -1 -10  -1   12.81    1.21 
  -1 -10  -1   13.60    1.27 
   1  10   1   22.81    1.66 
   1  10   1   19.21    1.56 
   1  10   1   19.07    1.49 
  -1 -10  -2   64.56    2.55 
  -1 -10  -2   57.19    2.58 
   1  10   2   91.23    3.20 
   1  10   2   90.57    3.26 
   1  10   2   94.16    3.17 
  -1 -10  -3    1.67    0.50 
  -1 -10  -3    1.16    0.52 
   1  10   3    1.42    0.61 
   1  10   3    1.49    0.62 
   1  10   3    1.74    0.63 
  -1 -10  -4   78.79    2.59 
  -1 -10  -4   59.59    2.71 
   1  10   4  108.28    3.47 
   1  10   4  101.49    3.43 
   1  10   4  106.63    3.35 
  -1 -10  -5    6.10    0.95 
   1  10   5    9.69    1.12 
   1  10   5    9.58    1.14 
   1  10   5   10.39    1.12 
  -1 -10  -6   32.94    2.09 
   1  10   6   53.81    2.47 
   1  10   6   57.90    2.61 
   1  10   6   55.22    2.42 
  -1 -10  -7    9.31    1.17 
   1  10   7   18.75    1.51 
   1  10   7   19.64    1.57 
   1  10   7   20.03    1.51 
  -1 -10  -8   26.10    1.93 
   1  10   8   45.28    2.32 
   1  10   8   45.94    2.38 
   1  10   8   44.69    2.24 
  -1 -10  -9   42.15    2.47 
   1  10   9   70.54    2.93 
   1  10   9   69.90    2.96 
   1  10   9   73.90    2.90 
  -1 -10 -10   10.86    1.32 
   1  10  10   17.37    1.53 
   1  10  10   16.19    1.50 
   1  10  10   16.58    1.45 
  -1 -10 -11   40.64    2.51 
   1  10  11   72.22    3.08 
   1  10  11   72.89    3.13 
   1  10  11   70.71    2.95 
  -1 -10 -12    1.16    0.62 
   1  10  12    2.02    0.70 
   1  10  12    1.48    0.67 
   1  10  12    1.94    0.71 
  -1 -10 -13   45.63    2.74 
   1  10  13   67.27    3.10 
   1  10  13   65.53    3.09 
   1  10  13   74.96    3.18 
  -1 -10 -14    2.09    0.76 
   1  10  14    2.29    0.78 
   1  10  14    3.53    0.89 
   1  10  14    3.75    0.90 
  -1 -10 -15   22.09    2.00 
   1  10  15   32.05    2.28 
   1  10  15   31.31    2.27 
   1  10  15   36.71    2.36 
  -1 -11   3    0.07    0.49 
   1  11  -3    0.00    0.52 
   1  11  -3    0.50    0.59 
   1  11  -3    0.35    0.57 
  -1 -11   2   24.17    1.93 
   1  11  -2   33.94    2.20 
   1  11  -2   36.35    2.35 
   1  11  -2   36.26    2.22 
  -1 -11   1    3.18    0.78 
   1  11  -1    4.45    0.90 
   1  11  -1    4.23    0.92 
   1  11  -1    4.63    0.91 
  -1 -11   0   20.88    1.69 
  -1 -11   0   19.04    1.56 
   1  11   0   25.97    1.90 
   1  11   0   26.44    1.96 
   1  11   0   27.29    1.88 
  -1 -11  -1    0.09    0.28 
  -1 -11  -1   14.31    1.39 
   1  11   1   18.15    1.60 
   1  11   1   18.15    1.64 
   1  11   1   17.66    1.53 
  -1 -11  -2   14.39    1.33 
  -1 -11  -2   11.84    1.30 
   1  11   2   22.05    1.74 
   1  11   2   20.73    1.73 
   1  11   2   20.03    1.60 
  -1 -11  -3   30.27    2.04 
   1  11   3   48.93    2.51 
   1  11   3   52.69    2.67 
   1  11   3   49.78    2.44 
  -1 -11  -4    1.69    0.64 
   1  11   4    2.39    0.74 
   1  11   4    3.12    0.81 
   1  11   4    3.45    0.80 
  -1 -11  -5   29.47    2.08 
   1  11   5   45.25    2.42 
   1  11   5   46.39    2.50 
   1  11   5   46.43    2.35 
  -1 -11  -6    0.67    0.54 
   1  11   6    1.56    0.66 
   1  11   6    1.29    0.65 
   1  11   6    0.71    0.58 
  -1 -11  -7   32.33    2.23 
   1  11   7   53.22    2.64 
   1  11   7   53.06    2.69 
   1  11   7   53.65    2.53 
  -1 -11  -8    4.63    0.95 
   1  11   8    6.27    1.03 
   1  11   8    5.32    0.99 
   1  11   8    6.21    0.99 
  -1 -11  -9   27.08    2.11 
   1  11   9   35.13    2.21 
   1  11   9   35.31    2.26 
   1  11   9   38.74    2.22 
  -1 -11 -10   15.35    1.64 
   1  11  10   26.47    1.96 
   1  11  10   23.88    1.90 
   1  11  10   24.79    1.83 
  -1 -11 -11   12.35    1.52 
   1  11  11   19.20    1.71 
   1  11  11   18.83    1.74 
   1  11  11   20.46    1.70 
  -1 -11 -12   25.13    2.14 
   1  11  12   36.98    2.38 
   1  11  12   38.80    2.47 
   1  11  12   42.19    2.42 
  -1 -11 -13    1.64    0.73 
   1  11  13    2.23    0.78 
   1  11  13    1.81    0.78 
   1  11  13    2.39    0.81 
  -1 -12  -2    6.17    1.05 
   1  12   2    8.52    1.23 
   1  12   2    8.50    1.28 
  -1 -12  -3   12.47    1.43 
   1  12   3   16.86    1.64 
   1  12   3   17.46    1.71 
  -1 -12  -4   15.24    1.59 
   1  12   4   24.82    1.94 
   1  12   4   21.34    1.87 
  -1 -12  -5    5.47    1.04 
   1  12   5    7.94    1.19 
   1  12   5    7.03    1.17 
  -1 -12  -6   15.57    1.65 
   1  12   6   28.14    2.07 
   1  12   6   31.08    2.21 
  -1 -12  -7    0.64    0.57 
   1  12   7    1.61    0.75 
   1  12   7    1.13    0.70 
  -1 -12  -8   23.54    2.06 
   1  12   8   36.04    2.34 
   1  12   8   36.62    2.41 
  -2  10  10   15.26    1.74 
  -2  10  10   15.92    1.77 
   2 -10 -10    9.86    1.41 
  -2  10   9   29.79    2.33 
  -2  10   9   30.97    2.39 
   2 -10  -9   20.15    1.93 
  -2  10   8    3.39    0.97 
  -2  10   8    4.69    1.07 
   2 -10  -8    3.16    0.86 
  -2  10   7   44.65    2.78 
  -2  10   7   43.14    2.75 
   2 -10  -7   28.52    2.20 
  -2  10   6    0.50    0.66 
  -2  10   6    0.04    0.61 
   2 -10  -6    0.04    0.47 
  -2  10   5   55.29    3.07 
  -2  10   5   57.86    3.15 
   2 -10  -5   39.33    2.50 
  -2  10   4    3.83    1.00 
  -2  10   4    3.25    0.94 
   2 -10  -4    2.92    0.81 
  -2  10   3   41.05    2.66 
  -2  10   3   40.05    2.65 
   2 -10  -3   31.73    2.20 
  -2  10   2   12.95    1.58 
  -2  10   2   13.11    1.61 
   2 -10  -2   10.39    1.30 
  -2  10   1   12.41    1.57 
  -2  10   1   12.08    1.56 
   2 -10  -1    9.42    1.22 
  -2  10   0   32.23    2.41 
  -2  10   0   28.53    2.30 
   2 -10   0   25.62    1.94 
   2 -10   0   25.62    1.89 
  -2  10  -1    2.49    0.90 
  -2  10  -1    3.26    0.97 
   2 -10   1    3.27    0.84 
  -2   9  13   35.38    2.54 
  -2   9  13   37.19    2.61 
   2  -9 -13   25.91    2.19 
  -2   9  12    1.28    0.72 
  -2   9  12    1.76    0.78 
   2  -9 -12    0.59    0.58 
  -2   9  11   37.73    2.53 
  -2   9  11   38.03    2.55 
   2  -9 -11   28.22    2.21 
  -2   9  10   10.83    1.41 
  -2   9  10   11.84    1.47 
   2  -9 -10    7.96    1.22 
  -2   9   9   27.26    2.11 
  -2   9   9   24.19    2.01 
   2  -9  -9   17.48    1.70 
  -2   9   8   20.60    1.83 
  -2   9   8   20.64    1.85 
   2  -9  -8   13.70    1.49 
  -2   9   7   13.45    1.50 
  -2   9   7   14.27    1.55 
   2  -9  -7   10.33    1.30 
  -2   9   6   45.97    2.64 
  -2   9   6   45.45    2.64 
   2  -9  -6   32.13    2.18 
  -2   9   5    3.31    0.89 
  -2   9   5    3.27    0.86 
   2  -9  -5    2.77    0.74 
  -2   9   4   36.61    2.36 
  -2   9   4   32.24    2.23 
   2  -9  -4   29.80    2.04 
  -2   9   3    5.03    1.01 
  -2   9   3    4.97    0.99 
   2  -9  -3    4.73    0.78 
   2  -9  -3    3.91    0.83 
  -2   9   2   40.51    2.49 
  -2   9   2   44.74    2.63 
   2  -9  -2   37.28    2.05 
   2  -9  -2   31.57    2.03 
  -2   9   1   15.53    1.61 
  -2   9   1   17.67    1.72 
   2  -9  -1   16.10    1.42 
   2  -9  -1   13.16    1.32 
  -2   9   0   23.81    1.96 
  -2   9   0   25.98    2.06 
   2  -9   0   21.54    1.68 
   2  -9   0   19.98    1.59 
  -2   9  -1   23.70    1.97 
  -2   9  -1   25.65    2.06 
   2  -9   1   20.82    1.71 
   2  -9   1   22.26    1.64 
  -2   9  -2   10.15    1.37 
  -2   9  -2   10.30    1.39 
   2  -9   2    7.55    1.12 
  -2   9  -3   40.75    2.62 
  -2   9  -3   45.16    2.77 
   2  -9   3   34.64    2.31 
  -2   9  -4    0.32    0.65 
  -2   9  -4    1.23    0.73 
   2  -9   4    0.91    0.61 
  -2   9  -5   36.77    2.58 
  -2   9  -5   35.01    2.53 
   2  -9   5   30.56    2.30 
  -2   8  15   16.25    1.76 
  -2   8  15   17.56    1.82 
   2  -8 -15   13.67    1.60 
  -2   8  14   33.80    2.43 
  -2   8  14   32.21    2.37 
   2  -8 -14   26.00    2.12 
  -2   8  13    7.08    1.17 
  -2   8  13   10.59    1.40 
   2  -8 -13    6.19    1.09 
  -2   8  12   42.30    2.58 
  -2   8  12   51.40    2.85 
   2  -8 -12   35.48    2.37 
  -2   8  11    0.53    0.56 
  -2   8  11    1.61    0.70 
   2  -8 -11    0.98    0.58 
  -2   8  10   47.52    2.64 
  -2   8  10   46.30    2.62 
   2  -8 -10   33.44    2.23 
  -2   8   9    7.85    1.14 
  -2   8   9    7.25    1.11 
   2  -8  -9    3.86    0.84 
  -2   8   8   45.68    2.52 
  -2   8   8   41.06    2.41 
   2  -8  -8   27.03    1.95 
  -2   8   7   34.85    2.19 
  -2   8   7   33.46    2.16 
   2  -8  -7   22.83    1.77 
  -2   8   6   33.88    2.14 
  -2   8   6   32.86    2.13 
   2  -8  -6   22.73    1.74 
  -2   8   5   51.15    2.61 
  -2   8   5   49.80    2.58 
   2  -8  -5   51.77    2.00 
   2  -8  -5   33.78    2.07 
  -2   8   4   17.38    1.56 
  -2   8   4   18.37    1.61 
   2  -8  -4   16.95    1.22 
   2  -8  -4   11.31    1.21 
  -2   8   3   72.31    3.08 
  -2   8   3   66.25    2.97 
   2  -8  -3   70.09    2.53 
   2  -8  -3   54.32    2.54 
  -2   8   2    1.04    0.61 
  -2   8   2    0.72    0.58 
   2  -8  -2    0.98    0.45 
   2  -8  -2    0.49    0.43 
  -2   8   1   49.29    2.57 
  -2   8   1   47.33    2.54 
   2  -8  -1   39.46    2.04 
   2  -8  -1   38.96    2.08 
  -2   8   0   13.26    1.41 
  -2   8   0   10.88    1.30 
   2  -8   0   10.50    1.14 
   2  -8   0    9.14    1.04 
  -2   8  -1   47.44    2.58 
  -2   8  -1   44.04    2.49 
   2  -8   1   40.40    2.21 
   2  -8   1   40.99    2.07 
  -2   8  -2   30.92    2.12 
  -2   8  -2   31.03    2.14 
   2  -8   2   25.62    1.83 
   2  -8   2   29.06    1.71 
  -2   8  -3   27.88    2.05 
  -2   8  -3   24.78    1.95 
   2  -8   3   21.71    1.74 
  -2   8  -4   47.59    2.69 
  -2   8  -4   47.62    2.71 
   2  -8   4   35.16    2.25 
  -2   8  -5    4.76    1.01 
  -2   8  -5    4.12    0.95 
   2  -8   5    4.49    0.94 
  -2   8  -6   44.32    2.70 
  -2   8  -6   45.57    2.75 
  -2   8  -6   44.42    2.39 
   2  -8   6   34.56    2.37 
  -2   8  -7    0.55    0.65 
  -2   8  -7    0.35    0.60 
  -2   8  -7    0.53    0.53 
   2  -8   7    0.40    0.55 
  -2   8  -8   28.34    2.28 
  -2   8  -8   32.17    2.43 
  -2   8  -8   33.69    2.28 
  -2   7  16   26.70    2.19 
  -2   7  16   26.78    2.19 
   2  -7 -16   21.60    1.91 
  -2   7  15    7.65    1.21 
  -2   7  15    8.76    1.30 
   2  -7 -15    8.58    1.24 
  -2   7  14   21.20    1.86 
  -2   7  14   21.93    1.90 
   2  -7 -14   16.74    1.63 
  -2   7  13   52.94    2.82 
  -2   7  13   52.54    2.82 
   2  -7 -13   35.34    2.28 
  -2   7  12   10.52    1.30 
  -2   7  12   12.70    1.41 
   2  -7 -12    9.25    1.20 
  -2   7  11   71.28    3.13 
  -2   7  11   69.46    3.09 
   2  -7 -11   47.24    2.54 
  -2   7  10    5.98    0.99 
  -2   7  10    4.25    0.88 
   2  -7 -10    2.88    0.73 
  -2   7   9   97.65    3.52 
  -2   7   9  100.57    3.58 
   2  -7  -9   68.66    2.96 
  -2   7   8    6.33    0.97 
  -2   7   8    6.09    0.97 
   2  -7  -8    4.63    0.83 
  -2   7   7  104.47    3.54 
  -2   7   7  104.91    3.56 
   2  -7  -7   64.91    2.78 
  -2   7   6   39.45    2.17 
  -2   7   6   39.57    2.18 
   2  -7  -6   43.30    1.61 
   2  -7  -6   26.16    1.76 
  -2   7   5  105.95    3.50 
  -2   7   5  109.20    3.57 
   2  -7  -5  105.64    2.67 
   2  -7  -5   70.35    2.80 
  -2   7   4   71.66    2.87 
  -2   7   4   73.27    2.91 
   2  -7  -4   72.41    2.30 
   2  -7  -4   44.56    2.20 
  -2   7   3   39.67    2.15 
  -2   7   3   37.81    2.11 
   2  -7  -3   36.78    1.71 
   2  -7  -3   27.95    1.72 
  -2   7   2  110.55    3.57 
  -2   7   2  107.39    3.53 
   2  -7  -2   78.02    2.57 
   2  -7  -2   72.94    2.71 
  -2   7   1    5.13    0.89 
  -2   7   1    4.56    0.86 
   2  -7  -1    4.50    0.71 
   2  -7  -1    4.60    0.73 
  -2   7   0   92.63    3.30 
  -2   7   0   92.09    3.31 
  -2   7   0   76.69    2.14 
   2  -7   0   76.84    2.75 
   2  -7   0   68.83    2.55 
  -2   7  -1    2.25    0.68 
  -2   7  -1    2.41    0.70 
  -2   7  -1    1.68    0.44 
   2  -7   1    1.65    0.55 
   2  -7   1    1.41    0.48 
  -2   7  -2   85.28    3.25 
  -2   7  -2   84.95    3.26 
  -2   7  -2   74.65    2.41 
   2  -7   2   66.71    2.73 
   2  -7   2   75.95    2.57 
  -2   7  -3   18.30    1.57 
  -2   7  -3   18.72    1.61 
  -2   7  -3   16.28    1.22 
   2  -7   3   13.99    1.33 
   2  -7   3   16.19    1.19 
  -2   7  -4   52.46    2.65 
  -2   7  -4   50.61    2.61 
  -2   7  -4   46.96    2.13 
   2  -7   4   43.98    2.36 
   2  -7   4   55.53    2.09 
  -2   7  -5   42.28    2.43 
  -2   7  -5   46.88    2.02 
  -2   7  -5   41.10    2.41 
  -2   7  -5   36.09    1.96 
   2  -7   5   36.49    2.22 
  -2   7  -6   14.33    1.50 
  -2   7  -6   17.37    1.33 
  -2   7  -6   15.19    1.53 
  -2   7  -6   14.79    1.34 
   2  -7   6   12.10    1.35 
  -2   7  -7   30.53    2.17 
  -2   7  -7   33.65    1.91 
  -2   7  -7   30.98    2.19 
  -2   7  -7   31.98    2.03 
   2  -7   7   29.02    2.11 
  -2   7  -8   -0.08    0.50 
  -2   7  -8   -0.04    0.41 
  -2   7  -8    0.52    0.56 
  -2   7  -8    0.34    0.48 
   2  -7   8    0.41    0.51 
  -2   7  -9   32.55    2.36 
  -2   7  -9   33.69    2.09 
  -2   7  -9   34.29    2.42 
  -2   7  -9   34.94    2.29 
   2  -7   9   26.29    2.13 
  -2   7 -10    1.31    0.71 
  -2   7 -10    1.08    0.61 
  -2   7 -10    1.10    0.66 
   2  -7  10    0.86    0.65 
  -2   6  18    6.72    1.23 
  -2   6  18    7.46    1.14 
   2  -6 -18    7.14    1.16 
  -2   6  17   27.43    2.20 
  -2   6  17   33.26    2.11 
   2  -6 -17   28.50    2.11 
  -2   6  16    0.62    0.57 
  -2   6  16    0.51    0.52 
   2  -6 -16    0.20    0.48 
  -2   6  15   39.38    2.48 
  -2   6  15   48.97    2.33 
   2  -6 -15   35.58    2.26 
  -2   6  14    1.97    0.70 
  -2   6  14    1.89    0.60 
   2  -6 -14    0.92    0.54 
  -2   6  13   60.08    2.89 
  -2   6  13   58.02    2.84 
  -2   6  13   65.79    2.45 
   2  -6 -13   48.01    2.52 
  -2   6  12    9.51    1.17 
  -2   6  12    8.84    1.14 
  -2   6  12   10.41    0.99 
   2  -6 -12    6.68    0.98 
  -2   6  11   43.64    2.34 
  -2   6  11   47.05    2.44 
  -2   6  11   49.40    1.92 
   2  -6 -11   29.59    1.91 
  -2   6  10   79.77    3.08 
  -2   6  10   80.27    3.09 
  -2   6  10   91.95    2.47 
   2  -6 -10   57.11    2.59 
  -2   6   9   19.38    1.52 
  -2   6   9   20.85    1.57 
  -2   6   9   22.81    1.17 
   2  -6  -9   13.62    1.28 
  -2   6   8  131.78    3.81 
  -2   6   8  129.22    3.78 
  -2   6   8  151.33    2.84 
   2  -6  -8  130.82    2.31 
   2  -6  -8   83.55    3.02 
  -2   6   7    2.41    0.62 
  -2   6   7    2.20    0.62 
  -2   6   7    2.67    0.43 
   2  -6  -7    2.83    0.42 
   2  -6  -7    1.68    0.53 
  -2   6   6  105.55    3.30 
  -2   6   6  101.65    3.24 
  -2   6   6  113.16    2.14 
   2  -6  -6  108.52    2.38 
   2  -6  -6   62.91    2.53 
  -2   6   5   20.55    1.47 
  -2   6   5   23.58    1.57 
  -2   6   5   23.31    0.90 
   2  -6  -5   22.48    1.14 
   2  -6  -5   13.33    1.17 
  -2   6   4  126.54    3.56 
  -2   6   4  130.60    3.63 
  -2   6   4  138.69    2.14 
   2  -6  -4  129.15    2.87 
   2  -6  -4   86.26    2.87 
  -2   6   3   63.35    2.51 
  -2   6   3   68.19    2.61 
  -2   6   3   68.26    1.42 
   2  -6  -3   63.07    2.07 
   2  -6  -3   44.85    2.03 
  -2   6   2   34.17    1.86 
  -2   6   2   36.08    1.91 
  -2   6   2   32.56    1.07 
  -2   6   2   34.38    1.00 
   2  -6  -2   23.49    1.45 
  -2   6   1   55.38    2.36 
  -2   6   1   54.36    2.34 
  -2   6   1   42.74    1.37 
  -2   6   1   49.51    1.25 
   2  -6  -1   57.18    1.60 
   2  -6  -1   47.80    1.95 
   2  -6  -1   40.19    1.86 
  -2   6   0   23.39    1.57 
  -2   6   0   23.17    1.57 
  -2   6   0   18.68    1.00 
  -2   6   0   19.79    0.84 
   2  -6   0   23.02    1.12 
   2  -6   0   18.70    1.28 
   2  -6   0   18.04    1.24 
  -2   6  -1  125.60    3.63 
  -2   6  -1  126.86    2.37 
  -2   6  -1  127.73    3.67 
  -2   6  -1   95.20    2.43 
  -2   6  -1  101.72    2.05 
   2  -6   1   99.59    3.02 
   2  -6   1   96.92    2.77 
  -2   6  -2   -0.08    0.41 
  -2   6  -2    0.17    0.26 
  -2   6  -2    0.43    0.46 
  -2   6  -2   -0.04    0.25 
  -2   6  -2    0.38    0.28 
   2  -6   2    0.07    0.33 
   2  -6   2    0.21    0.30 
  -2   6  -3   87.03    3.11 
  -2   6  -3   80.88    2.23 
  -2   6  -3   87.44    3.13 
  -2   6  -3   66.04    2.27 
  -2   6  -3   71.16    1.95 
   2  -6   3   67.67    2.65 
   2  -6   3   74.91    2.32 
  -2   6  -4   12.69    1.26 
  -2   6  -4   11.73    0.94 
  -2   6  -4   10.60    1.17 
  -2   6  -4    9.18    0.92 
  -2   6  -4   11.09    0.85 
   2  -6   4    9.66    1.07 
   2  -6   4   10.48    0.88 
  -2   6  -5   39.47    2.20 
  -2   6  -5   35.51    1.68 
  -2   6  -5   40.31    2.23 
  -2   6  -5   31.16    1.73 
  -2   6  -5   30.06    1.44 
   2  -6   5   32.25    1.48 
   2  -6   5   29.63    1.88 
   2  -6   5   37.81    1.54 
  -2   6  -6   29.46    1.96 
  -2   6  -6   28.82    1.61 
  -2   6  -6   32.05    2.04 
  -2   6  -6   25.54    1.65 
   2  -6   6   28.70    1.49 
   2  -6   6   20.73    1.64 
  -2   6  -7   10.78    1.27 
  -2   6  -7   10.26    1.05 
  -2   6  -7   11.34    1.29 
  -2   6  -7   12.33    1.23 
   2  -6   7   11.16    1.00 
   2  -6   7    9.56    1.18 
  -2   6  -8   36.70    2.29 
  -2   6  -8   36.64    2.01 
  -2   6  -8   35.46    2.25 
  -2   6  -8   32.95    2.04 
   2  -6   8   36.07    1.84 
   2  -6   8   30.98    2.11 
  -2   6  -9    2.43    0.75 
  -2   6  -9    3.25    0.73 
  -2   6  -9    3.05    0.82 
  -2   6  -9    3.25    0.75 
   2  -6   9    2.88    0.65 
   2  -6   9    3.72    0.85 
  -2   6 -10   43.42    2.62 
  -2   6 -10   43.28    2.38 
  -2   6 -10   40.14    2.43 
   2  -6  10   43.34    2.21 
   2  -6  10   35.24    2.38 
  -2   6 -11    0.28    0.58 
  -2   6 -11    0.04    0.47 
  -2   6 -11   -0.12    0.44 
   2  -6  11    0.10    0.46 
   2  -6  11   -0.17    0.47 
  -2   6 -12   34.20    2.49 
  -2   6 -12   37.26    2.41 
   2  -6  12   29.97    2.01 
   2  -6  12   28.17    2.28 
  -2   5  18   12.77    1.55 
  -2   5  18   15.13    1.53 
   2  -5 -18   13.16    1.58 
   2  -5 -18   14.26    1.48 
  -2   5  17    6.69    1.13 
  -2   5  17    7.00    1.05 
   2  -5 -17    6.37    1.13 
   2  -5 -17    5.84    0.99 
  -2   5  16   22.89    1.92 
  -2   5  16   24.11    1.74 
   2  -5 -16   23.99    1.95 
   2  -5 -16   23.65    1.80 
  -2   5  15    2.82    0.79 
  -2   5  15    3.64    0.74 
   2  -5 -15    3.87    0.87 
   2  -5 -15    2.55    0.70 
  -2   5  14   53.28    2.70 
  -2   5  14   57.82    2.42 
   2  -5 -14   57.57    2.80 
   2  -5 -14   39.80    2.22 
  -2   5  13    0.16    0.46 
  -2   5  13    0.03    0.36 
   2  -5 -13    0.59    0.46 
  -2   5  12   86.59    3.24 
  -2   5  12   96.18    2.82 
   2  -5 -12   72.13    2.86 
  -2   5  11   23.73    1.67 
  -2   5  11   23.30    1.33 
   2  -5 -11   13.77    1.26 
  -2   5  10   68.04    2.71 
  -2   5  10   72.36    2.80 
  -2   5  10   71.96    2.17 
   2  -5 -10   54.32    2.39 
  -2   5   9   59.54    2.47 
  -2   5   9   59.44    2.47 
  -2   5   9   65.37    1.94 
   2  -5  -9   63.77    1.38 
   2  -5  -9   41.32    2.04 
  -2   5   8   10.84    1.07 
  -2   5   8   10.55    1.06 
  -2   5   8   12.90    0.83 
   2  -5  -8   12.85    0.67 
   2  -5  -8    7.86    0.91 
  -2   5   7   82.25    2.77 
  -2   5   7   84.71    2.81 
  -2   5   7   92.08    2.01 
  -2   5   7   71.86    1.69 
   2  -5  -7   90.61    1.91 
   2  -5  -7   57.29    2.31 
  -2   5   6    0.57    0.41 
  -2   5   6    0.81    0.45 
  -2   5   6    1.09    0.30 
  -2   5   6    0.47    0.28 
   2  -5  -6    0.89    0.29 
   2  -5  -6    0.69    0.40 
  -2   5   5  201.65    4.26 
  -2   5   5  201.10    4.25 
  -2   5   5  227.52    2.85 
   2  -5  -5  211.53    3.33 
   2  -5  -5  129.53    3.36 
  -2   5   4    3.01    0.61 
  -2   5   4    2.89    0.62 
  -2   5   4    3.98    0.36 
   2  -5  -4    3.59    0.49 
   2  -5  -4    1.90    0.48 
  -2   5   3  152.25    3.62 
  -2   5   3  157.71    3.69 
  -2   5   3  119.63    1.72 
  -2   5   3  160.84    2.06 
   2  -5  -3  167.63    2.09 
   2  -5  -3  151.66    1.95 
   2  -5  -3  144.68    2.94 
   2  -5  -3  102.32    2.87 
  -2   5   2   69.48    2.43 
  -2   5   2   70.70    2.45 
  -2   5   2   53.44    1.28 
  -2   5   2   68.78    1.24 
   2  -5  -2   78.41    1.57 
   2  -5  -2   76.72    1.31 
   2  -5  -2   49.19    1.95 
  -2   5   1   67.61    2.40 
  -2   5   1   66.90    2.40 
  -2   5   1   50.47    1.40 
  -2   5   1   57.43    1.17 
   2  -5  -1   67.94    1.14 
   2  -5  -1   70.41    1.66 
   2  -5  -1   76.40    1.35 
   2  -5  -1   56.48    1.96 
   2  -5  -1   50.57    1.93 
  -2   5   0  127.21    3.34 
  -2   5   0  119.76    1.93 
  -2   5   0  120.71    3.25 
  -2   5   0   86.62    2.02 
  -2   5   0  100.09    1.70 
   2  -5   0  116.77    1.89 
   2  -5   0  118.47    2.39 
   2  -5   0   99.27    2.71 
   2  -5   0   93.51    2.59 
  -2   5  -1   10.52    1.02 
  -2   5  -1    9.68    0.62 
  -2   5  -1   10.99    1.04 
  -2   5  -1    8.40    0.70 
  -2   5  -1    9.01    0.56 
   2  -5   1   10.07    0.64 
   2  -5   1    9.49    0.76 
   2  -5   1    9.40    0.90 
   2  -5   1    7.98    0.77 
  -2   5  -2  119.18    3.32 
  -2   5  -2  100.86    2.19 
  -2   5  -2  119.92    3.34 
  -2   5  -2   83.44    2.28 
  -2   5  -2   91.24    1.90 
   2  -5   2   92.67    2.80 
   2  -5   2   96.57    2.52 
  -2   5  -3    0.06    0.39 
  -2   5  -3    0.32    0.27 
  -2   5  -3    0.28    0.41 
  -2   5  -3    0.14    0.27 
  -2   5  -3    0.90    0.30 
   2  -5   3    0.43    0.37 
   2  -5   3    0.30    0.31 
  -2   5  -4   74.22    2.73 
  -2   5  -4   60.22    1.96 
  -2   5  -4   72.58    2.70 
  -2   5  -4   57.98    2.13 
  -2   5  -4   58.30    1.76 
   2  -5   4   58.98    1.77 
   2  -5   4   54.71    2.30 
   2  -5   4   70.59    2.03 
  -2   5  -5    2.58    0.63 
  -2   5  -5    2.22    0.49 
  -2   5  -5    2.87    0.67 
  -2   5  -5    1.53    0.46 
  -2   5  -5    1.53    0.40 
   2  -5   5    2.14    0.42 
   2  -5   5    1.77    0.54 
   2  -5   5    2.69    0.45 
  -2   5  -6   80.46    2.99 
  -2   5  -6   73.96    2.45 
  -2   5  -6   77.12    2.93 
  -2   5  -6   66.07    2.50 
   2  -5   6   73.19    2.24 
   2  -5   6   58.15    2.53 
   2  -5   6   86.60    2.07 
  -2   5  -7   10.82    1.18 
  -2   5  -7    8.62    0.93 
  -2   5  -7    9.25    1.11 
  -2   5  -7    8.76    0.99 
   2  -5   7    7.79    0.82 
   2  -5   7    8.24    1.03 
  -2   5  -8   20.49    1.63 
  -2   5  -8   19.77    1.43 
  -2   5  -8   17.88    1.53 
  -2   5  -8   18.73    1.48 
   2  -5   8   19.10    1.30 
   2  -5   8   15.03    1.40 
  -2   5  -9   36.02    2.19 
  -2   5  -9   37.83    2.05 
  -2   5  -9   38.94    2.29 
  -2   5  -9   35.05    2.09 
   2  -5   9   37.20    1.89 
   2  -5   9   29.10    1.99 
  -2   5 -10    4.85    0.93 
  -2   5 -10    7.62    1.02 
  -2   5 -10    6.80    1.02 
   2  -5  10    6.42    0.89 
   2  -5  10    5.84    1.00 
  -2   5 -11   43.87    2.58 
  -2   5 -11   43.96    2.42 
  -2   5 -11   42.08    2.47 
   2  -5  11   38.60    2.42 
  -2   5 -12   -0.03    0.49 
  -2   5 -12    0.14    0.49 
  -2   5 -12    0.05    0.46 
   2  -5  12    0.01    0.43 
   2  -5  12   -0.08    0.47 
  -2   5 -13   35.82    2.50 
  -2   5 -13   37.47    2.43 
   2  -5  13   40.21    2.36 
   2  -5  13   30.34    2.29 
  -2   5 -14    2.94    0.93 
  -2   5 -14    2.88    0.88 
   2  -5  14    3.50    0.86 
  -2   4  19    2.07    0.76 
   2  -4 -19    2.59    0.84 
  -2   4  18   26.42    1.99 
   2  -4 -18   21.02    1.92 
   2  -4 -18    9.70    1.14 
  -2   4  17   10.02    1.22 
   2  -4 -17    8.90    1.25 
   2  -4 -17    9.01    1.12 
  -2   4  16   11.24    1.22 
   2  -4 -16   10.02    1.27 
   2  -4 -16    9.93    1.15 
  -2   4  15   39.37    2.11 
   2  -4 -15   36.92    2.26 
   2  -4 -15   33.28    1.68 
   2  -4 -15   34.86    2.01 
  -2   4  14    2.51    0.61 
   2  -4 -14    3.55    0.77 
   2  -4 -14    2.59    0.52 
   2  -4 -14    3.15    0.68 
  -2   4  13   68.86    2.52 
   2  -4 -13   69.12    2.88 
   2  -4 -13   61.78    2.02 
   2  -4 -13   58.19    2.48 
  -2   4  12    1.01    0.51 
  -2   4  12    0.87    0.40 
   2  -4 -12    0.70    0.47 
   2  -4 -12    0.52    0.29 
   2  -4 -12    0.88    0.43 
  -2   4  11   52.95    2.36 
  -2   4  11   58.97    1.37 
  -2   4  11   52.96    1.98 
   2  -4 -11   50.72    2.31 
   2  -4 -11   46.55    1.51 
   2  -4 -11   40.55    1.99 
  -2   4  10   16.08    1.29 
  -2   4  10   16.23    0.63 
  -2   4  10   12.82    0.94 
  -2   4  10   14.78    0.65 
   2  -4 -10   13.35    0.74 
   2  -4 -10   11.26    1.06 
  -2   4   9   73.79    2.61 
  -2   4   9   78.98    1.61 
  -2   4   9   78.92    2.14 
  -2   4   9   79.40    1.57 
   2  -4  -9   68.36    1.49 
   2  -4  -9   80.31    1.58 
   2  -4  -9   54.51    2.20 
  -2   4   8   42.22    1.92 
  -2   4   8   43.80    1.01 
  -2   4   8   41.03    1.89 
  -2   4   8   43.47    1.47 
  -2   4   8   41.44    1.16 
   2  -4  -8   38.73    0.95 
   2  -4  -8   43.81    1.19 
   2  -4  -8   29.64    1.60 
  -2   4   7   55.14    2.13 
  -2   4   7   54.84    2.13 
  -2   4   7   58.80    1.57 
  -2   4   7   55.54    1.40 
   2  -4  -7   59.36    1.45 
   2  -4  -7   38.44    1.78 
  -2   4   6   95.90    2.75 
  -2   4   6   95.76    2.75 
  -2   4   6  104.44    1.94 
  -2   4   6   88.92    1.87 
   2  -4  -6  100.71    1.99 
   2  -4  -6   62.10    2.21 
  -2   4   5    8.86    0.86 
  -2   4   5    9.15    0.88 
  -2   4   5    9.20    0.53 
  -2   4   5    8.51    0.63 
   2  -4  -5    8.88    0.63 
   2  -4  -5    5.11    0.66 
  -2   4   4  391.43    5.63 
  -2   4   4  408.91    5.76 
  -2   4   4  453.30    4.12 
   2  -4  -4  338.93    3.23 
   2  -4  -4  388.05    4.59 
   2  -4  -4  246.86    4.34 
  -2   4   3   12.24    0.98 
  -2   4   3   12.78    0.99 
  -2   4   3    8.66    0.42 
  -2   4   3   13.69    0.47 
   2  -4  -3   14.35    0.54 
   2  -4  -3   12.90    0.81 
   2  -4  -3    8.98    0.82 
  -2   4   2  322.80    5.00 
  -2   4   2  319.27    4.96 
  -2   4   2  225.52    2.74 
   2  -4  -2  343.20    3.53 
   2  -4  -2    0.07    0.09 
   2  -4  -2  221.02    3.93 
  -2   4   1   75.99    2.34 
  -2   4   1   74.86    2.32 
  -2   4   1   56.71    1.39 
   2  -4  -1   80.41    1.20 
   2  -4  -1   79.13    1.66 
   2  -4  -1   67.05    1.97 
   2  -4  -1   55.81    1.89 
  -2   4   0  130.89    3.12 
  -2   4   0  109.78    1.74 
  -2   4   0  130.30    3.11 
  -2   4   0   93.47    1.98 
  -2   4   0  105.10    1.51 
   2  -4   0  130.21    1.90 
   2  -4   0  132.02    2.38 
   2  -4   0  154.45    1.88 
   2  -4   0  108.58    2.62 
   2  -4   0  101.41    2.50 
  -2   4  -1   97.71    2.72 
  -2   4  -1   80.61    1.67 
  -2   4  -1  100.75    2.76 
  -2   4  -1   71.05    1.85 
  -2   4  -1   76.93    1.42 
   2  -4   1   91.76    1.79 
   2  -4   1   96.48    2.17 
   2  -4   1   81.60    2.35 
   2  -4   1   81.52    2.19 
  -2   4  -2  126.27    3.16 
  -2   4  -2  102.79    2.10 
  -2   4  -2  128.88    3.19 
  -2   4  -2   93.36    2.28 
  -2   4  -2   98.70    1.81 
   2  -4   2  101.18    2.72 
   2  -4   2  110.33    2.50 
  -2   4  -3  127.73    3.25 
  -2   4  -3   95.26    2.20 
  -2   4  -3  123.74    3.19 
  -2   4  -3   88.75    2.36 
  -2   4  -3   96.96    1.97 
   2  -4   3   97.09    1.97 
   2  -4   3   96.95    2.76 
   2  -4   3  113.71    2.48 
  -2   4  -4   22.02    1.40 
  -2   4  -4   17.01    1.00 
  -2   4  -4   21.86    1.39 
  -2   4  -4   19.72    1.18 
   2  -4   4   18.64    0.93 
   2  -4   4   17.83    1.24 
   2  -4   4   22.31    1.06 
  -2   4  -5  142.30    3.63 
  -2   4  -5  119.68    2.84 
  -2   4  -5  146.26    3.68 
  -2   4  -5  110.79    2.95 
   2  -4   5  121.31    2.59 
   2  -4   5  108.17    3.13 
   2  -4   5  148.15    2.68 
  -2   4  -6    1.81    0.55 
  -2   4  -6    1.36    0.42 
  -2   4  -6    2.39    0.60 
  -2   4  -6    1.32    0.44 
   2  -4   6    1.82    0.42 
   2  -4   6    1.14    0.48 
   2  -4   6    1.73    0.35 
  -2   4  -7  105.78    3.32 
  -2   4  -7   97.43    2.86 
  -2   4  -7  107.73    3.34 
  -2   4  -7   90.17    2.92 
  -2   4  -7  121.62    2.16 
   2  -4   7  100.05    2.66 
   2  -4   7   84.72    2.96 
  -2   4  -8   13.43    1.26 
  -2   4  -8   10.95    1.04 
  -2   4  -8   13.68    1.27 
  -2   4  -8   10.26    1.06 
   2  -4   8   13.55    1.06 
   2  -4   8   11.04    1.14 
  -2   4  -9   39.54    2.17 
  -2   4  -9   37.47    1.96 
  -2   4  -9   38.82    2.15 
  -2   4  -9   34.02    1.96 
   2  -4   9   26.93    1.53 
   2  -4   9   32.51    1.97 
  -2   4 -10   16.11    1.47 
  -2   4 -10   16.22    1.38 
  -2   4 -10   13.18    1.30 
   2  -4  10   14.98    1.24 
   2  -4  10   13.61    1.35 
  -2   4 -11   21.14    1.73 
  -2   4 -11   21.10    1.63 
  -2   4 -11   20.69    1.67 
   2  -4  11   23.26    1.60 
   2  -4  11   17.28    1.55 
  -2   4 -12   32.93    2.21 
  -2   4 -12   37.88    2.26 
  -2   4 -12   35.00    2.25 
   2  -4  12   33.75    2.01 
   2  -4  12   33.77    2.21 
  -2   4 -13    6.16    1.08 
  -2   4 -13    6.96    1.09 
   2  -4  13    6.86    1.01 
   2  -4  13    5.72    1.02 
  -2   4 -14   17.03    1.73 
  -2   4 -14   20.87    1.85 
   2  -4  14   22.27    1.80 
   2  -4  14   16.37    1.67 
  -2   4 -15    1.26    0.73 
  -2   4 -15    0.36    0.58 
   2  -4  15    0.98    0.62 
   2  -4  15    1.04    0.67 
  -2   3  19   29.59    2.21 
   2  -3 -19   29.11    2.29 
  -2   3  18    1.06    0.64 
   2  -3 -18    1.02    0.63 
   2  -3 -18    0.46    0.47 
  -2   3  17   42.87    2.42 
   2  -3 -17   35.30    2.34 
   2  -3 -17   36.19    2.04 
   2  -3 -17   42.58    2.16 
  -2   3  16   15.00    1.41 
   2  -3 -16   12.33    1.37 
   2  -3 -16   11.87    1.14 
   2  -3 -16   13.06    1.22 
  -2   3  15   24.80    1.70 
   2  -3 -15   22.04    1.73 
   2  -3 -15   23.71    1.50 
   2  -3 -15    9.18    0.98 
  -2   3  14   29.73    1.77 
   2  -3 -14   27.84    1.86 
   2  -3 -14   26.85    1.51 
   2  -3 -14   32.00    1.78 
  -2   3  13   11.59    1.08 
   2  -3 -13   12.24    1.22 
   2  -3 -13   10.82    0.93 
   2  -3 -13   11.79    1.08 
  -2   3  12   60.20    2.25 
  -2   3  12   57.21    1.48 
   2  -3 -12   59.40    2.50 
   2  -3 -12   56.40    1.93 
   2  -3 -12   51.48    2.15 
  -2   3  11   10.57    0.73 
  -2   3  11   11.87    0.98 
  -2   3  11    9.45    0.60 
   2  -3 -11   10.15    1.05 
   2  -3 -11    8.67    0.73 
   2  -3 -11    7.99    0.87 
  -2   3  10  112.78    2.15 
  -2   3  10  115.84    2.80 
  -2   3  10  115.45    2.05 
  -2   3  10  139.52    2.27 
   2  -3 -10  115.95    3.25 
   2  -3 -10   99.72    2.25 
   2  -3 -10   94.70    2.79 
  -2   3   9    2.13    0.53 
  -2   3   9    1.99    0.31 
  -2   3   9    2.52    0.45 
  -2   3   9    2.29    0.34 
   2  -3  -9    2.86    0.57 
   2  -3  -9    1.84    0.33 
   2  -3  -9    1.96    0.31 
   2  -3  -9    1.51    0.44 
  -2   3   8  141.64    3.36 
  -2   3   8  131.45    2.18 
  -2   3   8  118.70    1.86 
  -2   3   8  150.48    2.15 
  -2   3   8  138.02    2.69 
  -2   3   8  157.21    2.38 
   2  -3  -8  140.33    3.34 
   2  -3  -8  127.04    2.15 
   2  -3  -8  146.53    2.30 
   2  -3  -8  104.87    2.82 
  -2   3   7   12.11    0.97 
  -2   3   7   11.37    0.56 
  -2   3   7    9.71    0.46 
  -2   3   7   12.89    0.53 
  -2   3   7   12.75    0.75 
  -2   3   7   12.15    0.65 
   2  -3  -7   11.70    0.56 
   2  -3  -7   12.74    0.66 
   2  -3  -7    7.89    0.78 
  -2   3   6   94.99    2.56 
  -2   3   6   87.41    1.34 
  -2   3   6  103.11    1.50 
  -2   3   6  101.86    2.65 
  -2   3   6   81.59    1.27 
  -2   3   6  107.64    1.52 
  -2   3   6   97.77    1.88 
  -2   3   6  102.49    1.92 
   2  -3  -6  102.97    1.93 
   2  -3  -6   70.91    2.20 
  -2   3   5  118.64    2.80 
  -2   3   5  121.77    2.83 
  -2   3   5  127.35    1.66 
  -2   3   5  126.24    1.95 
  -2   3   5  122.70    2.17 
   2  -3  -5  128.82    2.23 
  -2   3   4   98.23    2.48 
  -2   3   4   99.90    2.49 
  -2   3   4   90.18    1.34 
  -2   3   4   77.74    1.28 
  -2   3   4  104.33    1.54 
  -2   3   4   94.23    1.94 
   2  -3  -4   97.35    1.97 
   2  -3  -4   68.12    2.06 
  -2   3   3  146.30    3.01 
  -2   3   3  148.23    3.02 
  -2   3   3  125.45    1.73 
  -2   3   3  163.14    1.89 
  -2   3   3  138.68    2.47 
   2  -3  -3  157.77    1.97 
   2  -3  -3  139.46    2.48 
   2  -3  -3  102.91    2.49 
  -2   3   2    5.16    0.59 
  -2   3   2    5.61    0.61 
  -2   3   2    5.08    0.37 
   2  -3  -2    6.51    0.41 
   2  -3  -2    0.10    0.10 
   2  -3  -2    4.48    0.54 
  -2   3   1  160.83    1.92 
  -2   3   1  218.62    3.69 
  -2   3   1  172.82    2.43 
   2  -3  -1  231.61    2.42 
   2  -3  -1  223.04    2.79 
   2  -3  -1  194.04    3.18 
   2  -3  -1  154.60    2.96 
  -2   3   0    8.30    0.74 
  -2   3   0    6.63    0.39 
  -2   3   0    8.90    0.76 
  -2   3   0    7.76    0.54 
   2  -3   0    8.93    0.45 
   2  -3   0    8.71    0.57 
   2  -3   0    8.02    0.67 
   2  -3   0    8.99    0.70 
  -2   3  -1  258.78    4.15 
  -2   3  -1  186.05    2.53 
  -2   3  -1  265.75    4.20 
  -2   3  -1  198.83    3.02 
   2  -3   1  246.39    2.96 
   2  -3   1  244.33    3.39 
   2  -3   1  196.37    2.22 
   2  -3   1  298.71    2.87 
   2  -3   1  207.69    3.55 
   2  -3   1  208.66    3.34 
  -2   3  -2  176.97    3.45 
  -2   3  -2  130.06    2.27 
  -2   3  -2  179.32    3.46 
  -2   3  -2  134.39    2.60 
   2  -3   2  160.73    2.54 
   2  -3   2    0.11    0.12 
   2  -3   2  135.38    1.96 
   2  -3   2  143.50    3.02 
   2  -3   2  151.41    2.74 
  -2   3  -3  207.72    3.86 
  -2   3  -3  149.11    2.65 
  -2   3  -3  203.36    3.80 
  -2   3  -3  154.24    2.98 
   2  -3   3  157.47    2.38 
   2  -3   3  159.16    3.32 
   2  -3   3  184.26    2.98 
  -2   3  -4  193.30    3.83 
  -2   3  -4  148.18    2.85 
  -2   3  -4  191.78    3.80 
  -2   3  -4  147.63    3.07 
   2  -3   4  150.11    2.54 
   2  -3   4  148.77    3.32 
   2  -3   4  181.56    2.87 
  -2   3  -5   38.79    1.75 
  -2   3  -5   30.89    1.37 
  -2   3  -5   38.56    1.74 
  -2   3  -5   30.24    1.45 
   2  -3   5   32.80    1.26 
   2  -3   5   28.71    1.50 
   2  -3   5   38.74    1.24 
  -2   3  -6  166.05    3.78 
  -2   3  -6  137.46    3.10 
  -2   3  -6  168.31    3.79 
  -2   3  -6  129.78    3.19 
   2  -3   6  141.84    2.86 
   2  -3   6  129.68    3.32 
   2  -3   6  179.19    2.66 
  -2   3  -7    2.73    0.61 
  -2   3  -7    2.63    0.52 
  -2   3  -7    3.15    0.63 
  -2   3  -7    2.75    0.55 
  -2   3  -7    4.32    0.40 
   2  -3   7    2.91    0.50 
   2  -3   7    3.03    0.61 
  -2   3  -8   86.95    2.92 
  -2   3  -8   80.01    2.62 
  -2   3  -8   86.77    2.91 
  -2   3  -8   74.02    2.63 
  -2   3  -8  100.74    1.67 
   2  -3   8   67.64    2.56 
  -2   3  -9    6.38    0.88 
  -2   3  -9    5.28    0.76 
  -2   3  -9    4.15    0.71 
   2  -3   9    5.09    0.70 
   2  -3   9    4.52    0.76 
  -2   3 -10   41.91    2.19 
  -2   3 -10   37.04    1.97 
  -2   3 -10   36.06    2.01 
   2  -3  10   39.82    1.91 
   2  -3  10   34.54    1.97 
  -2   3 -11   12.38    1.28 
  -2   3 -11   13.11    1.26 
  -2   3 -11   11.68    1.22 
   2  -3  11   12.62    1.16 
   2  -3  11   11.09    1.19 
  -2   3 -12   41.36    2.34 
  -2   3 -12   45.47    2.39 
  -2   3 -12   41.00    2.32 
   2  -3  12   42.19    2.17 
   2  -3  12   42.61    2.33 
  -2   3 -13   44.59    2.53 
  -2   3 -13   45.63    2.50 
  -2   3 -13   44.59    2.52 
   2  -3  13   49.37    2.45 
   2  -3  13   42.38    2.41 
  -2   3 -14    6.09    1.06 
  -2   3 -14    6.04    1.03 
  -2   3 -14    6.99    1.11 
   2  -3  14    6.49    1.01 
   2  -3  14    6.83    1.08 
  -2   3 -15   27.16    2.14 
  -2   3 -15   27.38    2.12 
   2  -3  15   29.48    2.08 
   2  -3  15   28.53    2.12 
  -2   3 -16    0.24    0.55 
  -2   3 -16    0.55    0.60 
   2  -3  16    1.24    0.65 
   2  -3  16    0.82    0.63 
  -2   2  19    5.46    1.08 
   2  -2 -19    3.60    0.93 
   2  -2 -19    3.41    0.83 
  -2   2  18   42.92    2.56 
   2  -2 -18   36.70    2.45 
   2  -2 -18   40.97    2.34 
  -2   2  17    0.26    0.49 
   2  -2 -17   -0.19    0.43 
   2  -2 -17    0.57    0.47 
  -2   2  16   36.18    2.17 
   2  -2 -16   33.51    2.17 
   2  -2 -16   34.34    1.96 
   2  -2 -16   37.07    1.86 
  -2   2  15   12.86    1.27 
   2  -2 -15    8.08    1.08 
   2  -2 -15    9.56    1.02 
   2  -2 -15   10.43    1.01 
  -2   2  14   41.13    2.10 
  -2   2  14   44.15    1.59 
   2  -2 -14   35.37    2.05 
   2  -2 -14   40.00    1.92 
   2  -2 -14   42.99    1.92 
  -2   2  13   29.94    1.71 
  -2   2  13   28.54    1.24 
   2  -2 -13   26.89    1.73 
   2  -2 -13   29.51    1.57 
   2  -2 -13   21.61    1.34 
  -2   2  12   82.72    2.69 
  -2   2  12   72.34    1.89 
   2  -2 -12   75.85    2.76 
   2  -2 -12   71.88    2.31 
   2  -2 -12   64.93    2.26 
  -2   2  11  110.44    2.95 
  -2   2  11  111.21    2.28 
   2  -2 -11  111.99    3.22 
   2  -2 -11  100.86    2.59 
   2  -2 -11  109.76    2.89 
  -2   2  10    7.08    0.63 
  -2   2  10    7.35    0.75 
  -2   2  10    8.03    0.60 
  -2   2  10    8.61    0.63 
   2  -2 -10    7.44    0.84 
   2  -2 -10    6.38    0.64 
   2  -2 -10    6.71    0.74 
  -2   2   9  121.97    2.35 
  -2   2   9  123.77    2.77 
  -2   2   9  131.67    2.34 
  -2   2   9  151.33    2.51 
   2  -2  -9  130.78    3.21 
   2  -2  -9  114.73    2.43 
   2  -2  -9  109.99    2.76 
  -2   2   8    4.59    0.44 
  -2   2   8    4.63    0.53 
  -2   2   8    5.39    0.48 
   2  -2  -8    4.60    0.62 
   2  -2  -8    3.96    0.44 
   2  -2  -8    6.28    0.50 
   2  -2  -8    4.59    0.60 
  -2   2   7  147.26    2.36 
  -2   2   7  146.45    2.26 
  -2   2   7  150.88    2.67 
  -2   2   7  188.84    2.71 
   2  -2  -7  166.41    3.35 
   2  -2  -7  150.70    2.41 
   2  -2  -7  170.37    2.57 
   2  -2  -7  135.75    2.94 
  -2   2   6   16.96    1.02 
  -2   2   6   14.87    0.66 
  -2   2   6   15.69    0.65 
  -2   2   6   18.04    0.70 
  -2   2   6   15.16    0.75 
  -2   2   6   19.67    0.82 
   2  -2  -6   17.86    1.05 
   2  -2  -6   16.70    0.69 
   2  -2  -6   17.36    0.77 
   2  -2  -6   12.43    0.87 
  -2   2   5   83.30    2.16 
  -2   2   5   69.78    1.27 
  -2   2   5   85.65    1.44 
  -2   2   5   89.09    1.51 
  -2   2   5   77.22    1.53 
  -2   2   5   87.65    1.76 
   2  -2  -5   89.16    1.78 
   2  -2  -5   61.06    1.86 
  -2   2   4   54.78    1.68 
  -2   2   4   49.33    0.93 
  -2   2   4   59.28    1.05 
  -2   2   4   57.23    1.71 
  -2   2   4   58.54    1.16 
  -2   2   4   48.08    1.03 
  -2   2   4   51.87    1.08 
  -2   2   4   58.25    1.43 
   2  -2  -4   59.70    1.45 
   2  -2  -4   39.79    1.46 
  -2   2   3  189.61    3.16 
  -2   2   3  177.54    2.00 
  -2   2   3  205.84    2.32 
  -2   2   3  194.11    3.18 
  -2   2   3  187.89    2.30 
  -2   2   3  165.69    1.84 
  -2   2   3  191.29    2.12 
  -2   2   3  189.03    2.75 
   2  -2  -3  199.23    2.35 
   2  -2  -3  190.40    2.77 
   2  -2  -3  134.66    2.67 
  -2   2   2  276.98    3.85 
  -2   2   2  254.91    3.32 
  -2   2   2  284.07    3.88 
  -2   2   2  257.56    2.88 
  -2   2   2  269.94    3.46 
   2  -2  -2  287.36    3.18 
   2  -2  -2  295.99    3.11 
   2  -2  -2  248.47    3.31 
   2  -2  -2  195.42    3.19 
  -2   2   1   88.01    2.06 
  -2   2   1   72.76    1.16 
  -2   2   1   83.60    1.98 
  -2   2   1   76.67    1.48 
  -2   2   1   83.91    1.88 
   2  -2  -1   92.03    1.32 
   2  -2  -1   87.71    1.58 
   2  -2  -1   77.14    1.80 
   2  -2  -1   62.30    1.70 
  -2   2   0  209.56    3.30 
  -2   2   0  172.90    2.16 
  -2   2   0  212.92    3.30 
  -2   2   0  179.63    2.55 
  -2   2   0  196.92    3.08 
   2  -2   0  222.59    2.49 
   2  -2   0  211.23    2.78 
   2  -2   0  186.69    3.00 
   2  -2   0  161.58    2.75 
  -2   2  -1    7.80    0.65 
  -2   2  -1    6.19    0.42 
  -2   2  -1    7.89    0.65 
  -2   2  -1    6.42    0.51 
   2  -2   1    7.51    0.47 
   2  -2   1    6.13    0.49 
   2  -2   1    6.92    0.30 
   2  -2   1    7.86    0.32 
   2  -2   1    8.29    0.65 
   2  -2   1    7.14    0.57 
  -2   2  -2  343.74    4.54 
  -2   2  -2  258.15    3.23 
  -2   2  -2  344.80    4.52 
  -2   2  -2  276.70    3.69 
   2  -2   2  322.46    3.66 
   2  -2   2  315.68    3.96 
   2  -2   2  284.36    2.95 
   2  -2   2  328.47    3.15 
   2  -2   2  278.05    4.02 
   2  -2   2  303.68    3.79 
  -2   2  -3   55.55    1.77 
  -2   2  -3   42.66    1.32 
  -2   2  -3   57.15    1.78 
  -2   2  -3   45.22    1.49 
   2  -2   3   52.07    1.46 
   2  -2   3   51.12    1.59 
   2  -2   3   47.00    1.16 
   2  -2   3   45.59    1.61 
   2  -2   3   52.06    1.41 
  -2   2  -4   86.62    2.31 
  -2   2  -4   70.53    1.85 
  -2   2  -4   89.26    2.33 
  -2   2  -4   71.54    2.00 
   2  -2   4   74.40    1.65 
   2  -2   4   72.53    2.12 
   2  -2   4   88.54    1.82 
  -2   2  -5  194.38    3.67 
  -2   2  -5  157.44    3.01 
  -2   2  -5  193.53    3.64 
  -2   2  -5  160.60    3.22 
   2  -2   5  167.20    2.79 
   2  -2   5  160.43    3.33 
   2  -2   5  204.69    2.82 
  -2   2  -6   79.95    2.25 
  -2   2  -6   97.21    2.65 
  -2   2  -6   81.95    2.39 
  -2   2  -6  101.30    1.84 
   2  -2   6   85.63    2.11 
   2  -2   6   84.25    2.48 
  -2   2  -7  199.24    4.04 
  -2   2  -7  187.99    3.72 
  -2   2  -7  204.74    4.08 
  -2   2  -7  178.96    3.77 
  -2   2  -7  229.84    2.83 
   2  -2   7    0.08    0.11 
   2  -2   7  174.95    3.75 
  -2   2  -8    3.24    0.63 
  -2   2  -8    4.04    0.62 
  -2   2  -8    3.71    0.62 
  -2   2  -8    4.88    0.38 
   2  -2   8    4.33    0.59 
   2  -2   8    3.21    0.60 
  -2   2  -9   84.06    2.81 
  -2   2  -9   81.29    2.68 
  -2   2  -9   94.87    1.46 
   2  -2   9   80.79    2.49 
   2  -2   9   74.81    2.61 
  -2   2 -10   -0.09    0.35 
  -2   2 -10    0.33    0.36 
  -2   2 -10    0.37    0.37 
   2  -2  10    0.90    0.41 
   2  -2  10    0.16    0.36 
  -2   2 -11   68.07    2.75 
  -2   2 -11   65.70    2.65 
  -2   2 -11   59.84    2.57 
   2  -2  11   68.27    2.55 
   2  -2  11   59.97    2.51 
  -2   2 -12   17.21    1.48 
  -2   2 -12   18.60    1.50 
  -2   2 -12   17.21    1.46 
   2  -2  12   18.26    1.41 
   2  -2  12   15.55    1.35 
  -2   2 -13   32.25    2.07 
  -2   2 -13   34.46    2.10 
  -2   2 -13   34.22    2.13 
   2  -2  13   34.85    2.02 
   2  -2  13   32.68    2.00 
  -2   2 -14   13.53    1.43 
  -2   2 -14   12.50    1.37 
  -2   2 -14   14.91    1.48 
   2  -2  14   13.51    1.35 
   2  -2  14   13.36    1.36 
  -2   2 -15    2.63    0.78 
  -2   2 -15    3.04    0.81 
  -2   2 -15    3.26    0.81 
   2  -2  15    3.40    0.80 
   2  -2  15    3.15    0.78 
  -2   2 -16   23.14    1.98 
  -2   2 -16   28.96    2.20 
   2  -2  16   26.73    2.03 
   2  -2  16   25.15    1.95 
  -2   2 -17    1.27    0.70 
  -2   2 -17    1.86    0.76 
   2  -2  17    1.76    0.74 
   2  -2  17    1.19    0.66 
  -2   1  19   17.64    1.78 
   2  -1 -19   15.83    1.70 
   2  -1 -19   16.52    1.64 
  -2   1  18   13.78    1.52 
   2  -1 -18    9.69    1.31 
   2  -1 -18   13.05    1.42 
  -2   1  17   44.07    2.53 
   2  -1 -17   36.79    2.35 
   2  -1 -17   38.34    2.26 
  -2   1  16    1.30    0.58 
   2  -1 -16    1.24    0.57 
   2  -1 -16    1.14    0.53 
  -2   1  15   41.86    2.26 
  -2   1  15   41.67    1.77 
   2  -1 -15   34.93    2.11 
   2  -1 -15   42.50    2.17 
   2  -1 -15   44.96    1.86 
  -2   1  14    0.10    0.38 
  -2   1  14    0.34    0.33 
   2  -1 -14    0.09    0.38 
   2  -1 -14   -0.17    0.29 
   2  -1 -14    0.47    0.33 
  -2   1  13   58.66    2.43 
  -2   1  13   57.54    1.93 
   2  -1 -13   53.16    2.37 
   2  -1 -13   54.51    2.23 
   2  -1 -13   61.07    2.09 
  -2   1  12   44.37    2.01 
  -2   1  12   40.97    1.57 
   2  -1 -12   38.82    1.95 
   2  -1 -12   40.71    1.83 
   2  -1 -12   44.11    1.74 
  -2   1  11   49.05    2.01 
  -2   1  11   46.76    1.60 
   2  -1 -11   43.73    1.97 
   2  -1 -11   45.13    1.82 
   2  -1 -11   46.74    1.75 
  -2   1  10   73.57    2.32 
  -2   1  10   69.96    1.88 
   2  -1 -10   68.47    2.35 
   2  -1 -10   63.53    2.04 
  -2   1   9   21.58    1.08 
  -2   1   9   17.35    1.07 
  -2   1   9   19.43    0.95 
   2  -1  -9   19.82    1.22 
   2  -1  -9   17.75    1.02 
   2  -1  -9   19.09    1.07 
  -2   1   8  257.32    3.65 
  -2   1   8  243.46    3.85 
  -2   1   8  260.34    3.55 
  -2   1   8  292.74    3.78 
   2  -1  -8  258.38    4.26 
   2  -1  -8  235.16    3.59 
   2  -1  -8  228.91    3.73 
  -2   1   7    4.65    0.46 
  -2   1   7    5.37    0.54 
  -2   1   7    6.76    0.54 
   2  -1  -7    5.96    0.63 
   2  -1  -7    4.56    0.46 
   2  -1  -7    5.39    0.48 
   2  -1  -7    5.10    0.55 
  -2   1   6  212.04    2.95 
  -2   1   6  217.25    2.95 
  -2   1   6  200.28    3.00 
  -2   1   6  253.73    3.27 
   2  -1  -6  230.77    3.64 
   2  -1  -6  211.54    2.97 
   2  -1  -6  229.53    3.11 
   2  -1  -6  184.29    3.16 
  -2   1   5   28.18    0.93 
  -2   1   5   29.19    0.95 
  -2   1   5   24.77    0.91 
  -2   1   5   33.37    1.08 
   2  -1  -5   32.10    1.24 
   2  -1  -5   28.55    0.94 
   2  -1  -5   30.25    1.03 
   2  -1  -5   24.63    1.09 
  -2   1   4  176.95    2.87 
  -2   1   4  164.21    2.19 
  -2   1   4  174.12    2.30 
  -2   1   4  178.93    2.41 
  -2   1   4  133.35    1.98 
  -2   1   4  186.65    2.65 
   2  -1  -4  138.15    2.02 
   2  -1  -4  170.33    2.53 
   2  -1  -4  132.15    2.52 
  -2   1   3   76.39    1.75 
  -2   1   3   73.73    1.29 
  -2   1   3   77.37    1.34 
  -2   1   3   76.63    1.74 
  -2   1   3   77.93    1.45 
  -2   1   3   73.35    1.22 
  -2   1   3   79.35    1.66 
   2  -1  -3   56.41    1.07 
   2  -1  -3   52.78    1.52 
  -2   1   2  241.81    3.21 
  -2   1   2  244.97    2.66 
  -2   1   2  243.09    3.19 
  -2   1   2  242.89    2.83 
  -2   1   2  244.57    3.02 
  -2   1   2  244.08    3.11 
   2  -1  -2  253.92    2.65 
   2  -1  -2  247.81    2.82 
   2  -1  -2  172.07    2.33 
   2  -1  -2  234.24    3.06 
   2  -1  -2  169.04    2.75 
  -2   1   1  228.71    3.07 
  -2   1   1  221.34    2.49 
  -2   1   1  233.11    3.07 
  -2   1   1  212.02    2.64 
  -2   1   1  218.04    2.96 
   2  -1  -1  240.66    2.56 
   2  -1  -1  231.56    2.75 
   2  -1  -1  205.02    2.88 
   2  -1  -1  166.33    2.67 
  -2   1   0   24.14    0.94 
  -2   1   0   23.13    0.72 
  -2   1   0   24.84    0.93 
  -2   1   0   22.88    0.83 
  -2   1   0   23.89    0.96 
   2  -1   0   26.74    0.77 
   2  -1   0   21.52    0.90 
   2  -1   0   19.53    0.86 
  -2   1  -1  166.69    2.63 
  -2   1  -1  139.49    2.05 
  -2   1  -1  156.59    2.50 
  -2   1  -1  136.60    2.23 
  -2   1  -1  125.21    1.50 
   2  -1   1  158.07    2.18 
   2  -1   1  153.88    2.37 
   2  -1   1  159.37    1.85 
   2  -1   1  137.84    2.44 
   2  -1   1  124.86    2.19 
  -2   1  -2    1.30    0.29 
  -2   1  -2    1.24    0.26 
  -2   1  -2    1.45    0.30 
  -2   1  -2    1.32    0.28 
  -2   1  -2    1.65    0.34 
   2  -1   2    1.81    0.27 
   2  -1   2    1.51    0.29 
   2  -1   2    1.37    0.20 
   2  -1   2    1.38    0.19 
   2  -1   2    1.20    0.29 
   2  -1   2    1.45    0.28 
  -2   1  -3  450.60    5.03 
  -2   1  -3  385.57    4.30 
  -2   1  -3  464.18    5.07 
  -2   1  -3  394.60    4.60 
   2  -1   3  437.53    4.60 
   2  -1   3  426.13    4.78 
   2  -1   3  398.20    3.92 
   2  -1   3  380.85    4.66 
   2  -1   3  429.46    4.41 
  -2   1  -4    3.64    0.47 
  -2   1  -4    2.53    0.38 
  -2   1  -4    4.86    0.53 
  -2   1  -4    3.00    0.43 
  -2   1  -4    2.50    0.31 
   2  -1   4    2.91    0.43 
   2  -1   4    3.22    0.36 
   2  -1   4    3.22    0.45 
  -2   1  -5  308.60    4.38 
  -2   1  -5  263.20    3.86 
  -2   1  -5  317.17    4.41 
  -2   1  -5  267.70    4.05 
  -2   1  -5  313.62    3.52 
   2  -1   5  284.35    3.67 
   2  -1   5  266.65    4.07 
  -2   1  -6   56.34    1.87 
  -2   1  -6   56.12    1.81 
  -2   1  -6   58.48    1.89 
  -2   1  -6   56.81    1.89 
  -2   1  -6   63.70    1.40 
   2  -1   6   54.87    1.85 
  -2   1  -7   80.21    2.36 
  -2   1  -7   80.96    2.32 
  -2   1  -7   76.52    2.31 
  -2   1  -7   93.38    1.69 
   2  -1   7   81.10    2.15 
   2  -1   7   78.98    2.31 
  -2   1  -8  124.09    3.10 
  -2   1  -8  124.11    3.05 
  -2   1  -8  123.48    3.11 
  -2   1  -8  146.20    2.13 
   2  -1   8  126.26    2.88 
   2  -1   8  119.27    2.98 
  -2   1  -9   28.78    1.56 
  -2   1  -9   31.79    1.62 
  -2   1  -9   30.12    1.60 
  -2   1  -9   33.63    0.93 
   2  -1   9   31.92    1.53 
   2  -1   9   30.91    1.57 
  -2   1 -10   73.62    2.61 
  -2   1 -10   72.60    2.57 
  -2   1 -10   68.93    2.53 
  -2   1 -10   80.99    1.40 
   2  -1  10   74.02    2.46 
   2  -1  10   69.44    2.44 
  -2   1 -11    0.72    0.44 
  -2   1 -11    1.05    0.45 
  -2   1 -11    0.86    0.42 
   2  -1  11    0.85    0.42 
   2  -1  11    1.12    0.46 
  -2   1 -12   67.08    2.72 
  -2   1 -12   72.64    2.82 
  -2   1 -12   66.05    2.70 
   2  -1  12   71.02    2.67 
   2  -1  12   66.99    2.58 
  -2   1 -13    3.80    0.77 
  -2   1 -13    3.89    0.77 
  -2   1 -13    4.66    0.82 
   2  -1  13    4.36    0.77 
   2  -1  13    2.97    0.65 
  -2   1 -14   36.87    2.21 
  -2   1 -14   38.89    2.26 
  -2   1 -14   37.54    2.22 
   2  -1  14   36.28    2.11 
   2  -1  14   38.92    2.11 
  -2   1 -15    6.56    1.04 
  -2   1 -15    8.00    1.13 
  -2   1 -15    7.87    1.11 
   2  -1  15    7.67    1.08 
   2  -1  15    8.67    1.09 
  -2   1 -16   11.01    1.36 
  -2   1 -16   12.63    1.44 
  -2   1 -16   12.26    1.42 
   2  -1  16   11.67    1.36 
   2  -1  16   11.96    1.30 
  -2   1 -17    9.63    1.34 
  -2   1 -17   12.82    1.52 
   2  -1  17   11.26    1.39 
   2  -1  17   11.74    1.36 
  -2   1 -18    2.08    0.81 
  -2   1 -18    1.91    0.79 
   2  -1  18    1.92    0.75 
   2  -1  18    1.91    0.76 
  -2   0  19   17.07    1.79 
   2   0 -19   16.35    1.74 
   2   0 -19   18.08    1.77 
  -2   0  18   16.92    1.71 
   2   0 -18   14.50    1.58 
   2   0 -18   15.43    1.58 
  -2   0  17   17.27    1.66 
   2   0 -17   15.08    1.54 
   2   0 -17   17.35    1.60 
  -2   0  16   37.86    2.30 
  -2   0  16   36.84    1.88 
   2   0 -16   28.42    1.99 
   2   0 -16   37.72    2.22 
  -2   0  15    4.82    0.88 
  -2   0  15    4.01    0.67 
   2   0 -15    3.57    0.76 
   2   0 -15    3.61    0.74 
  -2   0  14   53.08    2.48 
  -2   0  14   51.60    2.06 
   2   0 -14   45.71    2.29 
   2   0 -14   48.81    2.30 
   2   0 -14   54.69    1.84 
  -2   0  13   -0.11    0.35 
  -2   0  13    0.14    0.32 
   2   0 -13   -0.20    0.32 
   2   0 -13    0.40    0.37 
   2   0 -13    0.15    0.26 
  -2   0  12  122.08    3.44 
  -2   0  12  106.28    2.75 
   2   0 -12  102.49    3.14 
   2   0 -12  111.33    3.17 
   2   0 -12  118.98    2.66 
  -2   0  11    6.14    0.79 
  -2   0  11    3.98    0.56 
   2   0 -11    4.63    0.69 
   2   0 -11    4.55    0.66 
   2   0 -11    5.57    0.60 
  -2   0  10   90.98    2.67 
  -2   0  10   82.33    2.22 
   2   0 -10   76.55    2.45 
   2   0 -10   82.08    2.45 
   2   0 -10   91.21    2.22 
  -2   0   9   54.67    1.95 
  -2   0   9   49.63    1.64 
   2   0  -9   49.03    1.85 
   2   0  -9   50.91    1.82 
   2   0  -9   54.10    1.94 
   2   0  -9   52.70    1.64 
  -2   0   8   72.59    2.11 
  -2   0   8   69.38    1.87 
   2   0  -8   68.96    2.08 
   2   0  -8   69.09    2.00 
   2   0  -8   71.84    2.10 
   2   0  -8   71.08    1.87 
  -2   0   7  130.54    2.57 
  -2   0   7  123.29    2.42 
   2   0  -7  122.90    2.64 
   2   0  -7  119.42    2.50 
   2   0  -7  121.25    2.58 
  -2   0   6    1.24    0.28 
  -2   0   6    1.30    0.28 
   2   0  -6    1.31    0.31 
   2   0  -6    1.08    0.28 
   2   0  -6    1.27    0.31 
   2   0  -6   -0.02    0.05 
   2   0  -6    0.93    0.27 
  -2   0   5  169.60    2.65 
  -2   0   5  179.47    2.74 
   2   0  -5  164.70    2.72 
   2   0  -5  155.67    2.54 
   2   0  -5  138.68    2.39 
   2   0  -5  133.96    2.34 
   2   0  -5  142.60    2.51 
  -2   0   4    3.02    0.34 
  -2   0   4    3.27    0.37 
   2   0  -4    2.56    0.34 
   2   0  -4    1.74    0.27 
   2   0  -4    2.47    0.33 
   2   0  -4    1.84    0.31 
  -2   0   3  294.94    3.40 
  -2   0   3  288.01    3.26 
  -2   0   3  292.44    3.24 
  -2   0   3  284.12    3.31 
  -2   0   3  305.24    3.54 
   2   0  -3  216.66    2.82 
   2   0  -3  244.30    2.84 
   2   0  -3  273.92    3.35 
   2   0  -3  218.91    3.06 
  -2   0   2   47.64    1.16 
  -2   0   2   46.05    1.10 
  -2   0   2   45.80    1.15 
  -2   0   2   48.36    1.01 
  -2   0   2   45.70    1.23 
   2   0  -2   48.83    1.13 
   2   0  -2   25.82    0.86 
   2   0  -2   41.81    0.94 
   2   0  -2   43.09    1.20 
   2   0  -2   35.65    1.14 
  -2   0   1  291.65    3.15 
  -2   0   1  277.86    3.04 
  -2   0   1  299.76    3.17 
  -2   0   1  280.15    3.20 
  -2   0   1  309.56    2.92 
  -2   0   1  286.90    3.37 
   2   0  -1  307.71    3.18 
   2   0  -1  292.52    3.24 
   2   0  -1  277.34    4.23 
   2   0  -1  263.79    3.23 
   2   0  -1  220.81    2.97 
  -2   0   0   22.44    0.75 
  -2   0   0   22.35    0.75 
  -2   0   0   23.94    0.75 
  -2   0   0   22.16    0.81 
  -2   0   0   25.47    0.63 
  -2   0   0   22.23    0.87 
   2   0   0   10.07    0.50 
   2   0   0   25.35    0.77 
   2   0   0   24.07    0.84 
   2   0   0   23.92    0.61 
   2   0   0   21.76    0.86 
   2   0   0   17.39    0.77 
  -2   0  -1   19.59    0.73 
  -2   0  -1   18.45    0.71 
  -2   0  -1   19.59    0.71 
  -2   0  -1   17.93    0.76 
  -2   0  -1   20.19    0.59 
  -2   0  -1   20.00    0.84 
   2   0   1   10.40    0.53 
   2   0   1   20.51    0.81 
   2   0   1   20.46    0.60 
   2   0   1   17.09    0.78 
   2   0   1   15.31    0.71 
  -2   0  -2   87.43    1.67 
  -2   0  -2   83.26    1.65 
  -2   0  -2   85.56    1.60 
  -2   0  -2   81.74    1.73 
  -2   0  -2   86.20    1.40 
  -2   0  -2   86.73    1.83 
  -2   0  -2   74.63    1.57 
   2   0   2   89.41    1.71 
   2   0   2   86.29    1.77 
   2   0   2   89.21    1.45 
   2   0   2   78.33    1.73 
  -2   0  -3   18.18    0.80 
  -2   0  -3   18.63    0.83 
  -2   0  -3   19.21    0.80 
  -2   0  -3   19.63    0.89 
  -2   0  -3   19.28    0.89 
   2   0   3   20.66    0.87 
   2   0   3   20.44    0.91 
   2   0   3   20.00    0.74 
   2   0   3   19.96    0.90 
  -2   0  -4   80.17    1.82 
  -2   0  -4   80.17    1.85 
  -2   0  -4   81.39    1.80 
  -2   0  -4   81.71    1.94 
  -2   0  -4   89.33    2.01 
  -2   0  -4   81.60    1.63 
   2   0   4   90.49    2.04 
   2   0   4   51.58    1.31 
   2   0   4   80.25    1.90 
  -2   0  -5   31.55    1.21 
  -2   0  -5   31.67    1.24 
  -2   0  -5   32.04    1.20 
  -2   0  -5   32.97    1.29 
  -2   0  -5   32.39    1.01 
   2   0   5   34.42    1.33 
   2   0   5   32.38    1.14 
   2   0   5   31.70    1.24 
  -2   0  -6  156.98    2.95 
  -2   0  -6  168.74    3.12 
  -2   0  -6  160.55    3.09 
  -2   0  -6  170.00    2.45 
   2   0   6  170.53    2.92 
   2   0   6  156.70    2.93 
  -2   0  -7   30.66    1.36 
  -2   0  -7   33.56    1.44 
  -2   0  -7   32.80    1.44 
  -2   0  -7   35.61    1.07 
   2   0   7   32.59    1.34 
   2   0   7   32.31    1.37 
  -2   0  -8  167.78    3.43 
  -2   0  -8  174.57    3.54 
  -2   0  -8  167.11    3.48 
  -2   0  -8  187.60    2.61 
   2   0   8  177.85    3.40 
   2   0   8  176.13    3.39 
  -2   0  -9   71.15    2.32 
  -2   0  -9   79.73    2.49 
  -2   0  -9   80.63    2.51 
  -2   0  -9   82.81    1.66 
   2   0   9   79.77    2.38 
   2   0   9   77.52    2.31 
  -2   0 -10   31.94    1.65 
  -2   0 -10   34.05    1.71 
  -2   0 -10   29.90    1.60 
  -2   0 -10   36.77    1.09 
   2   0  10   36.23    1.70 
   2   0  10   32.78    1.57 
  -2   0 -11   94.46    2.97 
  -2   0 -11   96.05    3.01 
  -2   0 -11   96.43    3.01 
  -2   0 -11  102.94    1.85 
   2   0  11   99.48    2.97 
   2   0  11   95.07    2.77 
  -2   0 -12    4.06    0.72 
  -2   0 -12    5.45    0.81 
  -2   0 -12    5.19    0.79 
   2   0  12    6.73    0.86 
   2   0  12    4.28    0.68 
  -2   0 -13  104.88    3.43 
  -2   0 -13  117.67    3.66 
  -2   0 -13  116.65    3.62 
   2   0  13  112.83    3.48 
   2   0  13  111.64    3.24 
  -2   0 -14    0.41    0.45 
  -2   0 -14    0.01    0.42 
  -2   0 -14    0.89    0.48 
   2   0  14    0.12    0.40 
   2   0  14    0.40    0.42 
  -2   0 -15   33.37    2.12 
  -2   0 -15   40.35    2.34 
  -2   0 -15   40.08    2.30 
   2   0  15   35.21    2.14 
   2   0  15   42.43    2.15 
  -2   0 -16    6.69    1.08 
  -2   0 -16    7.06    1.10 
  -2   0 -16    6.51    1.03 
   2   0  16    6.41    1.03 
   2   0  16    7.28    1.00 
  -2   0 -17   20.68    1.84 
  -2   0 -17   22.07    1.90 
  -2   0 -17   20.14    1.79 
   2   0  17   21.32    1.83 
   2   0  17   22.86    1.72 
  -2   0 -18   12.55    1.53 
  -2   0 -18   12.38    1.52 
   2   0  18   11.29    1.43 
   2   0  18   12.65    1.36 
  -2   0 -19    5.97    1.16 
  -2   0 -19    7.90    1.31 
   2   0  19    7.23    1.25 
  -2  -1  18   27.85    2.21 
   2   1 -18   23.94    2.01 
   2   1 -18   25.93    2.08 
  -2  -1  17    8.87    1.27 
  -2  -1  17    9.32    1.11 
   2   1 -17    6.83    1.10 
   2   1 -17    8.69    1.20 
  -2  -1  16   24.78    1.93 
  -2  -1  16   21.34    1.55 
   2   1 -16   20.95    1.73 
   2   1 -16   23.29    1.82 
  -2  -1  15   24.00    1.82 
  -2  -1  15   21.43    1.50 
   2   1 -15   19.00    1.59 
   2   1 -15   22.10    1.70 
  -2  -1  14   15.61    1.42 
  -2  -1  14   13.76    1.17 
   2   1 -14   12.79    1.25 
   2   1 -14   15.65    1.38 
  -2  -1  13   52.74    2.43 
  -2  -1  13   46.92    2.03 
   2   1 -13   44.51    2.17 
   2   1 -13   50.06    2.32 
  -2  -1  12    0.75    0.44 
  -2  -1  12    0.23    0.34 
   2   1 -12    0.20    0.34 
   2   1 -12   -0.27    0.28 
   2   1 -12    0.42    0.26 
  -2  -1  11  102.39    3.08 
  -2  -1  11   87.69    2.57 
   2   1 -11   89.08    2.79 
   2   1 -11   93.26    2.89 
   2   1 -11   95.05    2.97 
   2   1 -11  106.79    2.26 
  -2  -1  10    5.15    0.64 
   2   1 -10    6.50    0.75 
   2   1 -10    4.86    0.68 
   2   1 -10    6.72    0.80 
   2   1 -10    6.52    0.57 
  -2  -1   9   61.99    1.99 
   2   1  -9   63.00    2.10 
   2   1  -9   67.80    2.22 
   2   1  -9   67.58    2.26 
   2   1  -9   72.00    1.78 
  -2  -1   8   38.68    1.50 
   2   1  -8   37.52    1.52 
   2   1  -8   39.48    1.61 
   2   1  -8   41.90    1.68 
   2   1  -8   42.29    1.33 
  -2  -1   7  133.01    2.71 
   2   1  -7  124.71    2.63 
   2   1  -7  136.56    2.87 
   2   1  -7  146.28    3.00 
   2   1  -7  142.04    2.46 
  -2  -1   6   75.31    1.97 
  -2  -1   6   69.01    1.84 
   2   1  -6   62.94    1.71 
   2   1  -6   72.51    1.95 
   2   1  -6   69.46    1.91 
   2   1  -6   70.76    1.66 
  -2  -1   5   92.64    2.08 
  -2  -1   5   83.23    1.94 
  -2  -1   5   91.39    2.04 
   2   1  -5   48.23    1.37 
   2   1  -5   87.60    2.03 
   2   1  -5   88.57    2.03 
   2   1  -5   83.00    1.94 
   2   1  -5   59.59    1.49 
  -2  -1   4  111.63    2.17 
  -2  -1   4  108.14    2.14 
   2   1  -4   93.34    1.77 
   2   1  -4  101.21    2.06 
   2   1  -4   99.14    2.01 
   2   1  -4   96.17    2.01 
   2   1  -4   87.85    1.79 
  -2  -1   3    0.60    0.23 
  -2  -1   3    0.62    0.21 
  -2  -1   3    0.91    0.25 
   2   1  -3    0.47    0.17 
   2   1  -3    0.91    0.23 
   2   1  -3    0.56    0.21 
   2   1  -3    0.39    0.20 
  -2  -1   2  567.18    5.28 
  -2  -1   2  606.53    8.46 
  -2  -1   2  548.59    8.96 
  -2  -1   2  597.87    9.53 
   2   1  -2  556.94    7.53 
   2   1  -2  538.28    7.80 
   2   1  -2  532.52    5.16 
   2   1  -2  460.52    7.10 
  -2  -1   1   33.41    0.74 
  -2  -1   1   34.35    0.76 
  -2  -1   1   33.07    1.00 
  -2  -1   1   30.88    0.99 
  -2  -1   1   32.01    1.03 
  -2  -1   1   26.04    0.92 
   2   1  -1   36.11    1.04 
   2   1  -1   32.87    1.02 
   2   1  -1   -0.02    0.04 
   2   1  -1   28.68    0.97 
  -2  -1   0  268.78    3.12 
  -2  -1   0  258.70    3.08 
  -2  -1   0  272.90    4.04 
  -2  -1   0  255.44    3.12 
  -2  -1   0  296.57    3.06 
  -2  -1   0  262.44    3.17 
  -2  -1   0  195.30    2.68 
   2   1   0  277.05    3.41 
   2   1   0  280.97    3.19 
   2   1   0  266.42    3.17 
   2   1   0  238.39    3.02 
  -2  -1  -1   83.86    1.25 
  -2  -1  -1   84.87    1.22 
  -2  -1  -1   82.11    1.66 
  -2  -1  -1   92.56    1.54 
  -2  -1  -1   84.76    1.68 
  -2  -1  -1   65.83    1.47 
   2   1   1   92.92    1.30 
   2   1   1   95.56    1.28 
   2   1   1   87.26    1.70 
   2   1   1   74.61    1.57 
  -2  -1  -2    6.67    0.38 
  -2  -1  -2    7.01    0.50 
  -2  -1  -2    6.15    0.35 
  -2  -1  -2    6.88    0.51 
  -2  -1  -2    7.06    0.50 
  -2  -1  -2    5.48    0.44 
   2   1   2    7.41    0.51 
   2   1   2    7.69    0.38 
   2   1   2    7.20    0.51 
   2   1   2    6.25    0.47 
  -2  -1  -3   60.04    1.26 
  -2  -1  -3   70.32    1.62 
  -2  -1  -3   69.88    1.64 
  -2  -1  -3   74.42    1.63 
  -2  -1  -3   62.40    1.44 
   2   1   3   77.14    1.70 
   2   1   3   72.50    1.35 
   2   1   3   75.60    1.70 
   2   1   3   73.59    1.52 
   2   1   3   69.23    1.57 
  -2  -1  -4   80.00    1.63 
  -2  -1  -4   93.81    2.00 
  -2  -1  -4   93.76    2.01 
  -2  -1  -4  100.68    1.97 
  -2  -1  -4   84.00    1.71 
   2   1   4  105.53    2.14 
   2   1   4   97.73    1.90 
   2   1   4   96.49    1.93 
  -2  -1  -5  152.08    2.52 
  -2  -1  -5  180.46    3.00 
  -2  -1  -5  177.53    2.98 
  -2  -1  -5  195.12    2.94 
   2   1   5  199.69    3.17 
   2   1   5  186.98    2.90 
   2   1   5  190.12    2.90 
  -2  -1  -6    4.12    0.46 
  -2  -1  -6    5.46    0.56 
  -2  -1  -6    5.43    0.56 
  -2  -1  -6    4.73    0.49 
  -2  -1  -6    4.36    0.41 
   2   1   6    5.56    0.58 
   2   1   6    4.77    0.51 
   2   1   6    4.39    0.47 
  -2  -1  -7  108.61    2.43 
  -2  -1  -7  126.21    2.77 
  -2  -1  -7  126.67    2.75 
  -2  -1  -7  123.67    2.20 
   2   1   7  137.73    2.79 
   2   1   7  134.26    2.60 
  -2  -1  -8   27.35    1.29 
  -2  -1  -8   32.41    1.47 
  -2  -1  -8   31.18    1.42 
  -2  -1  -8   34.84    1.16 
   2   1   8   33.97    1.45 
   2   1   8   34.66    1.36 
  -2  -1  -9  156.87    3.34 
  -2  -1  -9  185.61    3.76 
  -2  -1  -9  189.56    3.76 
  -2  -1  -9  186.09    2.84 
   2   1   9  189.78    3.71 
   2   1   9  190.67    3.41 
  -2  -1 -10   57.87    2.12 
  -2  -1 -10   68.92    2.37 
  -2  -1 -10   70.37    2.36 
  -2  -1 -10   69.23    1.70 
   2   1  10   73.23    2.39 
   2   1  10   72.23    2.15 
  -2  -1 -11   40.20    1.87 
  -2  -1 -11   46.66    2.05 
  -2  -1 -11   44.79    1.97 
  -2  -1 -11   44.21    1.37 
   2   1  11   48.98    2.06 
   2   1  11   44.64    1.76 
  -2  -1 -12   60.85    2.41 
  -2  -1 -12   69.87    2.63 
  -2  -1 -12   64.94    2.48 
  -2  -1 -12   69.78    1.74 
   2   1  12   67.27    2.54 
   2   1  12   68.45    2.27 
  -2  -1 -13   12.05    1.17 
  -2  -1 -13   14.01    1.25 
  -2  -1 -13   12.39    1.17 
  -2  -1 -13   13.68    0.78 
   2   1  13   14.77    1.28 
   2   1  13   14.39    1.12 
  -2  -1 -14  105.64    3.50 
  -2  -1 -14  109.23    3.59 
  -2  -1 -14  110.29    3.53 
   2   1  14  110.91    3.57 
   2   1  14  119.10    3.24 
  -2  -1 -15    0.82    0.53 
  -2  -1 -15    0.34    0.47 
  -2  -1 -15    0.84    0.49 
   2   1  15    0.32    0.45 
   2   1  15    0.70    0.45 
  -2  -1 -16   50.31    2.63 
  -2  -1 -16   57.48    2.83 
  -2  -1 -16   54.45    2.69 
   2   1  16   52.03    2.68 
   2   1  16   64.10    2.55 
  -2  -1 -17    3.74    0.87 
  -2  -1 -17    4.29    0.91 
  -2  -1 -17    4.82    0.92 
   2   1  17    5.01    0.96 
   2   1  17    4.34    0.79 
  -2  -1 -18   29.95    2.23 
  -2  -1 -18   30.10    2.24 
  -2  -1 -18   32.60    2.26 
   2   1  18   33.82    2.36 
  -2  -1 -19   13.26    1.60 
  -2  -1 -19   16.38    1.76 
   2   1  19   14.83    1.67 
  -2  -2  18   -0.08    0.56 
  -2  -2  18    0.04    0.49 
   2   2 -18    0.09    0.50 
   2   2 -18    0.29    0.53 
  -2  -2  17   21.69    1.94 
  -2  -2  17   20.74    1.69 
   2   2 -17   17.13    1.68 
   2   2 -17   17.37    1.71 
  -2  -2  16    8.75    1.23 
  -2  -2  16    6.30    0.96 
   2   2 -16    6.94    1.08 
   2   2 -16    6.47    1.06 
  -2  -2  15   41.75    2.44 
  -2  -2  15   37.91    2.10 
   2   2 -15   36.28    2.19 
   2   2 -15   40.86    2.38 
  -2  -2  14   24.51    1.81 
  -2  -2  14   20.69    1.51 
   2   2 -14   20.27    1.59 
   2   2 -14   21.85    1.68 
  -2  -2  13   11.11    1.19 
  -2  -2  13    9.00    0.99 
   2   2 -13    8.42    1.01 
   2   2 -13    9.94    1.12 
   2   2 -13   10.08    1.15 
  -2  -2  12   50.43    2.35 
  -2  -2  12   44.96    2.05 
   2   2 -12   46.32    2.14 
   2   2 -12   47.80    2.26 
   2   2 -12   49.37    2.33 
  -2  -2  11    9.40    0.94 
  -2  -2  11   11.02    0.65 
   2   2 -11    9.79    0.97 
   2   2 -11   10.23    1.04 
   2   2 -11    9.98    1.05 
  -2  -2  10   58.14    2.16 
  -2  -2  10   70.81    1.63 
   2   2 -10   57.04    2.14 
   2   2 -10   66.26    2.44 
   2   2 -10   64.67    2.43 
  -2  -2   9    0.14    0.30 
  -2  -2   9    0.17    0.20 
   2   2  -9    0.02    0.26 
   2   2  -9    0.00    0.28 
   2   2  -9    0.52    0.38 
  -2  -2   8  111.05    2.76 
  -2  -2   8  126.13    2.20 
   2   2  -8  106.47    2.61 
   2   2  -8  117.38    2.96 
   2   2  -8  129.14    3.12 
  -2  -2   7   19.73    1.11 
  -2  -2   7   22.62    0.90 
   2   2  -7   17.84    1.00 
   2   2  -7   19.78    1.15 
   2   2  -7   22.82    1.24 
  -2  -2   6   81.75    2.17 
  -2  -2   6   92.13    1.82 
   2   2  -6   49.44    1.53 
   2   2  -6   90.07    2.34 
   2   2  -6   98.80    2.45 
  -2  -2   5  261.53    3.91 
  -2  -2   5  226.58    3.58 
  -2  -2   5  238.26    3.08 
   2   2  -5  204.32    2.99 
   2   2  -5  249.57    3.83 
   2   2  -5  272.98    4.01 
  -2  -2   4   49.91    1.54 
  -2  -2   4   50.16    1.30 
   2   2  -4   43.69    1.19 
   2   2  -4   59.00    1.69 
   2   2  -4   61.57    1.71 
  -2  -2   3  271.28    3.67 
  -2  -2   3  262.11    3.58 
  -2  -2   3  224.49    2.95 
   2   2  -3  209.04    2.53 
   2   2  -3  238.86    3.41 
  -2  -2   2   30.08    0.73 
  -2  -2   2   40.43    1.27 
  -2  -2   2   45.39    1.34 
  -2  -2   2   39.79    1.26 
  -2  -2   2   33.29    1.05 
   2   2  -2   33.26    0.78 
   2   2  -2   43.07    1.28 
   2   2  -2   36.84    1.21 
  -2  -2   1  533.02    6.47 
  -2  -2   1  699.72   11.13 
  -2  -2   1  664.78   10.32 
  -2  -2   1  670.07   10.33 
  -2  -2   1  558.08    7.32 
   2   2  -1  645.72    8.20 
   2   2  -1  725.08    7.50 
   2   2  -1  744.96    8.43 
   2   2  -1  607.23    8.64 
  -2  -2   0   53.93    1.38 
  -2  -2   0   53.17    1.37 
  -2  -2   0   53.41    1.36 
  -2  -2   0   41.91    1.19 
   2   2   0   59.53    1.45 
   2   2   0   57.06    1.42 
   2   2   0   58.99    1.40 
   2   2   0   49.05    1.30 
  -2  -2  -1  330.02    3.78 
  -2  -2  -1  344.51    3.76 
  -2  -2  -1  242.96    3.13 
   2   2   1  370.35    4.01 
   2   2   1  348.23    3.86 
   2   2   1  362.28    3.89 
   2   2   1  310.48    3.57 
  -2  -2  -2    5.97    0.27 
  -2  -2  -2    6.69    0.51 
  -2  -2  -2    7.02    0.52 
  -2  -2  -2    7.62    0.51 
  -2  -2  -2    5.24    0.45 
   2   2   2    7.02    0.29 
   2   2   2    8.21    0.56 
   2   2   2    6.17    0.26 
   2   2   2    7.59    0.53 
   2   2   2    7.75    0.52 
   2   2   2    6.60    0.48 
  -2  -2  -3  383.03    4.93 
  -2  -2  -3  562.11    9.26 
  -2  -2  -3  560.76    5.43 
  -2  -2  -3  600.85    6.39 
  -2  -2  -3  433.98    6.14 
   2   2   3  644.42    8.42 
   2   2   3  602.35    8.12 
   2   2   3  567.44    6.67 
   2   2   3  579.52    7.47 
  -2  -2  -4  197.79    2.50 
  -2  -2  -4  286.03    3.72 
  -2  -2  -4  284.12    3.65 
  -2  -2  -4  320.39    3.60 
  -2  -2  -4  234.04    3.19 
   2   2   4  323.92    3.92 
   2   2   4  297.64    3.73 
   2   2   4  299.55    3.50 
  -2  -2  -5   58.30    1.41 
  -2  -2  -5   80.64    1.95 
  -2  -2  -5   82.32    1.92 
  -2  -2  -5   92.75    1.82 
  -2  -2  -5   65.26    1.62 
   2   2   5   92.59    2.04 
   2   2   5   87.09    1.99 
   2   2   5   85.24    1.75 
  -2  -2  -6  160.14    2.65 
  -2  -2  -6  215.46    3.46 
  -2  -2  -6  214.05    3.36 
  -2  -2  -6  236.57    3.16 
  -2  -2  -6  192.10    2.95 
   2   2   6  238.57    3.57 
   2   2   6  220.76    3.46 
   2   2   6  226.12    3.10 
  -2  -2  -7    8.31    0.65 
  -2  -2  -7   11.27    0.82 
  -2  -2  -7   11.57    0.80 
  -2  -2  -7   12.65    0.73 
  -2  -2  -7    0.00    0.07 
   2   2   7   12.27    0.84 
   2   2   7   12.02    0.84 
   2   2   7   12.47    0.72 
  -2  -2  -8  154.55    3.01 
  -2  -2  -8  202.46    3.69 
  -2  -2  -8  199.99    3.56 
  -2  -2  -8  214.51    3.22 
  -2  -2  -8  183.35    3.00 
   2   2   8  202.42    3.66 
   2   2   8  215.45    3.24 
  -2  -2  -9    0.28    0.29 
  -2  -2  -9    0.58    0.33 
  -2  -2  -9    0.82    0.34 
  -2  -2  -9    0.77    0.28 
   2   2   9    0.91    0.37 
   2   2   9    0.93    0.30 
  -2  -2 -10   89.23    2.56 
  -2  -2 -10  104.32    2.87 
  -2  -2 -10  105.15    2.79 
  -2  -2 -10  100.39    2.26 
   2   2  10  108.87    2.93 
   2   2  10  112.39    2.47 
  -2  -2 -11   10.96    0.97 
  -2  -2 -11   13.24    1.09 
  -2  -2 -11   14.39    1.09 
  -2  -2 -11   14.29    0.88 
   2   2  11   13.67    1.12 
   2   2  11   14.02    0.92 
  -2  -2 -12   61.56    2.36 
  -2  -2 -12   71.86    2.61 
  -2  -2 -12   72.51    2.53 
  -2  -2 -12   65.98    1.89 
   2   2  12   72.40    2.62 
   2   2  12   78.16    2.23 
  -2  -2 -13   41.48    2.04 
  -2  -2 -13   50.68    2.29 
  -2  -2 -13   46.85    2.12 
  -2  -2 -13   50.96    1.69 
   2   2  13   52.25    2.33 
   2   2  13   55.16    1.95 
  -2  -2 -14   58.98    2.55 
  -2  -2 -14   64.80    2.71 
  -2  -2 -14   63.80    2.59 
  -2  -2 -14   63.13    1.91 
   2   2  14   62.97    2.67 
   2   2  14   69.07    2.28 
  -2  -2 -15   61.16    2.72 
  -2  -2 -15   65.11    2.83 
  -2  -2 -15   63.84    2.70 
   2   2  15   64.80    2.83 
   2   2  15   72.32    2.42 
  -2  -2 -16    2.12    0.66 
  -2  -2 -16    2.16    0.66 
  -2  -2 -16    2.01    0.62 
   2   2  16    2.72    0.73 
   2   2  16    2.36    0.57 
  -2  -2 -17   39.08    2.38 
  -2  -2 -17   38.59    2.37 
  -2  -2 -17   41.24    2.36 
   2   2  17   41.88    2.48 
  -2  -2 -18    1.47    0.67 
  -2  -2 -18    2.12    0.73 
  -2  -2 -18    1.65    0.63 
   2   2  18    1.12    0.65 
  -2  -2 -19   16.88    1.74 
  -2  -2 -19   16.51    1.72 
  -2  -2 -19   17.52    1.69 
   2   2  19   17.29    1.78 
  -2  -3  17    1.97    0.81 
  -2  -3  17    1.38    0.65 
   2   3 -17    1.54    0.71 
   2   3 -17    1.33    0.69 
  -2  -3  16   36.44    2.46 
  -2  -3  16   34.27    2.19 
   2   3 -16   30.04    2.13 
   2   3 -16   32.24    2.29 
  -2  -3  15    1.08    0.63 
  -2  -3  15    0.84    0.53 
   2   3 -15    0.31    0.48 
   2   3 -15    0.36    0.47 
  -2  -3  14   31.72    2.12 
  -2  -3  14   26.26    1.80 
   2   3 -14   27.57    1.87 
   2   3 -14   28.61    1.99 
   2   3 -14   29.65    2.05 
  -2  -3  13   14.87    1.42 
  -2  -3  13   11.36    1.17 
   2   3 -13   14.26    1.30 
   2   3 -13   14.17    1.37 
   2   3 -13   15.00    1.43 
  -2  -3  12   36.39    1.97 
   2   3 -12   35.35    1.92 
   2   3 -12   39.92    2.16 
   2   3 -12   39.65    2.17 
  -2  -3  11   45.77    2.12 
   2   3 -11   48.63    2.14 
   2   3 -11   47.85    2.27 
   2   3 -11   53.04    2.40 
  -2  -3  10   43.32    1.99 
  -2  -3  10   49.39    1.20 
   2   3 -10   43.01    1.91 
   2   3 -10   49.87    2.22 
   2   3 -10   50.09    2.24 
  -2  -3   9  131.63    3.36 
  -2  -3   9  152.63    2.27 
   2   3  -9  134.64    3.22 
   2   3  -9  146.39    3.66 
   2   3  -9  165.14    3.90 
  -2  -3   8    1.21    0.42 
  -2  -3   8    1.60    0.28 
   2   3  -8    1.60    0.41 
   2   3  -8    1.57    0.45 
   2   3  -8    1.43    0.47 
  -2  -3   7  163.38    3.48 
  -2  -3   7  177.84    2.55 
   2   3  -7  159.36    3.12 
   2   3  -7  188.32    3.83 
   2   3  -7  207.06    4.02 
  -2  -3   6    7.16    0.72 
  -2  -3   6    7.87    0.53 
   2   3  -6    8.81    0.80 
   2   3  -6    9.67    0.84 
  -2  -3   5  112.90    2.65 
  -2  -3   5  113.74    2.02 
   2   3  -5  100.58    2.11 
   2   3  -5  130.22    2.88 
   2   3  -5  138.09    2.96 
  -2  -3   4    4.70    0.54 
  -2  -3   4    4.71    0.42 
   2   3  -4    4.50    0.42 
   2   3  -4    5.57    0.59 
   2   3  -4    5.77    0.61 
  -2  -3   3   72.43    1.93 
  -2  -3   3   54.11    1.66 
  -2  -3   3   57.74    1.43 
   2   3  -3   49.43    1.19 
   2   3  -3   76.86    1.99 
  -2  -3   2  200.43    3.19 
  -2  -3   2  217.91    2.52 
  -2  -3   2  159.09    2.81 
  -2  -3   2  158.72    2.49 
   2   3  -2  153.12    1.99 
   2   3  -2  218.71    3.35 
  -2  -3   1  156.40    1.77 
  -2  -3   1  141.85    2.55 
  -2  -3   1  155.67    1.85 
  -2  -3   1  130.68    2.42 
  -2  -3   1  127.45    2.39 
  -2  -3   1  102.86    1.99 
   2   3  -1  105.18    1.41 
   2   3  -1  143.05    2.56 
   2   3  -1  107.10    2.18 
  -2  -3   0  405.68    4.57 
  -2  -3   0  474.71    5.75 
  -2  -3   0  394.79    4.45 
  -2  -3   0  391.78    4.35 
  -2  -3   0  305.99    3.73 
   2   3   0  379.53    4.80 
   2   3   0  442.71    4.82 
   2   3   0  336.25    4.00 
  -2  -3  -1   73.42    1.73 
  -2  -3  -1   69.35    1.64 
  -2  -3  -1   70.51    1.61 
  -2  -3  -1   52.54    1.44 
   2   3   1   81.20    1.82 
   2   3   1   80.49    1.13 
   2   3   1   77.56    1.74 
   2   3   1   61.44    1.50 
  -2  -3  -2  235.45    3.27 
  -2  -3  -2  237.26    3.20 
  -2  -3  -2  242.80    3.08 
  -2  -3  -2  166.50    2.71 
   2   3   2  176.95    2.20 
   2   3   2  253.02    2.89 
   2   3   2  269.30    3.51 
   2   3   2  254.21    3.77 
   2   3   2  257.24    3.33 
   2   3   2  257.44    3.46 
   2   3   2  215.98    2.90 
  -2  -3  -3  106.36    1.50 
  -2  -3  -3  108.51    2.16 
  -2  -3  -3  105.56    2.05 
  -2  -3  -3  116.61    1.99 
  -2  -3  -3   77.14    1.83 
   2   3   3   73.38    1.18 
   2   3   3  118.08    2.17 
   2   3   3  112.30    2.23 
   2   3   3   99.15    1.83 
  -2  -3  -4  257.95    2.88 
  -2  -3  -4  285.21    3.79 
  -2  -3  -4  296.20    3.73 
  -2  -3  -4  320.13    3.54 
  -2  -3  -4  207.99    3.18 
   2   3   4  317.16    3.86 
   2   3   4  295.26    3.92 
   2   3   4  276.74    3.27 
  -2  -3  -5  110.29    1.92 
  -2  -3  -5  128.32    2.52 
  -2  -3  -5  125.73    2.37 
  -2  -3  -5  146.89    2.24 
  -2  -3  -5   97.17    2.16 
   2   3   5  147.45    2.58 
   2   3   5  130.35    2.58 
   2   3   5  128.61    2.09 
  -2  -3  -6   44.45    1.32 
  -2  -3  -6   54.53    1.68 
  -2  -3  -6   53.81    1.59 
  -2  -3  -6   62.31    1.43 
  -2  -3  -6   43.73    1.47 
   2   3   6   62.82    1.72 
   2   3   6   57.27    1.76 
   2   3   6   56.29    1.36 
  -2  -3  -7   53.12    1.57 
  -2  -3  -7   65.35    1.94 
  -2  -3  -7   61.70    1.78 
  -2  -3  -7   72.02    1.58 
  -2  -3  -7   51.68    1.63 
   2   3   7   72.86    1.94 
   2   3   7   66.87    2.00 
   2   3   7   66.90    1.53 
  -2  -3  -8   26.66    1.20 
  -2  -3  -8   32.40    1.43 
  -2  -3  -8   32.95    1.36 
  -2  -3  -8   37.04    1.17 
  -2  -3  -8   26.82    1.21 
   2   3   8   34.56    1.51 
   2   3   8   37.58    1.18 
  -2  -3  -9  114.10    2.68 
  -2  -3  -9  138.13    3.13 
  -2  -3  -9  140.49    2.99 
  -2  -3  -9  146.87    2.49 
  -2  -3  -9  118.59    2.62 
   2   3   9  151.96    2.55 
  -2  -3 -10    0.01    0.27 
  -2  -3 -10   -0.13    0.27 
  -2  -3 -10   -0.08    0.24 
  -2  -3 -10    0.28    0.23 
  -2  -3 -10    0.01    0.11 
   2   3  10    0.08    0.32 
   2   3  10    0.36    0.25 
  -2  -3 -11   50.72    2.00 
  -2  -3 -11   61.02    2.26 
  -2  -3 -11   63.32    2.18 
  -2  -3 -11   54.52    1.84 
   2   3  11   67.38    1.80 
  -2  -3 -12    3.29    0.62 
  -2  -3 -12    3.60    0.64 
  -2  -3 -12    3.35    0.58 
  -2  -3 -12    2.85    0.48 
   2   3  12    3.23    0.65 
   2   3  12    3.79    0.50 
  -2  -3 -13   43.65    2.06 
  -2  -3 -13   50.56    2.25 
  -2  -3 -13   49.20    2.10 
  -2  -3 -13   44.63    1.73 
   2   3  13   48.17    2.24 
   2   3  13   52.74    1.73 
  -2  -3 -14   47.35    2.26 
  -2  -3 -14   56.47    2.48 
  -2  -3 -14   50.59    2.23 
  -2  -3 -14   52.42    1.91 
   2   3  14   50.31    2.40 
   2   3  14   60.79    1.94 
  -2  -3 -15   28.14    1.84 
  -2  -3 -15   31.56    1.95 
  -2  -3 -15   31.79    1.85 
  -2  -3 -15   31.07    1.50 
   2   3  15   33.81    2.06 
   2   3  15   34.56    1.53 
  -2  -3 -16   39.88    2.27 
  -2  -3 -16   46.98    2.47 
  -2  -3 -16   45.33    2.30 
   2   3  16   44.52    2.45 
  -2  -3 -17    6.19    1.03 
  -2  -3 -17    7.19    1.07 
  -2  -3 -17    6.54    0.97 
   2   3  17    5.37    0.98 
  -2  -3 -18   25.64    2.00 
  -2  -3 -18   27.78    2.06 
  -2  -3 -18   28.23    1.97 
   2   3  18   27.13    2.09 
  -2  -3 -19    1.07    0.66 
  -2  -3 -19    1.63    0.69 
  -2  -3 -19    0.55    0.52 
   2   3  19    1.95    0.78 
  -2  -3 -20   30.52    2.35 
  -2  -3 -20   28.83    2.28 
   2   3  20   29.13    2.34 
  -2  -4  16    0.76    0.67 
  -2  -4  16    1.16    0.64 
   2   4 -16    0.96    0.60 
   2   4 -16    1.30    0.65 
  -2  -4  15   45.97    2.73 
  -2  -4  15   42.84    2.51 
   2   4 -15   40.73    2.42 
   2   4 -15   44.32    2.67 
   2   4 -15   43.84    2.67 
  -2  -4  14    0.12    0.49 
  -2  -4  14    0.06    0.43 
   2   4 -14    0.50    0.47 
   2   4 -14   -0.03    0.41 
   2   4 -14    0.07    0.50 
  -2  -4  13   28.48    1.92 
   2   4 -13   28.96    1.88 
   2   4 -13   29.58    2.04 
  -2  -4  12    3.96    0.77 
   2   4 -12    3.47    0.70 
   2   4 -12    5.14    0.87 
   2   4 -12    5.18    0.91 
  -2  -4  11   45.80    2.26 
   2   4 -11   49.78    2.23 
   2   4 -11   53.11    2.50 
   2   4 -11   54.26    2.53 
  -2  -4  10   53.60    2.36 
   2   4 -10   61.02    2.35 
   2   4 -10   66.10    2.67 
   2   4 -10   72.73    2.81 
  -2  -4   9   27.54    1.64 
   2   4  -9   26.70    1.48 
   2   4  -9   30.80    1.76 
   2   4  -9   32.81    1.82 
  -2  -4   8   74.50    2.59 
  -2  -4   8   83.56    1.61 
   2   4  -8   78.98    2.40 
   2   4  -8   89.16    2.86 
   2   4  -8   93.14    2.93 
  -2  -4   7   10.93    0.98 
  -2  -4   7   12.80    0.66 
   2   4  -7    9.66    0.81 
   2   4  -7   14.70    1.13 
   2   4  -7   14.52    1.14 
  -2  -4   6  106.78    2.88 
  -2  -4   6  109.71    2.00 
   2   4  -6   92.74    2.31 
   2   4  -6  130.73    3.20 
   2   4  -6  139.64    3.32 
  -2  -4   5    0.42    0.30 
  -2  -4   5    0.22    0.20 
   2   4  -5    0.52    0.25 
   2   4  -5    0.73    0.34 
   2   4  -5    0.93    0.38 
  -2  -4   4  123.38    2.87 
  -2  -4   4  131.59    2.30 
   2   4  -4  141.88    2.52 
   2   4  -4  182.42    3.53 
  -2  -4   3   13.27    0.90 
  -2  -4   3   10.41    0.80 
  -2  -4   3    8.98    0.61 
   2   4  -3   10.60    0.62 
   2   4  -3   11.98    0.87 
  -2  -4   2  149.86    2.92 
  -2  -4   2  105.09    2.43 
  -2  -4   2  108.12    2.15 
   2   4  -2  130.92    2.05 
   2   4  -2  133.52    2.17 
   2   4  -2  154.30    3.01 
  -2  -4   1  153.13    2.86 
  -2  -4   1  107.33    2.36 
  -2  -4   1  111.05    2.22 
   2   4  -1  143.78    2.00 
   2   4  -1  147.31    2.14 
   2   4  -1  158.98    2.97 
  -2  -4   0   78.99    1.96 
  -2  -4   0   89.19    1.49 
  -2  -4   0   73.13    1.85 
  -2  -4   0   58.69    1.65 
  -2  -4   0   54.43    1.56 
   2   4   0   78.60    1.31 
   2   4   0   80.57    1.42 
   2   4   0   82.00    2.05 
  -2  -4  -1  282.21    2.75 
  -2  -4  -1  259.70    3.67 
  -2  -4  -1  297.92    2.97 
  -2  -4  -1  254.41    3.53 
  -2  -4  -1  186.47    2.92 
  -2  -4  -1  238.28    3.35 
  -2  -4  -1  174.53    2.93 
   2   4   1  293.93    2.94 
   2   4   1  281.62    2.95 
   2   4   1  272.01    3.88 
   2   4   1  196.37    3.01 
  -2  -4  -2   11.35    0.74 
  -2  -4  -2   12.87    0.74 
  -2  -4  -2   11.77    0.69 
  -2  -4  -2    9.00    0.67 
   2   4   2   14.83    0.54 
   2   4   2   13.42    0.54 
   2   4   2   13.32    0.83 
   2   4   2    9.75    0.62 
  -2  -4  -3  170.83    2.89 
  -2  -4  -3  169.61    2.74 
  -2  -4  -3  180.49    2.65 
  -2  -4  -3  118.27    2.47 
   2   4   3  181.11    2.25 
   2   4   3  184.32    2.33 
   2   4   3  188.60    2.90 
   2   4   3  183.70    3.14 
   2   4   3  147.09    2.38 
  -2  -4  -4    5.61    0.41 
  -2  -4  -4    5.04    0.53 
  -2  -4  -4    4.89    0.48 
  -2  -4  -4    4.84    0.43 
  -2  -4  -4    3.98    0.50 
   2   4   4    5.65    0.51 
   2   4   4    4.98    0.55 
   2   4   4    4.35    0.40 
  -2  -4  -5  121.54    2.09 
  -2  -4  -5  116.71    2.45 
  -2  -4  -5  124.98    2.37 
  -2  -4  -5  135.39    2.13 
  -2  -4  -5   85.47    2.18 
   2   4   5  137.28    2.49 
   2   4   5  125.93    2.68 
   2   4   5  111.60    1.93 
  -2  -4  -6   16.33    0.82 
  -2  -4  -6   17.77    0.99 
  -2  -4  -6   17.57    0.91 
  -2  -4  -6   19.88    0.78 
  -2  -4  -6   11.94    0.84 
   2   4   6   20.57    0.98 
   2   4   6   16.34    1.00 
   2   4   6   16.08    0.70 
  -2  -4  -7  131.58    2.54 
  -2  -4  -7  136.33    2.85 
  -2  -4  -7  140.34    2.68 
  -2  -4  -7  161.05    2.31 
  -2  -4  -7  103.98    2.52 
   2   4   7  161.23    2.89 
   2   4   7  144.54    3.09 
   2   4   7  138.39    2.14 
  -2  -4  -8   77.22    2.06 
  -2  -4  -8   84.59    2.32 
  -2  -4  -8   87.52    2.18 
  -2  -4  -8   96.14    1.76 
  -2  -4  -8   66.42    2.05 
   2   4   8   98.39    2.32 
   2   4   8   89.48    2.51 
   2   4   8   88.65    1.69 
  -2  -4  -9   21.61    1.17 
  -2  -4  -9   27.44    1.38 
  -2  -4  -9   25.32    1.22 
  -2  -4  -9   27.30    0.94 
  -2  -4  -9   19.86    1.15 
   2   4   9   26.93    1.44 
   2   4   9   26.86    0.93 
  -2  -4 -10  111.67    2.81 
  -2  -4 -10  124.86    3.09 
  -2  -4 -10  120.98    2.81 
  -2  -4 -10  134.78    2.22 
  -2  -4 -10   99.14    2.63 
   2   4  10  131.90    3.32 
   2   4  10  138.86    2.27 
  -2  -4 -11    1.87    0.46 
  -2  -4 -11    1.28    0.42 
  -2  -4 -11    1.56    0.41 
  -2  -4 -11    1.61    0.30 
  -2  -4 -11    0.87    0.38 
   2   4  11    0.96    0.45 
   2   4  11    1.87    0.33 
  -2  -4 -12   40.93    1.89 
  -2  -4 -12   48.00    2.07 
  -2  -4 -12   48.66    1.93 
  -2  -4 -12   38.81    1.71 
   2   4  12   50.54    2.23 
   2   4  12   54.79    1.49 
  -2  -4 -13    3.67    0.67 
  -2  -4 -13    4.39    0.72 
  -2  -4 -13    3.64    0.61 
  -2  -4 -13    0.91    0.32 
   2   4  13    3.80    0.73 
   2   4  13    5.22    0.52 
  -2  -4 -14   51.15    2.33 
  -2  -4 -14   56.77    2.45 
  -2  -4 -14   56.54    2.27 
  -2  -4 -14   49.90    2.02 
   2   4  14   59.76    2.62 
   2   4  14   65.39    1.78 
  -2  -4 -15    6.58    0.94 
  -2  -4 -15   10.52    1.15 
  -2  -4 -15   10.15    1.04 
  -2  -4 -15   10.35    0.98 
   2   4  15   12.28    1.29 
  -2  -4 -16   21.22    1.66 
  -2  -4 -16   24.35    1.77 
  -2  -4 -16   22.97    1.59 
  -2  -4 -16   21.76    1.40 
   2   4  16   23.19    1.80 
  -2  -4 -17   16.88    1.55 
  -2  -4 -17   19.86    1.67 
  -2  -4 -17   20.66    1.58 
  -2  -4 -17   17.93    1.30 
   2   4  17   18.97    1.70 
  -2  -4 -18   10.97    1.34 
  -2  -4 -18   11.91    1.37 
  -2  -4 -18   10.65    1.21 
   2   4  18   12.52    1.47 
  -2  -4 -19   24.74    2.03 
  -2  -4 -19   28.84    2.16 
  -2  -4 -19   29.38    2.02 
   2   4  19   32.47    2.38 
  -2  -4 -20    0.28    0.59 
  -2  -4 -20    0.67    0.62 
  -2  -4 -20    0.94    0.58 
   2   4  20   -0.25    0.59 
  -2  -5  15    5.71    1.11 
  -2  -5  15    6.17    1.11 
   2   5 -15    4.77    0.96 
   2   5 -15    5.54    1.07 
   2   5 -15    6.41    1.17 
  -2  -5  14   16.36    1.62 
   2   5 -14   17.99    1.63 
   2   5 -14   16.84    1.68 
   2   5 -14   17.36    1.72 
  -2  -5  13    0.10    0.45 
   2   5 -13   -0.06    0.38 
   2   5 -13   -0.07    0.40 
   2   5 -13   -0.18    0.47 
  -2  -5  12   21.32    1.71 
   2   5 -12   21.11    1.60 
   2   5 -12   25.99    1.91 
   2   5 -12   22.37    1.79 
  -2  -5  11    1.51    0.58 
   2   5 -11    2.47    0.61 
   2   5 -11    1.72    0.60 
   2   5 -11    1.98    0.65 
  -2  -5  10   27.66    1.81 
   2   5 -10   31.99    1.78 
   2   5 -10   33.91    2.02 
   2   5 -10   36.56    2.09 
  -2  -5   9   10.16    1.10 
   2   5  -9   10.09    0.98 
   2   5  -9   11.10    1.14 
   2   5  -9   11.05    1.14 
  -2  -5   8   23.44    1.56 
   2   5  -8   26.62    1.48 
   2   5  -8   28.80    1.72 
   2   5  -8   28.71    1.73 
  -2  -5   7   54.51    2.28 
  -2  -5   7   65.51    1.53 
   2   5  -7   76.12    2.68 
   2   5  -7   80.06    2.75 
  -2  -5   6   18.40    1.29 
  -2  -5   6   20.08    0.89 
   2   5  -6   20.53    1.16 
   2   5  -6   24.12    1.46 
   2   5  -6   25.07    1.50 
  -2  -5   5  108.98    2.16 
   2   5  -5  130.36    2.78 
   2   5  -5  139.81    3.37 
   2   5  -5  148.18    3.50 
  -2  -5   4    1.20    0.41 
  -2  -5   4    0.19    0.28 
  -2  -5   4    0.43    0.25 
   2   5  -4    0.75    0.29 
   2   5  -4    0.28    0.34 
  -2  -5   3  135.41    3.07 
  -2  -5   3   88.69    2.51 
  -2  -5   3   94.07    2.10 
   2   5  -3  124.54    2.41 
   2   5  -3  125.76    2.52 
   2   5  -3  138.34    3.16 
  -2  -5   2   27.05    1.31 
  -2  -5   2   17.71    1.08 
  -2  -5   2   19.61    0.98 
   2   5  -2   26.24    1.02 
   2   5  -2   25.42    1.05 
   2   5  -2   28.26    1.38 
  -2  -5   1  117.93    2.67 
  -2  -5   1   76.98    2.15 
  -2  -5   1   73.77    1.93 
   2   5  -1  113.78    2.04 
   2   5  -1  111.32    2.12 
   2   5  -1  113.27    2.70 
  -2  -5   0  122.11    2.64 
  -2  -5   0  109.93    2.45 
  -2  -5   0   78.90    2.08 
  -2  -5   0   77.01    2.02 
   2   5   0  122.14    2.03 
   2   5   0  119.78    2.12 
   2   5   0  120.06    2.73 
  -2  -5  -1  107.17    2.41 
  -2  -5  -1  104.71    2.31 
  -2  -5  -1   71.33    1.90 
  -2  -5  -1   69.98    1.96 
   2   5   1  114.12    1.90 
   2   5   1  113.63    2.00 
   2   5   1  108.74    2.56 
  -2  -5  -2   97.59    2.27 
  -2  -5  -2   90.63    2.08 
  -2  -5  -2   62.28    1.88 
   2   5   2  106.44    1.83 
   2   5   2  104.11    1.89 
  -2  -5  -3    3.14    0.46 
  -2  -5  -3    3.22    0.43 
  -2  -5  -3    1.97    0.32 
  -2  -5  -3    3.78    0.43 
  -2  -5  -3    2.34    0.43 
   2   5   3    3.45    0.36 
   2   5   3    3.83    0.39 
   2   5   3    3.25    0.51 
  -2  -5  -4  261.88    3.87 
  -2  -5  -4  267.38    3.67 
  -2  -5  -4  193.84    2.85 
  -2  -5  -4  273.91    3.46 
  -2  -5  -4  168.08    3.28 
   2   5   4  275.78    3.37 
   2   5   4  278.89    3.47 
   2   5   4  283.76    3.78 
   2   5   4  264.44    4.16 
   2   5   4  189.65    2.82 
  -2  -5  -5    3.11    0.48 
  -2  -5  -5    2.64    0.41 
  -2  -5  -5    3.56    0.39 
  -2  -5  -5    1.83    0.41 
   2   5   5    3.36    0.40 
   2   5   5    3.41    0.41 
   2   5   5    3.47    0.45 
   2   5   5    2.94    0.51 
   2   5   5    1.94    0.31 
  -2  -5  -6  376.10    4.48 
  -2  -5  -6  355.99    4.77 
  -2  -5  -6  372.66    4.52 
  -2  -5  -6  410.15    4.14 
  -2  -5  -6  231.15    4.05 
   2   5   6  414.00    4.79 
   2   5   6  365.19    5.19 
   2   5   6  295.59    3.41 
  -2  -5  -7   14.16    0.87 
  -2  -5  -7   15.01    0.97 
  -2  -5  -7   14.97    0.87 
  -2  -5  -7   15.28    0.68 
  -2  -5  -7   10.27    0.87 
   2   5   7   17.20    0.93 
   2   5   7   14.54    1.04 
   2   5   7   11.55    0.59 
  -2  -5  -8  168.44    3.17 
  -2  -5  -8  169.72    3.36 
  -2  -5  -8  170.99    3.05 
  -2  -5  -8  202.92    2.54 
  -2  -5  -8  127.82    3.08 
   2   5   8  211.22    3.43 
   2   5   8  178.60    3.72 
   2   5   8  155.02    2.19 
  -2  -5  -9   50.35    1.80 
  -2  -5  -9   51.24    1.89 
  -2  -5  -9   51.21    1.69 
  -2  -5  -9   55.65    1.21 
  -2  -5  -9   41.48    1.78 
   2   5   9   54.89    2.11 
   2   5   9   48.74    1.14 
  -2  -5 -10   80.17    2.41 
  -2  -5 -10   87.47    2.57 
  -2  -5 -10   86.08    2.29 
  -2  -5 -10   90.98    1.57 
  -2  -5 -10   65.89    2.29 
   2   5  10   90.41    2.81 
   2   5  10   86.61    1.54 
  -2  -5 -11   62.03    2.23 
  -2  -5 -11   68.99    2.37 
  -2  -5 -11   67.57    2.11 
  -2  -5 -11   52.20    2.08 
   2   5  11   71.76    2.60 
   2   5  11   70.83    1.39 
  -2  -5 -12    8.62    0.91 
  -2  -5 -12    9.98    0.98 
  -2  -5 -12    9.66    0.86 
  -2  -5 -12    8.31    0.89 
   2   5  12    9.89    1.06 
   2   5  12   10.36    0.54 
  -2  -5 -13   47.60    2.15 
  -2  -5 -13   51.03    2.21 
  -2  -5 -13   48.95    1.96 
  -2  -5 -13   41.71    1.94 
   2   5  13   47.24    2.28 
  -2  -5 -14    0.32    0.41 
  -2  -5 -14    0.44    0.41 
  -2  -5 -14    0.38    0.36 
  -2  -5 -14    0.28    0.37 
   2   5  14    0.78    0.51 
  -2  -5 -15   75.85    2.97 
  -2  -5 -15   76.06    2.93 
  -2  -5 -15   79.96    2.73 
  -2  -5 -15   66.11    2.54 
   2   5  15   83.01    3.25 
  -2  -5 -16    7.78    1.06 
  -2  -5 -16    9.17    1.11 
  -2  -5 -16    8.33    0.96 
  -2  -5 -16    8.42    0.97 
   2   5  16    8.97    1.19 
  -2  -5 -17   29.62    2.04 
  -2  -5 -17   35.96    2.18 
  -2  -5 -17   34.97    1.97 
  -2  -5 -17   36.56    1.97 
   2   5  17   35.26    2.30 
  -2  -5 -18    8.53    1.19 
  -2  -5 -18    9.61    1.23 
  -2  -5 -18    8.12    1.04 
  -2  -5 -18    9.92    1.09 
   2   5  18    8.78    1.26 
  -2  -5 -19   13.07    1.51 
  -2  -5 -19   14.19    1.53 
   2   5  19   15.04    1.67 
  -2  -5 -20   18.89    1.86 
  -2  -5 -20   25.38    2.08 
   2   5  20   22.97    2.09 
  -2  -6  14    6.68    1.17 
   2   6 -14    7.59    1.14 
   2   6 -14    9.08    1.35 
   2   6 -14    8.26    1.31 
  -2  -6  13   16.93    1.69 
   2   6 -13   16.68    1.56 
   2   6 -13   17.66    1.74 
   2   6 -13   16.37    1.69 
  -2  -6  12    2.67    0.75 
   2   6 -12    1.75    0.60 
   2   6 -12    2.54    0.76 
   2   6 -12    1.59    0.70 
  -2  -6  11   17.24    1.59 
   2   6 -11   19.36    1.53 
   2   6 -11   18.77    1.66 
   2   6 -11   20.82    1.74 
  -2  -6  10    0.33    0.44 
   2   6 -10    0.01    0.35 
   2   6 -10    0.26    0.45 
   2   6 -10    0.12    0.44 
  -2  -6   9   56.75    2.65 
   2   6  -9   59.68    2.43 
   2   6  -9   70.50    2.93 
   2   6  -9   65.59    2.83 
  -2  -6   8    8.42    1.03 
   2   6  -8    9.12    0.94 
   2   6  -8   11.99    1.20 
   2   6  -8   10.98    1.16 
  -2  -6   7   41.42    2.12 
   2   6  -7   55.14    2.40 
   2   6  -7   51.35    2.33 
  -2  -6   6   14.59    1.24 
  -2  -6   6   17.11    0.88 
   2   6  -6   18.81    1.19 
   2   6  -6   19.87    1.43 
  -2  -6   5   46.85    2.06 
  -2  -6   5   32.31    1.75 
  -2  -6   5   35.98    1.32 
   2   6  -5   42.26    1.69 
   2   6  -5   49.21    2.14 
  -2  -6   4  122.71    3.22 
  -2  -6   4   84.02    2.72 
  -2  -6   4   91.37    2.18 
   2   6  -4  119.26    2.73 
   2   6  -4   98.42    2.56 
   2   6  -4  124.46    3.30 
  -2  -6   3   13.90    1.07 
  -2  -6   3    8.57    0.87 
  -2  -6   3    8.39    0.71 
   2   6  -3   12.71    0.86 
   2   6  -3   12.99    0.90 
   2   6  -3   14.16    1.11 
  -2  -6   2  114.20    2.89 
  -2  -6   2   68.46    2.28 
  -2  -6   2   72.73    2.03 
   2   6  -2  112.45    2.41 
   2   6  -2  106.98    2.45 
   2   6  -2  116.74    3.02 
  -2  -6   1   -0.12    0.29 
  -2  -6   1    0.23    0.27 
  -2  -6   1    0.12    0.26 
   2   6  -1   -0.08    0.22 
   2   6  -1   -0.13    0.24 
   2   6  -1    0.14    0.35 
  -2  -6   0  284.66    4.44 
  -2  -6   0  262.59    4.17 
  -2  -6   0  158.98    3.26 
  -2  -6   0  170.16    3.30 
   2   6   0  287.20    3.77 
   2   6   0  288.20    3.94 
   2   6   0  277.01    4.60 
  -2  -6  -1   41.13    1.58 
  -2  -6  -1   38.60    1.48 
  -2  -6  -1   24.86    1.21 
  -2  -6  -1   26.72    1.31 
   2   6   1   43.41    1.34 
   2   6   1   43.35    1.41 
   2   6   1   40.30    1.68 
  -2  -6  -2  145.45    2.97 
  -2  -6  -2  144.83    2.84 
  -2  -6  -2    0.09    0.11 
  -2  -6  -2   86.45    2.40 
   2   6   2  154.48    2.59 
   2   6   2  155.41    2.71 
   2   6   2  150.38    3.25 
  -2  -6  -3   85.71    2.23 
  -2  -6  -3   92.64    2.18 
  -2  -6  -3   52.01    1.60 
  -2  -6  -3   52.59    1.90 
   2   6   3   93.65    2.00 
   2   6   3   94.69    2.09 
   2   6   3   87.66    2.46 
  -2  -6  -4   60.18    1.86 
  -2  -6  -4   62.67    1.76 
  -2  -6  -4   38.26    1.30 
  -2  -6  -4   39.10    1.67 
   2   6   4   63.85    1.68 
   2   6   4   68.35    1.79 
   2   6   4   65.22    2.13 
  -2  -6  -5   91.69    2.33 
  -2  -6  -5   95.21    2.16 
  -2  -6  -5   57.74    1.52 
  -2  -6  -5   94.98    1.98 
  -2  -6  -5   57.17    2.06 
   2   6   5   99.29    2.19 
   2   6   5   98.61    2.23 
   2   6   5   94.23    2.60 
  -2  -6  -6    1.21    0.40 
  -2  -6  -6    1.43    0.36 
  -2  -6  -6    0.98    0.24 
  -2  -6  -6    2.08    0.33 
  -2  -6  -6    1.28    0.43 
   2   6   6    1.87    0.38 
   2   6   6    1.79    0.39 
   2   6   6    1.82    0.37 
   2   6   6    1.46    0.46 
  -2  -6  -7  175.69    3.39 
  -2  -6  -7  184.73    3.11 
  -2  -6  -7  119.62    2.00 
  -2  -6  -7  202.23    2.68 
  -2  -6  -7  105.97    2.93 
   2   6   7  187.92    3.35 
   2   6   7  196.09    3.21 
   2   6   7  183.62    3.83 
  -2  -6  -8    1.32    0.39 
  -2  -6  -8    1.73    0.44 
  -2  -6  -8    1.72    0.38 
  -2  -6  -8    1.03    0.21 
  -2  -6  -8    1.75    0.28 
  -2  -6  -8    0.55    0.38 
   2   6   8    1.68    0.39 
   2   6   8    1.72    0.39 
   2   6   8    1.23    0.48 
  -2  -6  -9  149.64    3.25 
  -2  -6  -9  144.37    3.23 
  -2  -6  -9  150.30    2.91 
  -2  -6  -9  105.68    1.62 
  -2  -6  -9  163.03    2.07 
  -2  -6  -9  101.06    2.98 
   2   6   9  167.14    3.08 
   2   6   9  148.96    3.63 
  -2  -6 -10   52.21    1.99 
  -2  -6 -10   50.93    1.97 
  -2  -6 -10   50.94    1.72 
  -2  -6 -10   37.82    1.86 
   2   6  10   55.89    2.28 
  -2  -6 -11   78.69    2.56 
  -2  -6 -11   84.75    2.64 
  -2  -6 -11   83.88    2.30 
  -2  -6 -11   59.41    2.37 
   2   6  11   87.98    2.96 
  -2  -6 -12   35.16    1.80 
  -2  -6 -12   37.73    1.83 
  -2  -6 -12   35.82    1.56 
  -2  -6 -12   26.49    1.62 
   2   6  12   38.23    2.03 
  -2  -6 -13   24.75    1.59 
  -2  -6 -13   26.79    1.61 
  -2  -6 -13   26.72    1.41 
  -2  -6 -13   19.94    1.44 
   2   6  13   29.81    1.86 
  -2  -6 -14   67.87    2.72 
  -2  -6 -14   66.31    2.61 
  -2  -6 -14   63.87    2.26 
  -2  -6 -14   54.86    2.42 
   2   6  14   69.63    2.92 
  -2  -6 -15    0.17    0.41 
  -2  -6 -15    0.30    0.40 
  -2  -6 -15    0.99    0.43 
  -2  -6 -15    0.32    0.41 
   2   6  15    0.11    0.47 
  -2  -6 -16   51.29    2.57 
  -2  -6 -16   52.62    2.51 
  -2  -6 -16   50.16    2.17 
  -2  -6 -16   47.32    2.34 
   2   6  16   58.12    2.86 
  -2  -6 -17    2.84    0.75 
  -2  -6 -17    2.22    0.67 
  -2  -6 -17    1.94    0.62 
   2   6  17    2.71    0.80 
  -2  -6 -18   27.66    2.06 
  -2  -6 -18   32.88    2.16 
  -2  -6 -18    0.08    0.21 
   2   6  18   30.32    2.24 
  -2  -6 -19    9.09    1.29 
  -2  -6 -19    8.47    1.20 
  -2  -6 -19    7.43    1.05 
   2   6  19    9.04    1.35 
  -2  -7  13   11.31    1.48 
   2   7 -13   10.57    1.33 
   2   7 -13   11.41    1.51 
   2   7 -13   14.24    1.66 
  -2  -7  12   12.49    1.51 
   2   7 -12   11.65    1.32 
   2   7 -12   12.09    1.48 
   2   7 -12   13.61    1.56 
  -2  -7  11    4.25    0.92 
   2   7 -11    3.91    0.81 
   2   7 -11    5.08    0.99 
   2   7 -11    5.17    1.00 
  -2  -7  10   27.16    2.03 
   2   7 -10   28.44    1.85 
   2   7 -10   27.81    2.02 
   2   7 -10   29.18    2.07 
  -2  -7   9   -0.18    0.38 
   2   7  -9    0.09    0.37 
   2   7  -9    0.51    0.50 
   2   7  -9   -0.16    0.41 
  -2  -7   8   28.10    1.93 
   2   7  -8   32.17    1.82 
   2   7  -8   32.01    2.02 
  -2  -7   7    7.83    1.03 
   2   7  -7    0.63    0.29 
   2   7  -7    8.52    1.07 
  -2  -7   6   73.50    2.82 
  -2  -7   6   55.61    2.53 
   2   7  -6   60.53    2.28 
   2   7  -6   77.88    2.94 
  -2  -7   5   32.29    1.81 
  -2  -7   5   23.04    1.59 
  -2  -7   5   25.22    1.19 
   2   7  -5   31.55    1.59 
   2   7  -5   31.12    1.63 
   2   7  -5   35.21    1.93 
  -2  -7   4   67.30    2.51 
  -2  -7   4   43.28    2.09 
  -2  -7   4   46.97    1.67 
   2   7  -4   62.98    2.15 
   2   7  -4    0.04    0.11 
   2   7  -4   66.42    2.57 
  -2  -7   3   74.07    2.55 
  -2  -7   3   48.94    2.15 
  -2  -7   3   54.60    1.86 
   2   7  -3   75.48    2.26 
   2   7  -3   72.64    2.30 
   2   7  -3   80.66    2.75 
  -2  -7   2   28.24    1.53 
  -2  -7   2   17.71    1.26 
  -2  -7   2   18.71    1.13 
   2   7  -2   28.79    1.35 
   2   7  -2   27.52    1.38 
   2   7  -2   28.79    1.62 
  -2  -7   1  112.94    2.96 
  -2  -7   1   67.32    2.34 
  -2  -7   1   67.87    2.16 
   2   7  -1  118.43    2.66 
   2   7  -1  117.73    2.77 
   2   7  -1  116.60    3.17 
  -2  -7   0    5.28    0.69 
  -2  -7   0    5.71    0.68 
  -2  -7   0    3.38    0.57 
  -2  -7   0    3.28    0.55 
   2   7   0    5.38    0.61 
   2   7   0    5.63    0.66 
   2   7   0    5.00    0.74 
  -2  -7  -1  248.85    4.27 
  -2  -7  -1  237.70    4.05 
  -2  -7  -1  137.96    3.14 
  -2  -7  -1  142.80    3.29 
   2   7   1  264.41    3.94 
   2   7   1  261.71    4.07 
   2   7   1  244.41    4.54 
  -2  -7  -2   28.84    1.39 
  -2  -7  -2   29.65    1.34 
  -2  -7  -2   -0.02    0.08 
  -2  -7  -2   17.63    1.19 
   2   7   2   29.15    1.25 
   2   7   2   28.58    1.29 
   2   7   2   26.27    1.46 
  -2  -7  -3  105.82    2.63 
  -2  -7  -3  104.67    2.46 
  -2  -7  -3   55.87    1.81 
  -2  -7  -3   61.37    2.21 
   2   7   3  107.59    2.41 
   2   7   3  109.40    2.52 
   2   7   3   98.04    2.79 
  -2  -7  -4   42.19    1.64 
  -2  -7  -4   44.93    1.56 
  -2  -7  -4   25.71    1.17 
  -2  -7  -4   25.52    1.46 
   2   7   4   47.07    1.60 
   2   7   4   47.01    1.66 
   2   7   4   44.44    1.89 
  -2  -7  -5   88.19    2.38 
  -2  -7  -5   89.32    2.17 
  -2  -7  -5   52.17    1.58 
  -2  -7  -5   53.30    2.14 
   2   7   5   94.19    2.33 
   2   7   5   94.04    2.39 
   2   7   5   88.35    2.68 
  -2  -7  -6  164.54    3.32 
  -2  -7  -6  164.54    2.96 
  -2  -7  -6   97.97    2.06 
  -2  -7  -6  171.50    2.79 
  -2  -7  -6   95.10    2.91 
   2   7   6  165.90    3.22 
   2   7   6  173.50    3.37 
   2   7   6  164.29    3.73 
  -2  -7  -7   25.84    1.33 
  -2  -7  -7   27.70    1.19 
  -2  -7  -7   15.61    0.76 
  -2  -7  -7   27.60    1.01 
  -2  -7  -7   15.11    1.21 
   2   7   7   26.10    1.31 
   2   7   7   25.37    1.31 
   2   7   7   26.18    1.53 
  -2  -7  -8  122.80    2.95 
  -2  -7  -8  134.91    2.68 
  -2  -7  -8   84.64    1.62 
  -2  -7  -8   77.31    2.72 
   2   7   8  133.43    3.07 
   2   7   8  140.33    2.73 
   2   7   8  132.54    3.47 
  -2  -7  -9    0.34    0.34 
  -2  -7  -9    0.21    0.28 
  -2  -7  -9    0.35    0.16 
  -2  -7  -9    0.20    0.38 
   2   7   9    0.01    0.12 
   2   7   9    0.17    0.28 
   2   7   9    0.24    0.30 
   2   7   9    0.36    0.43 
  -2  -7 -10   98.59    2.77 
  -2  -7 -10  102.73    2.41 
  -2  -7 -10   69.02    2.66 
   2   7  10  102.00    2.90 
   2   7  10  103.65    3.22 
  -2  -7 -11    7.82    0.89 
  -2  -7 -11    7.76    0.86 
  -2  -7 -11    7.30    0.69 
  -2  -7 -11    5.21    0.81 
   2   7  11    7.90    0.89 
   2   7  11    7.66    0.97 
  -2  -7 -12   54.74    2.30 
  -2  -7 -12   55.45    2.22 
  -2  -7 -12   51.72    1.81 
  -2  -7 -12   39.85    2.11 
   2   7  12   58.38    2.56 
  -2  -7 -13   27.62    1.72 
  -2  -7 -13   28.94    1.67 
  -2  -7 -13   29.77    1.43 
  -2  -7 -13   21.35    1.59 
   2   7  13   32.43    1.98 
  -2  -7 -14   24.82    1.70 
  -2  -7 -14   25.41    1.63 
  -2  -7 -14   19.38    1.55 
   2   7  14   26.57    1.87 
  -2  -7 -15   40.90    2.24 
  -2  -7 -15   41.39    2.14 
  -2  -7 -15   35.32    2.11 
   2   7  15   43.00    2.43 
  -2  -7 -16    5.74    0.96 
  -2  -7 -16    5.73    0.89 
  -2  -7 -16    5.42    0.92 
   2   7  16    4.77    0.95 
  -2  -7 -17   37.92    2.34 
  -2  -7 -17   41.41    2.30 
  -2  -7 -17   35.90    2.20 
   2   7  17   43.80    2.62 
  -2  -7 -18    0.05    0.51 
  -2  -7 -18    0.28    0.47 
  -2  -7 -18   -0.21    0.43 
   2   7  18    0.12    0.56 
  -2  -7 -19   19.63    1.84 
  -2  -7 -19   20.46    1.76 
  -2  -7 -19   20.31    1.75 
   2   7  19   22.63    2.04 
  -2  -8  11    9.78    1.39 
   2   8 -11    9.96    1.25 
   2   8 -11   10.17    1.39 
  -2  -8  10   14.68    1.58 
  -2  -8  10   11.61    1.45 
   2   8 -10   12.85    1.35 
   2   8 -10   12.00    1.44 
  -2  -8   9   33.57    2.24 
  -2  -8   9   23.59    1.95 
   2   8  -9   28.59    1.89 
   2   8  -9   29.58    2.12 
  -2  -8   8    2.82    0.74 
  -2  -8   8    2.25    0.70 
   2   8  -8    2.56    0.67 
   2   8  -8    2.68    0.78 
  -2  -8   7   53.25    2.61 
  -2  -8   7   38.39    2.32 
   2   8  -7   53.90    2.67 
  -2  -8   6    1.08    0.53 
  -2  -8   6    0.00    0.37 
   2   8  -6    0.27    0.33 
   2   8  -6    0.11    0.44 
  -2  -8   5   33.43    1.94 
  -2  -8   5   22.46    1.67 
   2   8  -5   30.75    1.69 
   2   8  -5   32.82    1.80 
   2   8  -5   33.51    2.00 
  -2  -8   4   35.88    1.95 
  -2  -8   4   23.44    1.66 
  -2  -8   4   26.00    1.34 
   2   8  -4   36.17    1.77 
   2   8  -4   25.79    1.54 
   2   8  -4   35.99    2.02 
  -2  -8   3   27.59    1.65 
  -2  -8   3   18.09    1.41 
  -2  -8   3   18.51    1.17 
   2   8  -3   25.42    1.44 
   2   8  -3    0.10    0.15 
   2   8  -3   24.25    1.62 
  -2  -8   2   29.57    1.66 
  -2  -8   2   18.11    1.36 
  -2  -8   2   17.68    1.18 
   2   8  -2   30.12    1.51 
   2   8  -2   27.69    1.51 
   2   8  -2   26.58    1.66 
  -2  -8   1   27.33    1.55 
  -2  -8   1   16.53    1.27 
  -2  -8   1   19.24    1.25 
   2   8  -1   28.93    1.45 
   2   8  -1   26.03    1.44 
   2   8  -1   29.64    1.73 
  -2  -8   0  142.62    3.44 
  -2  -8   0  133.29    3.27 
  -2  -8   0   79.78    2.65 
  -2  -8   0   82.75    2.62 
   2   8   0  141.78    3.16 
   2   8   0  138.46    3.24 
   2   8   0  138.85    3.65 
  -2  -8  -1   10.56    0.95 
  -2  -8  -1    9.63    0.87 
  -2  -8  -1    5.70    0.73 
  -2  -8  -1    5.53    0.74 
   2   8   1   10.04    0.87 
   2   8   1   10.41    0.92 
   2   8   1    9.75    1.02 
  -2  -8  -2  167.13    3.58 
  -2  -8  -2  154.74    3.29 
  -2  -8  -2    0.14    0.15 
  -2  -8  -2   88.64    2.80 
   2   8   2  165.26    3.35 
   2   8   2  164.73    3.46 
   2   8   2  156.99    3.81 
  -2  -8  -3    0.97    0.41 
  -2  -8  -3    1.12    0.38 
  -2  -8  -3    0.67    0.33 
  -2  -8  -3    0.88    0.42 
   2   8   3    0.80    0.40 
   2   8   3    0.65    0.38 
   2   8   3    0.92    0.48 
  -2  -8  -4  135.85    3.13 
  -2  -8  -4  134.98    2.88 
  -2  -8  -4   80.59    2.26 
  -2  -8  -4   75.86    2.68 
   2   8   4  143.95    3.12 
   2   8   4  142.30    3.20 
   2   8   4  134.57    3.50 
  -2  -8  -5   35.51    1.59 
  -2  -8  -5   35.66    1.43 
  -2  -8  -5   19.79    1.07 
  -2  -8  -5   20.25    1.43 
   2   8   5   33.36    1.51 
   2   8   5   34.75    1.59 
   2   8   5   34.27    1.78 
  -2  -8  -6   62.81    2.10 
  -2  -8  -6   66.12    1.90 
  -2  -8  -6   40.43    1.43 
  -2  -8  -6   37.41    1.95 
   2   8   6   69.92    2.23 
   2   8   6   65.82    2.21 
   2   8   6   62.17    2.41 
  -2  -8  -7   97.36    2.64 
  -2  -8  -7  100.10    2.32 
  -2  -8  -7   62.13    1.65 
  -2  -8  -7   56.15    2.42 
   2   8   7   96.36    2.68 
   2   8   7   91.22    2.66 
   2   8   7  100.06    3.10 
  -2  -8  -8   25.64    1.39 
  -2  -8  -8   26.44    1.18 
  -2  -8  -8   16.01    0.76 
  -2  -8  -8   16.99    1.38 
   2   8   8   26.51    1.46 
   2   8   8    0.04    0.13 
   2   8   8   26.58    1.64 
  -2  -8  -9   88.01    2.59 
  -2  -8  -9   87.51    2.15 
  -2  -8  -9   55.22    2.49 
   2   8   9   77.67    2.59 
   2   8   9   87.40    3.00 
  -2  -8 -10    5.46    0.73 
  -2  -8 -10    4.87    0.54 
  -2  -8 -10    3.30    0.72 
   2   8  10    5.55    0.76 
   2   8  10    6.21    0.83 
   2   8  10    6.44    0.92 
  -2  -8 -11  115.62    3.13 
  -2  -8 -11   74.53    2.99 
   2   8  11  120.55    3.42 
   2   8  11  115.17    3.36 
   2   8  11  122.39    3.73 
  -2  -8 -12    0.52    0.40 
  -2  -8 -12   -0.15    0.37 
   2   8  12    0.38    0.43 
   2   8  12    0.52    0.51 
  -2  -8 -13   58.71    2.37 
  -2  -8 -13   41.44    2.32 
   2   8  13   57.71    2.53 
   2   8  13   65.05    2.87 
  -2  -8 -14    6.14    0.94 
  -2  -8 -14    6.16    0.85 
  -2  -8 -14    5.03    0.91 
   2   8  14    6.40    0.96 
   2   8  14    6.45    1.02 
  -2  -8 -15   27.01    1.88 
  -2  -8 -15   26.77    1.72 
  -2  -8 -15   21.42    1.75 
   2   8  15   22.16    1.72 
   2   8  15   23.83    1.87 
  -2  -8 -16   25.20    1.89 
  -2  -8 -16   23.48    1.68 
  -2  -8 -16   19.24    1.70 
   2   8  16   25.34    1.89 
   2   8  16   26.20    2.02 
  -2  -8 -17   13.93    1.50 
  -2  -8 -17   12.45    1.29 
  -2  -8 -17   10.20    1.30 
   2   8  17   10.62    1.38 
  -2  -8 -18   22.00    1.90 
  -2  -8 -18   19.69    1.79 
   2   8  18   22.48    2.01 
  -2  -9   9   13.56    1.53 
  -2  -9   9   12.30    1.53 
   2   9  -9   15.48    1.50 
   2   9  -9   16.41    1.70 
  -2  -9   8   27.36    2.06 
  -2  -9   8   21.45    1.92 
   2   9  -8   23.12    1.74 
   2   9  -8   24.35    1.97 
  -2  -9   7    5.01    0.94 
  -2  -9   7    3.71    0.87 
   2   9  -7    0.02    0.17 
   2   9  -7    4.33    0.93 
  -2  -9   6   47.01    2.50 
  -2  -9   6   37.49    2.36 
   2   9  -6   34.87    1.98 
   2   9  -6   46.01    2.53 
  -2  -9   5    0.32    0.48 
  -2  -9   5   -0.01    0.39 
   2   9  -5    0.11    0.37 
   2   9  -5   -0.03    0.39 
   2   9  -5    0.32    0.50 
  -2  -9   4   49.35    2.40 
  -2  -9   4   29.80    1.98 
   2   9  -4   45.43    2.13 
   2   9  -4   48.52    2.28 
   2   9  -4   45.52    2.40 
  -2  -9   3    0.72    0.49 
  -2  -9   3    0.80    0.46 
  -2  -9   3    0.36    0.36 
   2   9  -3    0.63    0.44 
   2   9  -3    0.56    0.36 
   2   9  -3    0.81    0.54 
  -2  -9   2   43.13    2.11 
  -2  -9   2   25.93    1.74 
  -2  -9   2   29.93    1.63 
   2   9  -2   37.89    1.85 
   2   9  -2    0.07    0.15 
   2   9  -2   43.62    2.25 
  -2  -9   1   15.77    1.27 
  -2  -9   1    9.74    1.06 
  -2  -9   1   10.08    0.99 
   2   9  -1   14.22    1.14 
   2   9  -1   10.19    0.99 
   2   9  -1   15.22    1.34 
  -2  -9   0   36.08    1.83 
  -2  -9   0   34.25    1.75 
  -2  -9   0   21.43    1.48 
  -2  -9   0   21.03    1.43 
   2   9   0   35.03    1.72 
   2   9   0   34.18    1.76 
   2   9   0   35.68    1.97 
  -2  -9  -1   56.53    2.22 
  -2  -9  -1   56.57    2.15 
  -2  -9  -1   32.60    1.75 
  -2  -9  -1   29.93    1.72 
   2   9   1   57.05    2.15 
   2   9   1   58.46    2.26 
   2   9   1   56.91    2.45 
  -2  -9  -2    8.50    0.90 
  -2  -9  -2   10.86    0.94 
  -2  -9  -2    0.88    0.32 
  -2  -9  -2    4.48    0.74 
   2   9   2    8.36    0.88 
   2   9   2    8.45    0.91 
   2   9   2    9.43    1.05 
  -2  -9  -3   94.79    2.76 
  -2  -9  -3   96.30    2.63 
  -2  -9  -3   56.90    2.14 
  -2  -9  -3   52.77    2.35 
   2   9   3  101.80    2.84 
   2   9   3  100.13    2.91 
   2   9   3   96.40    3.14 
  -2  -9  -4    2.17    0.53 
  -2  -9  -4    2.27    0.48 
  -2  -9  -4    1.44    0.42 
  -2  -9  -4    1.39    0.51 
   2   9   4    2.76    0.58 
   2   9   4    2.74    0.59 
   2   9   4    1.81    0.59 
  -2  -9  -5   63.86    2.21 
  -2  -9  -5   65.70    2.02 
  -2  -9  -5   39.14    1.62 
  -2  -9  -5   35.86    2.00 
   2   9   5   61.09    2.21 
   2   9   5   58.88    2.24 
   2   9   5   57.88    2.44 
  -2  -9  -6    1.25    0.47 
  -2  -9  -6    1.32    0.38 
  -2  -9  -6    0.68    0.31 
  -2  -9  -6    0.83    0.48 
   2   9   6    1.31    0.48 
   2   9   6    1.60    0.51 
   2   9   6    0.91    0.52 
  -2  -9  -7   73.78    2.37 
  -2  -9  -7   44.53    2.29 
   2   9   7   74.36    2.52 
   2   9   7   76.06    2.84 
  -2  -9  -8   21.21    1.30 
  -2  -9  -8   13.13    1.30 
   2   9   8   21.85    1.42 
   2   9   8   21.74    1.57 
  -2  -9  -9   43.73    1.87 
  -2  -9  -9   26.60    1.85 
   2   9   9   27.67    1.61 
   2   9   9   42.89    2.05 
   2   9   9   47.88    2.33 
  -2  -9 -10   53.86    2.11 
  -2  -9 -10   36.67    2.19 
   2   9  10   58.41    2.44 
   2   9  10   58.16    2.61 
  -2  -9 -11    8.92    0.93 
  -2  -9 -11    6.47    1.00 
   2   9  11    9.73    1.07 
   2   9  11   10.60    1.12 
   2   9  11    9.38    1.15 
  -2  -9 -12   60.06    2.33 
  -2  -9 -12   40.22    2.37 
   2   9  12   65.20    2.70 
   2   9  12   67.19    2.77 
   2   9  12   59.90    2.77 
  -2  -9 -13    0.80    0.54 
   2   9  13    0.55    0.48 
   2   9  13    0.99    0.55 
   2   9  13    1.57    0.64 
  -2  -9 -14   24.30    1.94 
   2   9  14   35.14    2.12 
   2   9  14   35.24    2.15 
   2   9  14   35.90    2.28 
  -2  -9 -15    3.10    0.82 
   2   9  15    3.28    0.81 
   2   9  15    3.13    0.78 
   2   9  15    2.94    0.85 
  -2  -9 -16   23.41    1.97 
   2   9  16   28.48    2.06 
   2   9  16   29.92    2.21 
  -2  -9 -17    9.82    1.35 
   2   9  17   14.15    1.54 
   2   9  17   16.78    1.74 
  -2 -10   7   12.56    1.46 
  -2 -10   7    7.64    1.24 
   2  10  -7    0.60    0.36 
   2  10  -7   12.04    1.47 
  -2 -10   6   14.59    1.51 
  -2 -10   6    9.61    1.33 
   2  10  -6   14.15    1.38 
   2  10  -6   14.54    1.56 
  -2 -10   5   25.99    1.91 
  -2 -10   5   19.01    1.75 
   2  10  -5   25.17    1.77 
   2  10  -5   26.23    1.87 
   2  10  -5   27.93    2.06 
  -2 -10   4    1.67    0.63 
  -2 -10   4    0.44    0.48 
   2  10  -4    1.70    0.60 
   2  10  -4    0.90    0.53 
   2  10  -4    1.69    0.66 
  -2 -10   3   50.05    2.46 
  -2 -10   3   33.39    2.16 
   2  10  -3   47.34    2.28 
   2  10  -3   44.60    2.30 
   2  10  -3   49.13    2.57 
  -2 -10   2    1.94    0.62 
  -2 -10   2    1.20    0.54 
  -2 -10   2    1.30    0.51 
   2  10  -2    1.83    0.57 
   2  10  -2    0.70    0.40 
   2  10  -2    1.33    0.61 
  -2 -10   1   38.34    2.04 
  -2 -10   1   37.27    1.99 
  -2 -10   1   22.88    1.69 
  -2 -10   1   24.97    1.62 
   2  10  -1   37.34    1.95 
   2  10  -1    0.14    0.19 
   2  10  -1   37.06    2.17 
  -2 -10   0   15.86    1.30 
  -2 -10   0   12.91    1.16 
  -2 -10   0    8.87    1.05 
  -2 -10   0    8.66    1.00 
   2  10   0   13.36    1.19 
   2  10   0    2.29    0.53 
   2  10   0   12.72    1.31 
  -2 -10  -1   35.47    1.86 
  -2 -10  -1   35.61    1.81 
  -2 -10  -1   20.51    1.50 
  -2 -10  -1   19.30    1.49 
   2  10   1   31.37    1.75 
   2  10   1   25.45    1.63 
   2  10   1   29.54    1.90 
  -2 -10  -2   31.02    1.70 
  -2 -10  -2   31.10    1.63 
  -2 -10  -2   17.88    1.35 
  -2 -10  -2   17.58    1.44 
   2  10   2   30.95    1.72 
   2  10   2   29.23    1.73 
   2  10   2   28.45    1.85 
  -2 -10  -3   17.42    1.27 
  -2 -10  -3   11.34    1.06 
  -2 -10  -3   10.61    1.16 
   2  10   3   16.36    1.28 
   2  10   3   16.28    1.31 
   2  10   3   15.31    1.38 
  -2 -10  -4   34.17    1.72 
  -2 -10  -4   21.40    1.37 
  -2 -10  -4   18.80    1.53 
   2  10   4   33.15    1.78 
   2  10   4   32.50    1.81 
   2  10   4   32.30    1.94 
  -2 -10  -5    6.97    0.84 
  -2 -10  -5    5.65    0.71 
  -2 -10  -5    4.39    0.81 
   2  10   5    6.99    0.88 
   2  10   5    7.22    0.90 
   2  10   5    7.02    0.98 
  -2 -10  -6   71.60    2.42 
  -2 -10  -6   39.88    2.27 
   2  10   6   79.43    2.76 
   2  10   6   73.97    2.93 
  -2 -10  -7    0.13    0.36 
  -2 -10  -7    0.01    0.41 
   2  10   7    0.53    0.46 
   2  10   7    0.05    0.18 
   2  10   7    0.83    0.58 
  -2 -10  -8   40.35    2.36 
   2  10   8   73.38    2.73 
   2  10   8   69.76    2.90 
  -2 -10  -9    9.64    1.22 
   2  10   9   14.14    1.26 
   2  10   9   13.17    1.26 
   2  10   9   12.79    1.32 
  -2 -10 -10   21.69    1.80 
   2  10  10    0.07    0.21 
   2  10  10   34.81    2.01 
   2  10  10   35.06    2.14 
  -2 -10 -11   27.39    2.04 
   2  10  11   45.06    2.29 
   2  10  11   43.78    2.30 
   2  10  11   47.05    2.50 
  -2 -10 -12    6.85    1.10 
   2  10  12   10.94    1.21 
   2  10  12   12.49    1.31 
   2  10  12   13.39    1.43 
  -2 -10 -13   25.99    2.06 
   2  10  13   34.97    2.14 
   2  10  13   39.00    2.28 
   2  10  13   42.66    2.50 
  -2 -10 -14    1.72    0.72 
   2  10  14    2.01    0.70 
   2  10  14    1.85    0.69 
   2  10  14    1.53    0.72 
  -2 -10 -15   25.23    2.11 
   2  10  15   32.09    2.17 
   2  10  15   36.14    2.33 
   2  10  15   34.00    2.35 
  -2 -10 -16    0.93    0.66 
   2  10  16    0.96    0.64 
   2  10  16    1.88    0.75 
   2  10  16    1.50    0.75 
  -2 -11   4   14.31    1.59 
   2  11  -4   18.17    1.64 
   2  11  -4   21.53    1.88 
  -2 -11   3    4.02    0.90 
   2  11  -3    5.25    0.95 
   2  11  -3    5.59    1.04 
  -2 -11   2   21.54    1.81 
   2  11  -2   31.73    1.98 
   2  11  -2   29.53    1.98 
   2  11  -2   30.93    2.14 
  -2 -11   1   -0.22    0.39 
  -2 -11   1   -0.09    0.39 
   2  11  -1    0.49    0.48 
   2  11  -1    0.17    0.35 
   2  11  -1   -0.16    0.47 
  -2 -11   0   18.87    1.59 
  -2 -11   0   23.70    1.72 
   2  11   0   30.90    1.90 
   2  11   0    0.34    0.29 
   2  11   0   32.29    2.11 
  -2 -11  -1    4.04    0.78 
  -2 -11  -1    3.83    0.80 
   2  11   1    6.01    0.93 
   2  11   1    0.07    0.21 
   2  11   1    5.51    0.98 
  -2 -11  -2   21.52    1.59 
  -2 -11  -2   21.16    1.68 
   2  11   2   35.69    2.00 
   2  11   2   32.19    2.09 
  -2 -11  -3   22.22    1.56 
  -2 -11  -3   21.03    1.70 
   2  11   3   35.53    1.99 
   2  11   3   34.55    2.14 
  -2 -11  -4   14.29    1.45 
   2  11   4   23.12    1.62 
   2  11   4   23.24    1.77 
  -2 -11  -5   27.54    1.98 
   2  11   5   49.71    2.34 
   2  11   5   49.91    2.54 
  -2 -11  -6    1.27    0.60 
   2  11   6    3.21    0.75 
   2  11   6   -0.05    0.17 
   2  11   6    2.46    0.76 
  -2 -11  -7   33.64    2.25 
   2  11   7   55.00    2.49 
   2  11   7   53.89    2.66 
  -2 -11  -8    0.91    0.59 
   2  11   8    1.86    0.66 
   2  11   8    1.41    0.58 
   2  11   8    1.55    0.70 
  -2 -11  -9   33.81    2.32 
   2  11   9   65.83    2.80 
   2  11   9   58.71    2.70 
   2  11   9   59.17    2.84 
  -2 -11 -10    2.83    0.82 
   2  11  10    1.28    0.50 
   2  11  10    4.64    0.90 
   2  11  10    4.72    0.97 
  -2 -11 -11   31.21    2.30 
   2  11  11   54.35    2.70 
   2  11  11   56.34    2.85 
  -2 -11 -12   13.70    1.59 
   2  11  12   23.39    1.81 
   2  11  12   19.58    1.69 
   2  11  12   21.97    1.85 
  -2 -11 -13   13.07    1.58 
   2  11  13   19.20    1.69 
   2  11  13   20.67    1.78 
   2  11  13   17.62    1.72 
  -2 -12   0    1.90    0.69 
   2  12   0    1.28    0.54 
   2  12   0    2.35    0.81 
  -2 -12  -1   29.36    2.05 
   2  12   1    1.46    0.51 
   2  12   1   41.59    2.50 
  -2 -12  -2    0.31    0.51 
   2  12   2   -0.08    0.21 
   2  12   2    0.26    0.63 
  -2 -12  -3   27.86    2.06 
   2  12   3    0.21    0.27 
   2  12   3   43.48    2.52 
  -2 -12  -4   10.53    1.34 
   2  12   4    0.19    0.26 
   2  12   4   13.53    1.47 
  -2 -12  -5   10.37    1.34 
   2  12   5    0.02    0.23 
   2  12   5   19.04    1.70 
  -2 -12  -6   14.57    1.58 
   2  12   6    0.92    0.42 
   2  12   6   23.58    1.88 
  -2 -12  -7    3.78    0.90 
   2  12   7    1.95    0.61 
   2  12   7    7.67    1.16 
  -2 -12  -8   15.98    1.70 
   2  12   8   21.51    1.75 
   2  12   8   24.27    1.92 
  -2 -12  -9    1.19    0.66 
   2  12   9    2.26    0.75 
   2  12   9    2.93    0.83 
   2  12   9    2.89    0.85 
  -2 -12 -10   19.72    1.93 
   2  12  10   33.01    2.15 
   2  12  10   35.10    2.27 
   2  12  10   39.16    2.45 
  -3   9  10    2.13    0.87 
  -3   9  10    3.61    1.01 
   3  -9 -10    2.41    0.81 
  -3   9   9   39.13    2.67 
  -3   9   9   44.01    2.83 
   3  -9  -9   29.01    2.28 
  -3   9   8   13.55    1.63 
  -3   9   8   12.90    1.60 
   3  -9  -8    8.08    1.26 
  -3   9   7   32.00    2.40 
  -3   9   7   33.61    2.45 
   3  -9  -7   23.61    2.02 
  -3   9   6   31.24    2.35 
  -3   9   6   28.76    2.27 
   3  -9  -6   21.49    1.91 
  -3   9   5   16.09    1.73 
  -3   9   5   13.45    1.61 
   3  -9  -5   11.21    1.39 
  -3   9   4   41.83    2.70 
  -3   9   4   38.59    2.60 
   3  -9  -4   29.75    2.16 
  -3   9   3    2.26    0.88 
  -3   9   3    2.32    0.89 
   3  -9  -3    1.33    0.64 
  -3   9   2   56.19    3.12 
  -3   9   2   51.34    3.00 
   3  -9  -2   41.39    2.47 
  -3   9   1   -0.24    0.61 
  -3   9   1    0.20    0.66 
   3  -9  -1    0.19    0.45 
   3  -9  -1    0.51    0.54 
  -3   9   0   42.25    2.75 
  -3   9   0   41.07    2.72 
   3  -9   0   40.86    2.43 
   3  -9   0   41.54    2.41 
  -3   9  -1    8.58    1.36 
  -3   9  -1    8.79    1.38 
   3  -9   1    7.02    1.12 
  -3   8  13   17.23    1.83 
  -3   8  13   16.83    1.81 
   3  -8 -13   11.90    1.53 
  -3   8  12   27.71    2.24 
  -3   8  12   25.78    2.16 
   3  -8 -12   18.97    1.86 
  -3   8  11    3.56    0.94 
  -3   8  11    3.19    0.91 
   3  -8 -11    3.70    0.91 
  -3   8  10   33.77    2.38 
  -3   8  10   39.48    2.57 
   3  -8 -10   23.41    1.99 
  -3   8   9    0.00    0.55 
  -3   8   9   -0.29    0.50 
   3  -8  -9    0.66    0.55 
  -3   8   8   49.07    2.79 
  -3   8   8   48.31    2.77 
   3  -8  -8   31.35    2.22 
  -3   8   7    6.85    1.14 
  -3   8   7    8.09    1.23 
   3  -8  -7    4.27    0.91 
  -3   8   6   46.63    2.68 
  -3   8   6   47.58    2.71 
   3  -8  -6   33.26    2.22 
  -3   8   5   25.32    2.00 
  -3   8   5   26.53    2.04 
   3  -8  -5   15.95    1.55 
  -3   8   4   22.89    1.90 
  -3   8   4   22.35    1.88 
   3  -8  -4   23.44    1.55 
   3  -8  -4   16.45    1.54 
  -3   8   3   42.43    2.55 
  -3   8   3   40.87    2.51 
   3  -8  -3   40.46    2.09 
   3  -8  -3   29.38    2.01 
  -3   8   2    3.43    0.90 
  -3   8   2    3.32    0.90 
   3  -8  -2    0.01    0.17 
   3  -8  -2    3.60    0.78 
  -3   8   1   52.15    2.84 
  -3   8   1   47.20    2.71 
   3  -8  -1   48.62    2.43 
   3  -8  -1   42.96    2.35 
  -3   8   0    0.14    0.58 
  -3   8   0   -0.49    0.49 
   3  -8   0    0.06    0.41 
   3  -8   0    0.13    0.45 
  -3   8  -1   46.39    2.72 
  -3   8  -1   50.20    2.84 
   3  -8   1   40.31    2.34 
   3  -8   1   43.97    2.30 
  -3   8  -2    3.47    0.92 
  -3   8  -2    2.63    0.85 
   3  -8   2    3.24    0.80 
   3  -8   2    3.36    0.75 
  -3   8  -3   30.03    2.28 
  -3   8  -3   30.82    2.30 
   3  -8   3   25.84    2.00 
  -3   8  -4   12.13    1.53 
  -3   8  -4   12.56    1.55 
   3  -8   4    9.18    1.27 
  -3   8  -5   14.39    1.68 
  -3   8  -5   14.88    1.70 
   3  -8   5   10.90    1.41 
  -3   7  15    0.14    0.58 
  -3   7  15    0.36    0.63 
   3  -7 -15    0.10    0.53 
  -3   7  14   28.94    2.27 
  -3   7  14   32.61    2.41 
   3  -7 -14   23.90    2.04 
  -3   7  13    7.74    1.23 
  -3   7  13    7.75    1.24 
   3  -7 -13    5.54    1.05 
  -3   7  12   37.18    2.46 
  -3   7  12   39.54    2.53 
   3  -7 -12   26.43    2.07 
  -3   7  11   16.38    1.65 
  -3   7  11   16.61    1.65 
   3  -7 -11   13.60    1.50 
  -3   7  10   17.89    1.68 
  -3   7  10   18.46    1.70 
   3  -7 -10   10.60    1.32 
  -3   7   9   45.11    2.56 
  -3   7   9   45.27    2.57 
   3  -7  -9   32.09    2.17 
  -3   7   8    1.43    0.67 
  -3   7   8    1.59    0.68 
   3  -7  -8    1.36    0.59 
  -3   7   7   62.01    2.93 
  -3   7   7   64.86    2.98 
   3  -7  -7   43.45    2.44 
  -3   7   6    1.00    0.61 
  -3   7   6    1.39    0.64 
   3  -7  -6    0.96    0.52 
  -3   7   5   85.38    3.38 
  -3   7   5   88.42    3.44 
   3  -7  -5   90.26    2.75 
   3  -7  -5   58.16    2.73 
  -3   7   4   26.86    1.93 
  -3   7   4   25.93    1.88 
   3  -7  -4   25.91    1.54 
   3  -7  -4   20.86    1.64 
  -3   7   3   34.22    2.16 
  -3   7   3   38.04    2.27 
   3  -7  -3   34.56    1.82 
   3  -7  -3   26.50    1.80 
  -3   7   2   41.11    2.36 
  -3   7   2   41.79    2.37 
   3  -7  -2   22.79    1.52 
   3  -7  -2   30.14    1.89 
  -3   7   1   24.03    1.85 
  -3   7   1   21.44    1.75 
   3  -7  -1   21.45    1.54 
   3  -7  -1   19.89    1.53 
  -3   7   0   72.31    3.15 
  -3   7   0   71.79    3.13 
   3  -7   0   62.33    2.67 
   3  -7   0   59.04    2.55 
  -3   7  -1    1.41    0.66 
  -3   7  -1    1.87    0.71 
   3  -7   1    2.83    0.69 
   3  -7   1    2.72    0.65 
  -3   7  -2   64.74    3.04 
  -3   7  -2   70.03    3.16 
   3  -7   2   59.52    2.75 
   3  -7   2   65.73    2.60 
  -3   7  -3    0.61    0.60 
  -3   7  -3    0.19    0.54 
   3  -7   3   -0.28    0.35 
   3  -7   3    0.55    0.44 
  -3   7  -4   56.80    2.94 
  -3   7  -4   61.81    3.06 
   3  -7   4   49.31    2.65 
  -3   7  -5    8.01    1.21 
  -3   7  -5    7.12    1.17 
  -3   7  -5    5.61    0.88 
   3  -7   5    6.79    1.09 
  -3   7  -6   25.90    2.09 
  -3   7  -6   23.95    2.01 
  -3   7  -6   20.76    1.64 
   3  -7   6   19.41    1.79 
  -3   7  -7   20.24    1.91 
  -3   7  -7   18.44    1.82 
  -3   7  -7   17.65    1.59 
   3  -7   7   15.75    1.67 
  -3   7  -8   10.34    1.44 
  -3   7  -8   11.08    1.49 
  -3   7  -8    8.54    1.20 
   3  -7   8    8.26    1.28 
  -3   6  16    3.90    0.97 
  -3   6  16    2.61    0.83 
   3  -6 -16    3.62    0.91 
  -3   6  15   28.91    2.24 
  -3   6  15   28.95    2.23 
   3  -6 -15   23.30    1.96 
  -3   6  14    1.38    0.69 
  -3   6  14    1.81    0.72 
   3  -6 -14    1.22    0.61 
  -3   6  13   45.64    2.65 
  -3   6  13   45.60    2.65 
   3  -6 -13   34.77    2.29 
  -3   6  12    7.43    1.12 
  -3   6  12    6.36    1.07 
   3  -6 -12    3.98    0.87 
  -3   6  11   52.91    2.73 
  -3   6  11   48.54    2.62 
   3  -6 -11   33.97    2.18 
  -3   6  10   26.10    1.90 
  -3   6  10   25.34    1.87 
   3  -6 -10   18.63    1.61 
  -3   6   9   30.95    2.02 
  -3   6   9   30.93    2.02 
   3  -6  -9   21.46    1.70 
  -3   6   8   45.65    2.41 
  -3   6   8   45.87    2.41 
   3  -6  -8   31.05    1.99 
  -3   6   7   21.81    1.67 
  -3   6   7   20.15    1.61 
   3  -6  -7   24.34    1.26 
   3  -6  -7   15.28    1.39 
  -3   6   6  137.02    4.06 
  -3   6   6  138.27    4.07 
   3  -6  -6  143.88    3.19 
   3  -6  -6   87.71    3.22 
  -3   6   5    1.14    0.58 
  -3   6   5    0.08    0.46 
   3  -6  -5    0.00    0.32 
   3  -6  -5    0.21    0.40 
  -3   6   4  149.56    4.19 
  -3   6   4  147.02    4.15 
   3  -6  -4  148.55    3.46 
   3  -6  -4  104.62    3.41 
  -3   6   3   13.31    1.30 
  -3   6   3   12.18    1.26 
   3  -6  -3   12.81    1.07 
   3  -6  -3   10.23    1.09 
  -3   6   2  117.36    3.70 
  -3   6   2  114.52    3.65 
   3  -6  -2  108.12    3.12 
   3  -6  -2   83.61    2.96 
  -3   6   1   75.36    2.99 
  -3   6   1   71.01    2.89 
  -3   6   1   55.58    1.70 
   3  -6  -1   66.97    2.52 
   3  -6  -1   56.03    2.39 
  -3   6   0   68.21    2.86 
  -3   6   0   72.21    2.94 
  -3   6   0   52.92    1.80 
   3  -6   0   60.35    2.47 
   3  -6   0   54.27    2.31 
  -3   6  -1   74.86    3.02 
  -3   6  -1   74.22    3.00 
  -3   6  -1   56.46    1.98 
   3  -6   1   60.28    2.53 
   3  -6   1   63.72    2.46 
  -3   6  -2   17.02    1.51 
  -3   6  -2   16.48    1.50 
  -3   6  -2   12.90    1.04 
   3  -6   2   12.23    1.21 
   3  -6   2   16.04    1.24 
  -3   6  -3   85.22    3.31 
  -3   6  -3   95.54    3.50 
  -3   6  -3   70.26    2.47 
   3  -6   3   73.94    2.97 
   3  -6   3   85.01    2.74 
  -3   6  -4    3.74    0.85 
  -3   6  -4    3.44    0.81 
  -3   6  -4    3.03    0.63 
   3  -6   4    3.55    0.76 
   3  -6   4    3.67    0.64 
  -3   6  -5   76.17    3.25 
  -3   6  -5   80.50    3.33 
  -3   6  -5   64.02    2.59 
   3  -6   5   63.28    2.91 
  -3   6  -6    4.73    0.95 
  -3   6  -6    3.46    0.86 
  -3   6  -6    4.11    0.77 
   3  -6   6    3.62    0.82 
  -3   6  -7   38.97    2.44 
  -3   6  -7   40.34    2.48 
  -3   6  -7   34.17    2.07 
   3  -6   7   31.57    2.19 
  -3   6  -8   10.23    1.34 
  -3   6  -8   11.68    1.43 
  -3   6  -8   12.61    1.35 
   3  -6   8    9.70    1.30 
  -3   6  -9   14.54    1.61 
  -3   6  -9   17.71    1.52 
  -3   6  -9   19.52    1.85 
  -3   6  -9   17.89    1.65 
   3  -6   9   16.02    1.67 
  -3   6 -10   26.77    2.20 
  -3   6 -10   25.13    1.87 
  -3   6 -10   25.20    2.14 
  -3   6 -10   24.09    1.98 
   3  -6  10   22.55    2.02 
  -3   5  17   15.50    1.72 
   3  -5 -17   17.26    1.69 
  -3   5  16   17.29    1.76 
   3  -5 -16   15.37    1.56 
  -3   5  15   15.73    1.63 
   3  -5 -15   15.64    1.54 
  -3   5  14   43.53    2.56 
   3  -5 -14   36.39    2.26 
  -3   5  13    2.91    0.79 
  -3   5  13    4.02    0.87 
   3  -5 -13    3.27    0.77 
  -3   5  12   51.15    2.62 
  -3   5  12   54.35    2.70 
   3  -5 -12   43.24    2.38 
  -3   5  11    0.18    0.43 
  -3   5  11   -0.35    0.37 
   3  -5 -11    0.37    0.45 
  -3   5  10   72.64    2.98 
  -3   5  10   68.06    2.88 
   3  -5 -10   51.39    2.50 
  -3   5   9    2.64    0.69 
  -3   5   9    3.28    0.73 
   3  -5  -9    1.76    0.59 
  -3   5   8   82.23    3.04 
  -3   5   8   83.41    3.05 
   3  -5  -8   92.06    2.26 
  -3   5   7   53.99    2.43 
  -3   5   7   51.68    2.37 
   3  -5  -7   58.96    1.86 
   3  -5  -7   33.87    1.93 
  -3   5   6   51.92    2.35 
  -3   5   6   57.62    2.46 
   3  -5  -6   59.04    1.92 
   3  -5  -6   35.98    1.96 
  -3   5   5   95.65    3.15 
  -3   5   5   92.63    3.09 
   3  -5  -5   97.84    2.55 
   3  -5  -5   64.11    2.56 
  -3   5   4   13.14    1.20 
  -3   5   4   12.62    1.18 
  -3   5   4   10.37    0.51 
   3  -5  -4   13.00    0.98 
   3  -5  -4    9.68    1.02 
  -3   5   3  104.79    3.26 
  -3   5   3  111.09    3.35 
  -3   5   3   83.37    1.68 
   3  -5  -3   77.16    2.39 
   3  -5  -3   80.48    2.78 
  -3   5   2    4.60    0.78 
  -3   5   2    4.97    0.80 
  -3   5   2    3.14    0.40 
   3  -5  -2    4.03    0.62 
   3  -5  -2    3.24    0.62 
  -3   5   1   74.01    2.75 
  -3   5   1   77.32    2.79 
  -3   5   1   57.72    1.68 
   3  -5  -1   85.94    2.06 
   3  -5  -1   67.12    2.37 
   3  -5  -1   61.53    2.35 
  -3   5   0   42.22    2.10 
  -3   5   0   39.96    1.07 
  -3   5   0   44.94    2.16 
  -3   5   0   33.65    1.38 
   3  -5   0   41.61    1.92 
   3  -5   0   33.62    1.72 
  -3   5  -1   69.37    2.71 
  -3   5  -1   64.50    1.59 
  -3   5  -1   70.24    2.72 
  -3   5  -1   56.60    1.90 
   3  -5   1   60.56    2.39 
   3  -5   1   58.80    2.23 
  -3   5  -2   90.13    3.13 
  -3   5  -2   79.90    1.98 
  -3   5  -2   93.10    3.17 
  -3   5  -2   69.84    2.24 
   3  -5   2   73.47    2.71 
   3  -5   2   76.83    2.50 
  -3   5  -3   42.98    2.21 
  -3   5  -3   37.03    1.47 
  -3   5  -3   43.51    2.21 
  -3   5  -3   33.27    1.63 
   3  -5   3   35.38    1.94 
   3  -5   3   41.06    1.80 
  -3   5  -4  117.37    3.71 
  -3   5  -4   98.74    2.58 
  -3   5  -4  112.66    3.62 
  -3   5  -4   92.46    2.85 
   3  -5   4   94.55    3.25 
   3  -5   4  114.01    2.94 
  -3   5  -5    0.35    0.50 
  -3   5  -5    0.87    0.39 
  -3   5  -5    0.97    0.54 
  -3   5  -5    0.46    0.39 
   3  -5   5    0.71    0.46 
   3  -5   5    0.74    0.39 
  -3   5  -6   70.75    3.00 
  -3   5  -6   62.08    2.31 
  -3   5  -6   67.33    2.92 
  -3   5  -6   60.81    2.53 
   3  -5   6   53.76    2.60 
  -3   5  -7    3.33    0.81 
  -3   5  -7    2.62    0.60 
  -3   5  -7    3.10    0.77 
  -3   5  -7    2.19    0.60 
   3  -5   7    2.90    0.73 
  -3   5  -8   25.41    1.93 
  -3   5  -8   26.39    1.69 
  -3   5  -8   28.80    2.03 
  -3   5  -8   25.71    1.80 
   3  -5   8   22.27    1.79 
  -3   5  -9    9.35    1.25 
  -3   5  -9    8.51    1.05 
  -3   5  -9    8.94    1.23 
  -3   5  -9    9.06    1.15 
   3  -5   9    7.03    1.09 
  -3   5 -10   24.86    2.01 
  -3   5 -10   26.02    1.84 
  -3   5 -10   23.82    1.88 
   3  -5  10   22.54    1.91 
  -3   5 -11   20.08    1.88 
  -3   5 -11   21.16    1.74 
  -3   5 -11   20.52    1.82 
   3  -5  11   17.44    1.75 
  -3   5 -12    5.89    1.15 
  -3   5 -12    5.53    1.02 
   3  -5  12    3.85    0.95 
  -3   4  18   23.06    2.09 
  -3   4  18   27.50    2.02 
   3  -4 -18   22.92    2.07 
   3  -4 -18   25.39    1.96 
  -3   4  17    2.48    0.83 
  -3   4  17    2.95    0.76 
   3  -4 -17    2.37    0.82 
   3  -4 -17    2.46    0.74 
  -3   4  16   26.76    2.09 
  -3   4  16   26.99    1.82 
   3  -4 -16   25.96    2.06 
   3  -4 -16   26.27    1.91 
  -3   4  15   17.88    1.68 
  -3   4  15   19.00    1.48 
   3  -4 -15   19.67    1.75 
   3  -4 -15   18.05    1.57 
  -3   4  14   24.37    1.88 
  -3   4  14   27.03    1.66 
   3  -4 -14   23.39    1.74 
  -3   4  13   33.94    2.13 
  -3   4  13   37.25    1.83 
   3  -4 -13   30.01    1.93 
  -3   4  12   15.59    1.44 
  -3   4  12   16.35    1.17 
   3  -4 -12   13.09    1.28 
  -3   4  11   87.78    3.21 
  -3   4  11   93.14    2.57 
   3  -4 -11   72.96    2.87 
  -3   4  10    3.11    0.69 
  -3   4  10    3.50    0.73 
  -3   4  10    3.57    0.54 
   3  -4 -10    3.26    0.45 
   3  -4 -10    2.04    0.58 
  -3   4   9   95.44    3.17 
  -3   4   9   94.38    3.15 
  -3   4   9   97.11    2.27 
   3  -4  -9  105.85    2.33 
   3  -4  -9   67.62    2.66 
  -3   4   8   16.12    1.30 
  -3   4   8   15.31    1.26 
  -3   4   8   16.17    0.86 
   3  -4  -8   17.63    0.97 
   3  -4  -8   11.54    1.12 
  -3   4   7   55.12    2.31 
  -3   4   7   58.82    2.37 
  -3   4   7   64.44    1.50 
   3  -4  -7   61.49    1.83 
   3  -4  -7   39.40    1.97 
  -3   4   6   42.19    1.98 
  -3   4   6   40.41    1.93 
  -3   4   6   44.74    1.05 
   3  -4  -6   40.89    1.53 
   3  -4  -6   27.15    1.61 
  -3   4   5   46.56    2.05 
  -3   4   5   47.15    2.06 
  -3   4   5   41.10    0.99 
   3  -4  -5   48.29    1.70 
   3  -4  -5   32.46    1.73 
  -3   4   4   81.16    2.68 
  -3   4   4   81.30    2.66 
  -3   4   4   71.05    1.44 
   3  -4  -4   92.79    1.65 
   3  -4  -4   81.66    2.27 
   3  -4  -4   55.84    2.22 
  -3   4   3   42.37    1.93 
  -3   4   3   41.73    1.90 
  -3   4   3   35.66    1.09 
   3  -4  -3   48.86    1.28 
   3  -4  -3    0.00    0.09 
   3  -4  -3   31.45    1.64 
  -3   4   2   92.03    2.83 
  -3   4   2   94.50    2.85 
  -3   4   2   74.26    1.72 
   3  -4  -2  103.96    2.06 
   3  -4  -2   84.48    2.43 
   3  -4  -2   68.14    2.37 
  -3   4   1    0.02    0.37 
  -3   4   1   -0.04    0.36 
  -3   4   1    0.18    0.23 
   3  -4  -1    0.31    0.16 
   3  -4  -1    0.59    0.27 
   3  -4  -1   -0.14    0.24 
   3  -4  -1    0.05    0.31 
  -3   4   0  155.08    3.73 
  -3   4   0  125.71    2.00 
  -3   4   0  157.96    3.75 
  -3   4   0  124.44    2.58 
   3  -4   0  177.73    2.42 
   3  -4   0  170.06    3.05 
   3  -4   0  131.02    3.23 
   3  -4   0  125.62    3.13 
  -3   4  -1    7.79    0.90 
  -3   4  -1    5.55    0.49 
  -3   4  -1    6.86    0.86 
  -3   4  -1    5.37    0.60 
   3  -4   1    8.34    0.59 
   3  -4   1    5.63    0.74 
   3  -4   1    5.46    0.69 
  -3   4  -2   75.20    2.65 
  -3   4  -2   61.34    1.69 
  -3   4  -2   76.48    2.66 
  -3   4  -2   61.19    2.00 
   3  -4   2   62.63    2.35 
   3  -4   2   68.06    2.22 
  -3   4  -3  118.51    3.40 
  -3   4  -3   93.44    2.27 
  -3   4  -3  127.17    3.50 
  -3   4  -3   96.88    2.66 
   3  -4   3  110.82    1.90 
   3  -4   3   98.61    3.04 
   3  -4   3  111.42    2.80 
  -3   4  -4   23.50    1.57 
  -3   4  -4   19.82    1.13 
  -3   4  -4   25.55    1.62 
  -3   4  -4   19.22    1.26 
   3  -4   4   21.75    0.93 
   3  -4   4   20.21    1.43 
   3  -4   4   21.81    1.22 
  -3   4  -5  105.94    3.36 
  -3   4  -5   90.76    2.55 
  -3   4  -5  108.44    3.38 
  -3   4  -5   87.20    2.77 
   3  -4   5   99.06    2.22 
   3  -4   5   87.91    3.04 
   3  -4   5  111.54    2.68 
  -3   4  -6    4.77    0.83 
  -3   4  -6    4.37    0.65 
  -3   4  -6    4.77    0.82 
  -3   4  -6    3.79    0.68 
   3  -4   6    4.19    0.54 
   3  -4   6    3.63    0.72 
   3  -4   6    5.42    0.63 
  -3   4  -7   71.78    2.91 
  -3   4  -7   61.55    2.34 
  -3   4  -7   71.47    2.89 
  -3   4  -7   60.46    2.52 
  -3   4  -7   77.67    2.09 
   3  -4   7   66.46    2.11 
   3  -4   7   59.03    2.64 
  -3   4  -8   -0.02    0.44 
  -3   4  -8    0.19    0.36 
  -3   4  -8   -0.11    0.41 
  -3   4  -8    0.14    0.39 
   3  -4   8    0.14    0.30 
   3  -4   8    0.07    0.40 
  -3   4  -9   53.06    2.66 
  -3   4  -9   51.53    2.37 
  -3   4  -9   51.39    2.60 
  -3   4  -9   47.41    2.42 
   3  -4   9   50.60    2.08 
   3  -4   9   46.99    2.51 
  -3   4 -10    4.82    0.92 
  -3   4 -10    6.00    0.92 
  -3   4 -10    5.56    0.94 
   3  -4  10    6.19    0.83 
   3  -4  10    4.51    0.90 
  -3   4 -11   43.10    2.56 
  -3   4 -11   42.36    2.35 
  -3   4 -11   40.90    2.43 
   3  -4  11   44.84    2.18 
   3  -4  11   38.77    2.41 
  -3   4 -12   13.60    1.54 
  -3   4 -12   14.16    1.46 
  -3   4 -12   12.82    1.45 
   3  -4  12   15.44    1.38 
   3  -4  12   10.75    1.37 
  -3   4 -13    4.04    0.97 
  -3   4 -13    5.45    1.03 
   3  -4  13    4.23    0.81 
   3  -4  13    4.07    0.95 
  -3   4 -14   16.86    1.81 
  -3   4 -14   19.84    1.86 
   3  -4  14    7.51    1.07 
   3  -4  14   16.57    1.77 
  -3   3  18    2.03    0.72 
   3  -3 -18    0.71    0.63 
  -3   3  17   26.69    1.93 
   3  -3 -17   23.21    1.97 
  -3   3  16    0.08    0.41 
   3  -3 -16    0.07    0.48 
   3  -3 -16    0.08    0.42 
  -3   3  15   31.68    1.91 
   3  -3 -15   26.82    1.97 
   3  -3 -15   26.27    1.78 
  -3   3  14    7.13    0.92 
   3  -3 -14    7.54    1.08 
   3  -3 -14    7.61    0.83 
   3  -3 -14    8.10    1.01 
  -3   3  13   42.26    2.30 
  -3   3  13   44.24    2.03 
   3  -3 -13   43.07    2.32 
   3  -3 -13   44.31    1.80 
   3  -3 -13   39.29    2.09 
  -3   3  12   49.76    2.41 
  -3   3  12   51.73    2.08 
   3  -3 -12   50.68    2.43 
   3  -3 -12   52.12    1.83 
   3  -3 -12   46.81    2.23 
  -3   3  11    4.93    0.81 
  -3   3  11    6.43    0.60 
  -3   3  11    6.13    0.72 
  -3   3  11    6.52    0.62 
   3  -3 -11    4.94    0.78 
  -3   3  10  102.10    3.23 
  -3   3  10  107.31    2.30 
  -3   3  10  114.39    2.25 
  -3   3  10   97.34    2.53 
   3  -3 -10  107.84    2.38 
   3  -3 -10   86.03    2.91 
  -3   3   9    0.19    0.38 
  -3   3   9    0.31    0.25 
  -3   3   9    0.47    0.25 
  -3   3   9    0.50    0.24 
  -3   3   9    0.87    0.33 
   3  -3  -9    0.30    0.26 
   3  -3  -9    0.48    0.38 
  -3   3   8  103.83    3.07 
  -3   3   8   96.87    1.83 
  -3   3   8  118.27    2.04 
  -3   3   8  104.92    3.07 
  -3   3   8   99.83    1.88 
  -3   3   8  120.84    2.09 
  -3   3   8  106.45    2.27 
   3  -3  -8  113.39    2.44 
   3  -3  -8   85.86    2.80 
  -3   3   7    9.25    0.93 
  -3   3   7    7.70    0.47 
  -3   3   7    9.64    0.52 
  -3   3   7    8.84    0.91 
  -3   3   7    7.36    0.50 
  -3   3   7    9.20    0.56 
  -3   3   7    9.57    0.63 
   3  -3  -7    9.11    0.71 
   3  -3  -7    6.15    0.79 
  -3   3   6   82.22    2.59 
  -3   3   6   69.91    1.21 
  -3   3   6   92.07    1.43 
  -3   3   6   82.26    2.58 
  -3   3   6   86.30    1.65 
  -3   3   6   83.93    1.62 
   3  -3  -6   90.77    2.21 
   3  -3  -6   59.08    2.23 
  -3   3   5   28.59    1.50 
  -3   3   5   28.68    1.50 
  -3   3   5   27.92    0.92 
  -3   3   5   27.78    0.75 
  -3   3   5   30.65    0.80 
   3  -3  -5   27.81    1.24 
   3  -3  -5   20.13    1.29 
  -3   3   4  168.67    3.62 
  -3   3   4  178.96    3.71 
  -3   3   4  170.40    2.46 
   3  -3  -4  175.21    3.23 
   3  -3  -4  124.18    3.14 
  -3   3   3  109.11    2.86 
  -3   3   3  106.70    2.80 
  -3   3   3  101.71    1.92 
   3  -3  -3  125.71    2.15 
   3  -3  -3   99.24    2.44 
   3  -3  -3   78.91    2.45 
  -3   3   2   36.24    1.64 
  -3   3   2   36.90    1.63 
  -3   3   2   33.97    1.15 
   3  -3  -2   41.32    0.87 
   3  -3  -2   42.55    1.28 
   3  -3  -2   35.02    1.48 
   3  -3  -2   27.23    1.42 
  -3   3   1  149.39    3.35 
  -3   3   1  115.73    1.75 
  -3   3   1  149.06    3.32 
  -3   3   1  124.98    2.37 
   3  -3  -1  167.41    2.15 
   3  -3  -1  161.48    2.72 
   3  -3  -1  134.79    3.00 
   3  -3  -1  111.53    2.83 
  -3   3   0    2.08    0.50 
  -3   3   0    1.45    0.26 
  -3   3   0    1.75    0.48 
  -3   3   0    1.64    0.35 
   3  -3   0    2.24    0.31 
   3  -3   0    2.72    0.42 
   3  -3   0    1.75    0.42 
   3  -3   0    1.63    0.42 
  -3   3  -1  199.14    3.97 
  -3   3  -1  160.90    2.54 
  -3   3  -1  209.48    4.04 
  -3   3  -1  165.47    3.06 
   3  -3   1  232.13    3.12 
   3  -3   1  220.29    3.58 
   3  -3   1  187.36    3.77 
   3  -3   1  169.11    3.41 
  -3   3  -2   10.92    0.98 
  -3   3  -2    8.58    0.64 
  -3   3  -2   11.70    1.00 
  -3   3  -2    9.01    0.76 
   3  -3   2   11.32    0.46 
   3  -3   2   12.32    0.48 
   3  -3   2    9.32    0.88 
   3  -3   2    9.36    0.80 
  -3   3  -3  184.36    3.96 
  -3   3  -3  149.53    2.84 
  -3   3  -3  183.48    3.91 
  -3   3  -3  150.75    3.21 
   3  -3   3  176.69    2.39 
   3  -3   3  163.20    3.71 
   3  -3   3  176.02    3.37 
  -3   3  -4   12.93    1.10 
  -3   3  -4    9.82    0.79 
  -3   3  -4   14.18    1.14 
  -3   3  -4   11.10    0.93 
   3  -3   4   12.27    0.69 
   3  -3   4   11.51    1.04 
   3  -3   4   12.09    0.88 
  -3   3  -5  105.19    3.12 
  -3   3  -5   87.31    2.43 
  -3   3  -5  107.69    3.13 
  -3   3  -5   88.47    2.68 
   3  -3   5   96.17    2.11 
   3  -3   5   85.85    2.83 
   3  -3   5  105.19    2.48 
  -3   3  -6  105.78    3.23 
  -3   3  -6   85.16    2.54 
  -3   3  -6   97.30    3.06 
  -3   3  -6   81.87    2.69 
  -3   3  -6  103.99    2.40 
   3  -3   6   89.22    2.21 
   3  -3   6   79.78    2.81 
  -3   3  -7   37.78    1.99 
  -3   3  -7   32.88    1.67 
  -3   3  -7   39.85    2.03 
  -3   3  -7   31.33    1.75 
  -3   3  -7   41.18    1.45 
   3  -3   7   35.65    1.50 
   3  -3   7   33.80    1.89 
  -3   3  -8   81.20    3.00 
  -3   3  -8   78.45    2.70 
  -3   3  -8   83.93    3.03 
  -3   3  -8   76.80    2.83 
  -3   3  -8   92.55    2.11 
   3  -3   8   80.51    2.41 
   3  -3   8   70.76    2.81 
  -3   3  -9    1.40    0.57 
  -3   3  -9    1.03    0.47 
  -3   3  -9    2.06    0.63 
  -3   3  -9    1.30    0.51 
   3  -3   9    1.01    0.41 
   3  -3   9    0.84    0.50 
  -3   3 -10   90.31    3.38 
  -3   3 -10   88.14    3.14 
  -3   3 -10   84.53    3.22 
   3  -3  10   84.97    2.78 
   3  -3  10   83.11    3.23 
  -3   3 -11    2.84    0.76 
  -3   3 -11    2.14    0.64 
  -3   3 -11    2.47    0.70 
   3  -3  11    2.81    0.62 
   3  -3  11    2.30    0.69 
  -3   3 -12   42.54    2.49 
  -3   3 -12   42.61    2.39 
  -3   3 -12   45.51    2.56 
   3  -3  12   12.12    1.17 
   3  -3  12   38.91    2.37 
  -3   3 -13    8.75    1.25 
  -3   3 -13    8.73    1.19 
  -3   3 -13    7.00    1.12 
   3  -3  13    6.91    0.99 
   3  -3  13    7.60    1.15 
  -3   3 -14   17.62    1.76 
  -3   3 -14   22.01    1.88 
   3  -3  14   19.86    1.66 
   3  -3  14   20.47    1.84 
  -3   3 -15    8.39    1.33 
  -3   3 -15    7.11    1.19 
   3  -3  15    7.02    1.10 
   3  -3  15    8.37    1.29 
  -3   2  18   20.22    1.81 
   3  -2 -18   17.18    1.75 
  -3   2  17    4.91    0.93 
   3  -2 -17    3.62    0.87 
   3  -2 -17    4.45    0.83 
   3  -2 -17    5.27    0.85 
  -3   2  16   33.17    2.09 
   3  -2 -16   27.82    2.04 
   3  -2 -16   30.11    1.84 
   3  -2 -16   33.99    1.95 
  -3   2  15    0.06    0.41 
   3  -2 -15    0.07    0.44 
   3  -2 -15    0.03    0.33 
   3  -2 -15    0.04    0.26 
  -3   2  14   76.99    2.87 
   3  -2 -14   72.83    3.03 
   3  -2 -14   70.64    2.55 
   3  -2 -14   77.01    2.81 
  -3   2  13    5.99    0.82 
  -3   2  13    7.48    0.73 
   3  -2 -13    5.40    0.87 
   3  -2 -13    6.32    0.77 
   3  -2 -13    6.23    0.85 
  -3   2  12   51.45    2.12 
  -3   2  12   52.07    1.78 
   3  -2 -12   46.59    2.26 
   3  -2 -12   48.67    1.91 
   3  -2 -12   44.58    2.06 
  -3   2  11   22.89    1.35 
  -3   2  11   23.42    1.18 
   3  -2 -11   22.44    1.52 
   3  -2 -11   22.43    1.23 
   3  -2 -11   19.81    1.36 
  -3   2  10   70.44    2.57 
  -3   2  10   74.41    2.02 
  -3   2  10   67.68    2.17 
  -3   2  10   74.60    2.05 
   3  -2 -10   69.83    2.56 
   3  -2 -10   69.40    2.03 
   3  -2 -10   70.36    1.99 
   3  -2 -10   60.35    2.31 
  -3   2   9   47.87    2.05 
  -3   2   9   47.40    1.53 
  -3   2   9   52.42    1.61 
  -3   2   9   43.85    1.63 
   3  -2  -9   48.69    2.06 
   3  -2  -9   49.05    1.63 
   3  -2  -9   38.70    1.82 
  -3   2   8   13.64    1.08 
  -3   2   8   15.31    0.84 
  -3   2   8   13.23    0.79 
  -3   2   8   14.52    0.82 
  -3   2   8   12.30    0.81 
   3  -2  -8   14.47    0.89 
   3  -2  -8   11.15    0.98 
  -3   2   7  143.87    3.34 
  -3   2   7  132.49    2.31 
  -3   2   7  152.06    2.50 
  -3   2   7  142.75    2.48 
  -3   2   7  154.63    2.59 
  -3   2   7  126.01    2.40 
   3  -2  -7  147.05    2.82 
   3  -2  -7  104.87    2.88 
  -3   2   6    1.20    0.38 
  -3   2   6    0.28    0.22 
  -3   2   6    0.71    0.23 
  -3   2   6   -0.08    0.27 
  -3   2   6   -0.06    0.20 
  -3   2   6    0.11    0.19 
   3  -2  -6    0.19    0.23 
   3  -2  -6    0.12    0.28 
  -3   2   5  227.58    4.03 
  -3   2   5  209.57    2.63 
  -3   2   5  243.12    2.91 
  -3   2   5  227.64    3.99 
  -3   2   5  234.54    3.12 
  -3   2   5  197.32    2.54 
   3  -2  -5  224.17    3.55 
   3  -2  -5  158.84    3.44 
  -3   2   4   26.61    1.32 
  -3   2   4   26.26    0.81 
  -3   2   4   29.02    0.85 
  -3   2   4   26.65    1.30 
  -3   2   4   26.27    0.97 
  -3   2   4   25.84    0.70 
  -3   2   4   27.78    0.73 
   3  -2  -4    0.08    0.10 
   3  -2  -4   19.65    1.18 
  -3   2   3  251.46    4.10 
  -3   2   3  260.51    2.89 
  -3   2   3  264.30    2.86 
  -3   2   3  252.54    4.07 
  -3   2   3  251.28    3.27 
   3  -2  -3  277.83    3.45 
   3  -2  -3  252.69    3.86 
   3  -2  -3  184.47    3.60 
  -3   2   2   68.07    2.04 
  -3   2   2   67.05    1.31 
  -3   2   2   68.84    2.03 
  -3   2   2   65.57    1.60 
   3  -2  -2   73.53    1.37 
   3  -2  -2   76.79    1.74 
   3  -2  -2   66.91    1.94 
   3  -2  -2   52.96    1.86 
  -3   2   1   38.19    1.53 
  -3   2   1   36.60    1.01 
  -3   2   1   37.37    1.49 
  -3   2   1   35.80    1.23 
   3  -2  -1   45.02    1.11 
   3  -2  -1   42.76    1.34 
   3  -2  -1   34.42    1.41 
   3  -2  -1   29.12    1.36 
  -3   2   0   64.36    2.00 
  -3   2   0   56.00    1.34 
  -3   2   0   63.41    1.95 
  -3   2   0   56.57    1.61 
   3  -2   0   71.30    1.52 
   3  -2   0   66.76    1.76 
   3  -2   0   57.54    1.88 
   3  -2   0   50.64    1.76 
  -3   2  -1   66.82    2.06 
  -3   2  -1   57.17    1.46 
  -3   2  -1   65.04    2.01 
  -3   2  -1   57.31    1.70 
   3  -2   1   73.09    1.66 
   3  -2   1   58.13    1.94 
   3  -2   1   52.92    1.77 
  -3   2  -2   97.43    2.55 
  -3   2  -2   85.93    1.94 
  -3   2  -2   99.85    2.55 
  -3   2  -2   84.01    2.17 
   3  -2   2   95.41    1.40 
   3  -2   2  103.97    1.50 
   3  -2   2   87.36    2.45 
   3  -2   2   88.23    2.26 
  -3   2  -3    1.01    0.39 
  -3   2  -3    1.05    0.32 
  -3   2  -3    2.48    0.50 
  -3   2  -3    1.15    0.36 
   3  -2   3    1.67    0.26 
   3  -2   3    1.35    0.41 
   3  -2   3    1.01    0.32 
  -3   2  -4  181.16    3.72 
  -3   2  -4  152.76    2.98 
  -3   2  -4  185.93    3.72 
  -3   2  -4  159.51    3.33 
   3  -2   4  178.13    2.64 
   3  -2   4  155.25    3.50 
   3  -2   4  179.57    3.20 
  -3   2  -5   44.10    1.87 
  -3   2  -5   30.75    1.40 
  -3   2  -5   42.08    1.81 
  -3   2  -5   34.90    1.61 
  -3   2  -5   39.75    1.44 
   3  -2   5   37.50    1.28 
   3  -2   5   32.13    1.63 
  -3   2  -6  171.33    3.85 
  -3   2  -6  147.17    3.27 
  -3   2  -6  165.27    3.74 
  -3   2  -6  147.13    3.49 
  -3   2  -6  177.15    3.07 
   3  -2   6  161.69    2.96 
   3  -2   6  147.23    3.62 
  -3   2  -7   65.02    2.43 
  -3   2  -7   59.07    2.16 
  -3   2  -7   68.00    2.46 
  -3   2  -7   61.71    2.34 
  -3   2  -7   75.22    1.92 
   3  -2   7   66.15    2.00 
   3  -2   7   57.69    2.32 
  -3   2  -8   40.63    2.00 
  -3   2  -8   34.46    1.74 
  -3   2  -8   37.98    1.92 
  -3   2  -8   39.35    1.95 
  -3   2  -8   45.54    1.44 
   3  -2   8   39.94    1.66 
   3  -2   8   37.82    1.94 
  -3   2  -9   95.50    3.18 
  -3   2  -9   92.21    2.98 
  -3   2  -9   88.32    3.04 
  -3   2  -9  105.56    2.15 
   3  -2   9   93.35    2.70 
   3  -2   9   84.18    2.98 
  -3   2 -10    7.06    0.96 
  -3   2 -10    5.02    0.79 
  -3   2 -10    5.55    0.86 
   3  -2  10   -0.06    0.12 
   3  -2  10    5.15    0.84 
  -3   2 -11   92.88    3.37 
  -3   2 -11   93.34    3.28 
  -3   2 -11   91.53    3.35 
   3  -2  11   93.84    3.01 
   3  -2  11   87.80    3.24 
  -3   2 -12   -0.03    0.44 
  -3   2 -12    0.41    0.49 
  -3   2 -12    0.13    0.45 
   3  -2  12   -0.14    0.36 
   3  -2  12    0.38    0.45 
  -3   2 -13   55.22    2.80 
  -3   2 -13   56.40    2.77 
  -3   2 -13   57.23    2.86 
   3  -2  13   54.36    2.53 
   3  -2  13   53.14    2.69 
  -3   2 -14    6.46    1.09 
  -3   2 -14    7.87    1.15 
   3  -2  14    5.96    0.96 
   3  -2  14    5.90    1.01 
  -3   2 -15   23.21    1.99 
  -3   2 -15   24.99    2.03 
   3  -2  15   25.50    1.92 
   3  -2  15   26.03    2.03 
  -3   2 -16   13.74    1.62 
  -3   2 -16   15.90    1.71 
   3  -2  16   14.25    1.53 
   3  -2  16   14.12    1.58 
  -3   1  18   20.30    1.83 
   3  -1 -18   19.28    1.83 
   3  -1 -18   21.73    1.79 
  -3   1  17   17.40    1.63 
   3  -1 -17   14.26    1.53 
   3  -1 -17   15.03    1.45 
  -3   1  16   10.35    1.24 
   3  -1 -16    8.98    1.19 
   3  -1 -16    8.64    1.07 
   3  -1 -16    8.84    0.98 
  -3   1  15   39.55    2.22 
   3  -1 -15   30.12    2.01 
   3  -1 -15   35.35    1.98 
   3  -1 -15   42.98    2.02 
  -3   1  14    0.59    0.46 
  -3   1  14    0.96    0.43 
   3  -1 -14    1.10    0.52 
   3  -1 -14    0.75    0.43 
   3  -1 -14    0.69    0.42 
  -3   1  13   67.42    2.63 
  -3   1  13   62.29    2.14 
   3  -1 -13   58.98    2.58 
   3  -1 -13   60.57    2.36 
   3  -1 -13   61.01    2.32 
  -3   1  12    0.11    0.34 
  -3   1  12   -0.02    0.28 
   3  -1 -12    0.06    0.36 
   3  -1 -12    0.20    0.31 
   3  -1 -12   -0.09    0.21 
  -3   1  11   95.20    2.82 
  -3   1  11   97.35    2.54 
   3  -1 -11   89.37    2.92 
   3  -1 -11   89.96    2.62 
   3  -1 -11   90.73    2.74 
  -3   1  10   23.32    1.33 
  -3   1  10   24.78    1.25 
   3  -1 -10   22.87    1.43 
   3  -1 -10   23.80    1.28 
   3  -1 -10   19.06    1.25 
  -3   1   9  117.62    2.81 
   3  -1  -9  124.99    3.19 
   3  -1  -9  126.55    2.80 
   3  -1  -9  132.93    2.83 
   3  -1  -9  112.15    2.94 
  -3   1   8  119.47    2.56 
  -3   1   8  120.95    2.57 
  -3   1   8  106.97    2.51 
   3  -1  -8  116.44    2.96 
   3  -1  -8  116.29    2.58 
   3  -1  -8   99.18    2.71 
  -3   1   7   70.89    2.20 
  -3   1   7   72.44    1.87 
  -3   1   7   72.48    1.89 
  -3   1   7   76.27    1.94 
  -3   1   7   61.86    1.76 
   3  -1  -7   70.40    2.19 
   3  -1  -7   70.09    1.95 
   3  -1  -7   56.82    2.00 
  -3   1   6   75.73    2.18 
  -3   1   6   78.53    1.83 
  -3   1   6   78.84    1.90 
  -3   1   6   66.09    1.68 
   3  -1  -6   61.77    1.62 
   3  -1  -6   62.12    1.80 
   3  -1  -6   57.57    1.97 
  -3   1   5    4.41    0.55 
  -3   1   5    5.28    0.47 
  -3   1   5    5.35    0.48 
  -3   1   5    5.67    0.52 
   3  -1  -5    3.41    0.38 
   3  -1  -5    1.68    0.32 
   3  -1  -5    4.02    0.56 
  -3   1   4  362.45    4.75 
  -3   1   4  368.82    3.96 
  -3   1   4  376.46    4.07 
  -3   1   4  358.21    4.67 
  -3   1   4  364.86    4.24 
   3  -1  -4  278.49    3.14 
   3  -1  -4  355.16    4.57 
   3  -1  -4  259.60    4.19 
  -3   1   3   10.53    0.76 
  -3   1   3    9.80    0.57 
  -3   1   3   10.78    0.59 
  -3   1   3   10.96    0.76 
  -3   1   3    9.22    0.62 
  -3   1   3   11.55    0.50 
   3  -1  -3   10.70    0.66 
   3  -1  -3    7.94    0.42 
   3  -1  -3    9.25    0.70 
   3  -1  -3    6.93    0.68 
  -3   1   2  225.26    3.49 
  -3   1   2  216.25    2.80 
  -3   1   2  223.76    3.42 
  -3   1   2  214.99    3.10 
  -3   1   2  244.23    2.44 
   3  -1  -2  235.88    2.92 
   3  -1  -2  239.59    3.28 
   3  -1  -2  174.92    2.00 
   3  -1  -2  202.60    3.35 
   3  -1  -2  166.14    3.19 
  -3   1   1   34.78    1.31 
  -3   1   1   33.54    1.03 
  -3   1   1   36.69    1.32 
  -3   1   1   35.29    1.22 
   3  -1  -1   40.44    1.13 
   3  -1  -1   39.03    1.28 
   3  -1  -1   32.53    1.31 
   3  -1  -1   27.14    1.24 
  -3   1   0  133.49    2.62 
  -3   1   0  122.84    2.11 
  -3   1   0  133.21    2.56 
  -3   1   0  126.94    2.43 
   3  -1   0  142.82    2.29 
   3  -1   0   38.90    1.31 
   3  -1   0  120.08    2.60 
   3  -1   0  104.47    2.42 
  -3   1  -1  123.50    2.55 
  -3   1  -1  111.61    2.10 
  -3   1  -1  118.86    2.45 
  -3   1  -1  110.96    2.34 
  -3   1  -1  109.11    1.43 
   3  -1   1  136.05    2.34 
   3  -1   1  131.19    2.56 
   3  -1   1  139.21    1.72 
   3  -1   1  111.09    2.55 
   3  -1   1  106.95    2.42 
  -3   1  -2   82.70    2.12 
  -3   1  -2   72.94    1.77 
  -3   1  -2   78.49    2.02 
  -3   1  -2   72.00    1.95 
  -3   1  -2   69.44    1.25 
   3  -1   2   86.87    2.15 
   3  -1   2   86.94    1.44 
   3  -1   2   70.45    2.07 
   3  -1   2   67.68    1.89 
  -3   1  -3  217.12    3.65 
  -3   1  -3  197.54    3.19 
  -3   1  -3  231.81    3.71 
  -3   1  -3  197.20    3.45 
   3  -1   3  224.25    2.77 
   3  -1   3  189.75    3.57 
   3  -1   3  199.12    3.31 
  -3   1  -4    9.06    0.78 
  -3   1  -4    8.90    0.72 
  -3   1  -4   10.69    0.82 
  -3   1  -4    9.41    0.79 
  -3   1  -4    5.70    0.54 
   3  -1   4    9.91    0.61 
   3  -1   4    9.49    0.83 
  -3   1  -5   76.47    2.27 
  -3   1  -5   71.32    2.08 
  -3   1  -5   75.97    2.22 
  -3   1  -5   71.34    2.22 
  -3   1  -5   77.09    1.95 
   3  -1   5   79.76    1.86 
   3  -1   5   69.96    2.25 
  -3   1  -6    6.80    0.75 
  -3   1  -6    5.97    0.68 
  -3   1  -6    7.50    0.77 
  -3   1  -6    6.57    0.74 
  -3   1  -6    6.86    0.60 
   3  -1   6    7.01    0.62 
   3  -1   6    6.17    0.74 
  -3   1  -7  125.20    3.17 
  -3   1  -7  116.23    2.97 
  -3   1  -7  124.69    3.12 
  -3   1  -7  114.27    3.07 
  -3   1  -7  133.21    2.55 
   3  -1   7  122.69    2.71 
   3  -1   7  118.96    3.15 
  -3   1  -8   36.16    1.77 
  -3   1  -8   35.15    1.71 
  -3   1  -8   34.30    1.75 
  -3   1  -8   42.52    1.40 
   3  -1   8   33.87    1.50 
   3  -1   8   35.23    1.77 
  -3   1  -9   36.15    1.85 
  -3   1  -9   34.75    1.78 
  -3   1  -9   35.30    1.85 
  -3   1  -9   40.22    1.34 
   3  -1   9   32.47    1.57 
   3  -1   9   35.05    1.82 
  -3   1 -10   60.87    2.49 
  -3   1 -10   59.97    2.44 
  -3   1 -10   60.92    2.53 
  -3   1 -10   69.91    1.72 
   3  -1  10   64.61    2.33 
   3  -1  10   57.73    2.40 
  -3   1 -11   19.27    1.49 
  -3   1 -11   18.45    1.45 
  -3   1 -11   20.05    1.53 
   3  -1  11   20.02    1.39 
   3  -1  11   18.43    1.43 
  -3   1 -12   87.59    3.24 
  -3   1 -12   92.11    3.31 
  -3   1 -12   95.23    3.42 
   3  -1  12   93.65    3.11 
   3  -1  12   90.23    3.20 
  -3   1 -13    0.27    0.47 
  -3   1 -13    0.66    0.51 
  -3   1 -13    0.96    0.53 
   3  -1  13    1.09    0.52 
   3  -1  13    0.77    0.52 
  -3   1 -14   55.13    2.79 
  -3   1 -14   64.41    3.00 
  -3   1 -14   57.62    2.87 
   3  -1  14   56.81    2.66 
   3  -1  14   59.20    2.76 
  -3   1 -15    4.28    0.92 
  -3   1 -15    4.68    0.95 
  -3   1 -15    5.42    1.00 
   3  -1  15    3.72    0.83 
   3  -1  15    4.81    0.91 
  -3   1 -16   19.74    1.84 
  -3   1 -16   21.68    1.92 
   3  -1  16   20.75    1.79 
   3  -1  16   22.17    1.83 
  -3   1 -17   10.74    1.46 
  -3   1 -17    8.74    1.34 
   3  -1  17   10.09    1.34 
   3  -1  17    8.69    1.25 
  -3   0  18    2.83    0.87 
   3   0 -18    2.39    0.79 
   3   0 -18    3.80    0.88 
  -3   0  17   29.42    2.15 
   3   0 -17   24.76    1.97 
   3   0 -17   29.68    2.07 
  -3   0  16   13.79    1.45 
   3   0 -16   12.29    1.36 
   3   0 -16   11.38    1.26 
  -3   0  15   15.37    1.45 
  -3   0  15   13.71    1.18 
   3   0 -15   12.73    1.33 
   3   0 -15   11.87    1.24 
  -3   0  14   44.98    2.32 
  -3   0  14   40.67    1.91 
   3   0 -14   36.45    2.09 
   3   0 -14   37.52    2.05 
   3   0 -14   42.18    1.86 
  -3   0  13   12.61    1.22 
  -3   0  13   12.68    1.06 
   3   0 -13   10.36    1.11 
   3   0 -13   11.19    1.10 
   3   0 -13   14.09    1.08 
  -3   0  12   75.74    2.73 
  -3   0  12   67.62    2.31 
   3   0 -12   65.95    2.57 
   3   0 -12   70.01    2.55 
   3   0 -12   75.46    2.40 
  -3   0  11    0.65    0.41 
  -3   0  11    0.21    0.30 
   3   0 -11    0.44    0.38 
   3   0 -11    0.35    0.33 
   3   0 -11    0.34    0.31 
  -3   0  10  115.12    3.06 
  -3   0  10  118.63    2.89 
   3   0 -10  117.92    3.15 
   3   0 -10  108.38    2.89 
   3   0 -10  119.53    3.12 
  -3   0   9   12.46    0.97 
  -3   0   9   12.55    0.92 
   3   0  -9   13.07    1.02 
   3   0  -9   12.18    0.93 
   3   0  -9   12.73    0.99 
   3   0  -9   11.73    0.92 
   3   0  -8   54.87    1.94 
   3   0  -8   52.95    1.82 
   3   0  -8   54.10    1.86 
   3   0  -8   47.30    1.77 
  -3   0   7   63.70    1.89 
   3   0  -7   62.36    1.97 
   3   0  -7   59.77    1.86 
   3   0  -7   52.16    1.82 
  -3   0   6   73.61    1.93 
  -3   0   6   73.33    1.96 
   3   0  -6   74.33    2.04 
   3   0  -6   63.91    1.78 
   3   0  -6   71.69    1.99 
   3   0  -6   57.53    1.88 
  -3   0   5  234.17    3.59 
  -3   0   5  240.47    3.49 
  -3   0   5  232.71    3.51 
   3   0  -5  237.46    3.61 
   3   0  -5  202.21    3.06 
   3   0  -5  226.11    3.60 
   3   0  -5  189.23    3.43 
  -3   0   4   25.17    1.08 
  -3   0   4   26.86    1.06 
  -3   0   4   25.14    1.07 
   3   0  -4   23.41    0.92 
   3   0  -4   25.68    1.15 
   3   0  -4   20.90    1.10 
  -3   0   3  405.76    4.58 
  -3   0   3  410.96    4.49 
  -3   0   3  426.45    4.55 
  -3   0   3  403.19    4.51 
  -3   0   3  379.11    4.47 
   3   0  -3  354.72    3.78 
   3   0  -3  376.74    4.71 
   3   0  -3  301.09    4.30 
  -3   0   2    0.33    0.22 
  -3   0   2    0.34    0.22 
  -3   0   2    0.98    0.26 
  -3   0   2    2.28    0.36 
   3   0  -2    0.40    0.23 
   3   0  -2    0.46    0.24 
   3   0  -2    0.66    0.20 
   3   0  -2    0.40    0.25 
   3   0  -2    0.27    0.24 
  -3   0   1  366.40    4.15 
  -3   0   1  360.21    4.06 
  -3   0   1  376.06    4.13 
  -3   0   1  337.71    4.15 
  -3   0   1  395.90    3.66 
   3   0  -1  394.62    4.25 
   3   0  -1  377.46    4.41 
   3   0  -1  348.70    4.90 
   3   0  -1  337.12    4.41 
   3   0  -1  266.10    3.92 
  -3   0   0   77.70    1.74 
  -3   0   0   76.20    1.71 
  -3   0   0   80.39    1.71 
  -3   0   0   73.36    1.82 
  -3   0   0   82.95    1.39 
   3   0   0   87.29    1.83 
   3   0   0   79.72    1.90 
   3   0   0   80.95    1.39 
   3   0   0   69.97    1.89 
   3   0   0   61.14    1.77 
  -3   0  -1  209.93    3.03 
  -3   0  -1  199.76    2.97 
  -3   0  -1  206.08    2.92 
  -3   0  -1  195.66    3.14 
  -3   0  -1  213.57    2.47 
   3   0   1    0.06    0.09 
   3   0   1  222.38    3.37 
   3   0   1  224.14    2.60 
   3   0   1  188.44    3.24 
   3   0   1  170.97    3.01 
  -3   0  -2  149.81    2.59 
  -3   0  -2  137.58    2.51 
  -3   0  -2  150.52    2.52 
  -3   0  -2  139.73    2.70 
  -3   0  -2  124.05    2.51 
   3   0   2  161.84    2.92 
   3   0   2  166.45    2.27 
   3   0   2  140.19    2.81 
  -3   0  -3   94.92    2.11 
  -3   0  -3   92.59    2.13 
  -3   0  -3   98.00    2.09 
  -3   0  -3   88.41    2.20 
  -3   0  -3   86.03    2.06 
   3   0   3  105.54    2.42 
   3   0   3  104.57    1.87 
   3   0   3   96.18    2.36 
  -3   0  -4  132.78    2.64 
  -3   0  -4  123.68    2.60 
  -3   0  -4  132.70    2.58 
  -3   0  -4  127.86    2.78 
  -3   0  -4  123.87    2.49 
   3   0   4  140.33    2.37 
   3   0   4  128.88    2.83 
  -3   0  -5   19.60    1.06 
  -3   0  -5   20.85    1.12 
  -3   0  -5   19.79    1.04 
  -3   0  -5   17.92    1.08 
  -3   0  -5   14.39    0.83 
   3   0   5   21.99    0.99 
   3   0   5   19.59    1.13 
  -3   0  -6  160.42    3.22 
  -3   0  -6  170.94    3.40 
  -3   0  -6  164.48    3.20 
  -3   0  -6  162.19    3.42 
  -3   0  -6  168.28    2.92 
   3   0   6  177.55    3.09 
   3   0   6  167.99    3.44 
  -3   0  -7    4.38    0.60 
  -3   0  -7    4.39    0.62 
  -3   0  -7    4.45    0.64 
  -3   0  -7    4.88    0.52 
   3   0   7    3.85    0.59 
  -3   0  -8   98.59    2.75 
  -3   0  -8   97.46    2.79 
  -3   0  -8  101.74    2.92 
  -3   0  -8  106.14    2.28 
   3   0   8  101.82    2.61 
   3   0   8  102.04    2.83 
  -3   0  -9   10.00    0.95 
  -3   0  -9    9.37    0.94 
  -3   0  -9    9.69    0.97 
  -3   0  -9   10.34    0.73 
   3   0   9   10.33    0.91 
   3   0   9   10.43    0.97 
  -3   0 -10   38.43    1.89 
  -3   0 -10   37.75    1.90 
  -3   0 -10   41.58    2.02 
  -3   0 -10   42.34    1.41 
   3   0  10   41.61    1.86 
   3   0  10   37.69    1.83 
  -3   0 -11   26.22    1.64 
  -3   0 -11   26.61    1.68 
  -3   0 -11   27.16    1.71 
  -3   0 -11   29.99    1.18 
   3   0  11   27.04    1.58 
   3   0  11   27.72    1.63 
  -3   0 -12   41.74    2.15 
  -3   0 -12   50.01    2.38 
  -3   0 -12   47.16    2.33 
   3   0  12   47.72    2.20 
   3   0  12   51.39    2.28 
  -3   0 -13   57.18    2.62 
  -3   0 -13   65.15    2.83 
  -3   0 -13   61.88    2.77 
   3   0  13   62.71    2.64 
   3   0  13   65.07    2.65 
  -3   0 -14    2.95    0.74 
  -3   0 -14    4.18    0.84 
  -3   0 -14    3.09    0.75 
   3   0  14    2.39    0.66 
   3   0  14    3.60    0.74 
  -3   0 -15   31.67    2.13 
  -3   0 -15   35.75    2.29 
  -3   0 -15   33.21    2.20 
   3   0  15   31.56    2.06 
   3   0  15   35.21    2.09 
  -3   0 -16   -0.03    0.47 
  -3   0 -16    0.06    0.47 
  -3   0 -16    0.30    0.48 
   3   0  16   -0.07    0.44 
   3   0  16   -0.26    0.39 
  -3   0 -17   24.49    2.04 
  -3   0 -17   25.34    2.10 
   3   0  17   27.06    2.08 
   3   0  17   28.63    2.02 
  -3   0 -18    4.53    1.04 
  -3   0 -18    5.71    1.14 
   3   0  18    5.59    1.10 
   3   0  18    6.37    1.08 
  -3  -1  18   36.65    2.54 
   3   1 -18   30.21    2.26 
   3   1 -18   30.86    2.28 
  -3  -1  17    0.05    0.53 
   3   1 -17   -0.01    0.45 
   3   1 -17    0.20    0.47 
  -3  -1  16   24.34    1.94 
  -3  -1  16   24.16    1.68 
   3   1 -16   21.42    1.77 
   3   1 -16   24.10    1.87 
  -3  -1  15   11.24    1.30 
  -3  -1  15   10.68    1.11 
   3   1 -15   12.04    1.30 
   3   1 -15   11.50    1.27 
  -3  -1  14   20.49    1.64 
  -3  -1  14   21.47    1.49 
   3   1 -14   20.37    1.58 
   3   1 -14   21.57    1.63 
  -3  -1  13   28.49    1.83 
  -3  -1  13   28.30    1.65 
   3   1 -13   27.33    1.74 
   3   1 -13   27.87    1.77 
   3   1 -13   32.34    1.50 
  -3  -1  12   26.17    1.68 
  -3  -1  12   23.53    1.45 
   3   1 -12   23.05    1.52 
   3   1 -12   22.74    1.53 
   3   1 -12   26.15    1.68 
   3   1 -12   27.08    1.36 
  -3  -1  11   94.18    2.80 
   3   1 -11   84.20    2.75 
   3   1 -11   96.95    3.01 
   3   1 -11   95.96    3.04 
   3   1 -11  102.36    2.61 
  -3  -1  10    3.18    0.57 
   3   1 -10    2.70    0.55 
   3   1 -10    2.86    0.57 
   3   1 -10    3.08    0.63 
   3   1 -10    3.04    0.51 
  -3  -1   9  111.35    2.86 
   3   1  -9  106.20    2.80 
   3   1  -9  108.18    2.91 
   3   1  -9  115.01    3.03 
   3   1  -9  110.69    2.64 
  -3  -1   8    0.31    0.28 
   3   1  -8    0.14    0.28 
   3   1  -8    0.57    0.32 
   3   1  -8    0.51    0.34 
   3   1  -8    0.20    0.23 
  -3  -1   7  205.83    3.71 
   3   1  -7  202.88    3.52 
   3   1  -7  203.86    3.69 
   3   1  -7  204.24    3.70 
   3   1  -7  190.24    3.41 
  -3  -1   6    9.66    0.77 
   3   1  -6    2.52    0.37 
   3   1  -6    9.35    0.75 
   3   1  -6    8.79    0.75 
   3   1  -6    8.54    0.72 
  -3  -1   5   24.79    1.15 
  -3  -1   5   23.05    1.13 
   3   1  -5   22.65    1.00 
   3   1  -5   22.42    1.07 
   3   1  -5   20.92    1.09 
   3   1  -5   19.03    1.02 
  -3  -1   4   84.39    2.05 
  -3  -1   4   84.47    2.09 
   3   1  -4   88.59    1.88 
   3   1  -4   80.88    2.10 
   3   1  -4   69.50    1.93 
  -3  -1   3   74.79    1.61 
  -3  -1   3   76.76    1.88 
  -3  -1   3   72.86    1.89 
   3   1  -3   72.18    1.70 
   3   1  -3   70.83    1.92 
   3   1  -3   58.50    1.74 
  -3  -1   2  258.13    3.06 
  -3  -1   2  249.96    3.49 
  -3  -1   2  249.79    2.95 
  -3  -1   2  236.34    3.49 
   3   1  -2  240.68    3.14 
   3   1  -2  225.79    3.51 
   3   1  -2  185.76    3.16 
  -3  -1   1   14.21    0.62 
  -3  -1   1   12.26    0.73 
  -3  -1   1   13.99    0.59 
  -3  -1   1   11.81    0.75 
  -3  -1   1   10.18    0.72 
   3   1  -1   14.27    0.82 
   3   1  -1   13.18    0.67 
   3   1  -1   11.16    0.75 
  -3  -1   0  153.26    2.15 
  -3  -1   0  148.27    2.57 
  -3  -1   0  152.96    2.06 
  -3  -1   0  140.64    2.60 
  -3  -1   0  112.01    2.38 
   3   1   0  154.85    2.74 
   3   1   0  153.81    2.30 
   3   1   0  135.41    2.62 
  -3  -1  -1    8.24    0.49 
  -3  -1  -1    7.02    0.57 
  -3  -1  -1    7.28    0.44 
  -3  -1  -1    7.45    0.62 
  -3  -1  -1    5.65    0.54 
   3   1   1    8.67    0.48 
   3   1   1    8.80    0.66 
   3   1   1    8.32    0.53 
   3   1   1    6.62    0.59 
  -3  -1  -2  235.90    2.94 
  -3  -1  -2  234.34    3.43 
  -3  -1  -2  237.79    2.85 
  -3  -1  -2  225.50    3.48 
  -3  -1  -2  194.13    3.18 
   3   1   2  253.04    3.71 
   3   1   2  257.12    3.20 
   3   1   2  225.70    3.51 
  -3  -1  -3   87.95    1.79 
  -3  -1  -3   93.05    2.15 
  -3  -1  -3   87.73    1.71 
  -3  -1  -3   88.52    2.17 
  -3  -1  -3   76.09    1.93 
   3   1   3  100.53    2.32 
   3   1   3   98.80    1.94 
   3   1   3   86.59    2.14 
  -3  -1  -4  101.32    2.06 
  -3  -1  -4  105.95    2.40 
  -3  -1  -4  102.89    2.01 
  -3  -1  -4  106.02    2.47 
  -3  -1  -4   96.27    2.19 
   3   1   4   86.95    1.91 
   3   1   4  105.84    2.42 
  -3  -1  -5   82.44    1.97 
  -3  -1  -5   90.03    2.30 
  -3  -1  -5   85.40    2.29 
  -3  -1  -5   82.76    2.03 
   3   1   5   43.93    1.43 
   3   1   5   90.30    2.29 
  -3  -1  -6   20.04    1.04 
  -3  -1  -6   21.44    1.18 
  -3  -1  -6   21.63    1.20 
  -3  -1  -6    0.00    0.08 
   3   1   6   23.30    1.12 
   3   1   6   23.13    1.19 
  -3  -1  -7  119.31    2.71 
  -3  -1  -7  135.45    3.11 
  -3  -1  -7  136.98    3.16 
  -3  -1  -7  132.60    2.63 
   3   1   7  139.67    2.92 
   3   1   7  136.27    3.00 
  -3  -1  -8    0.46    0.32 
  -3  -1  -8    1.11    0.41 
  -3  -1  -8    0.72    0.36 
  -3  -1  -8    1.29    0.34 
   3   1   8    0.49    0.33 
   3   1   8    1.27    0.39 
  -3  -1  -9   47.12    1.89 
  -3  -1  -9   50.18    2.05 
  -3  -1  -9   50.58    2.07 
  -3  -1  -9   53.07    1.66 
   3   1   9   53.48    1.99 
   3   1   9   50.94    1.93 
  -3  -1 -10    1.13    0.44 
  -3  -1 -10    1.19    0.45 
  -3  -1 -10    1.22    0.45 
  -3  -1 -10    1.27    0.35 
   3   1  10    1.28    0.43 
   3   1  10    1.67    0.46 
  -3  -1 -11   50.56    2.16 
  -3  -1 -11   54.93    2.34 
  -3  -1 -11   56.51    2.37 
  -3  -1 -11   61.07    1.81 
   3   1  11   57.97    2.29 
   3   1  11   59.01    2.23 
  -3  -1 -12   25.67    1.63 
  -3  -1 -12   30.05    1.82 
  -3  -1 -12   29.46    1.79 
  -3  -1 -12   29.46    1.26 
   3   1  12   30.05    1.74 
   3   1  12   33.23    1.73 
  -3  -1 -13   35.22    1.99 
  -3  -1 -13   40.92    2.20 
  -3  -1 -13   40.96    2.19 
   3   1  13   43.40    2.18 
   3   1  13   40.54    1.98 
  -3  -1 -14   43.16    2.30 
  -3  -1 -14   50.17    2.54 
  -3  -1 -14   48.22    2.47 
   3   1  14   49.10    2.42 
   3   1  14   53.35    2.34 
  -3  -1 -15    8.57    1.13 
  -3  -1 -15    9.75    1.22 
  -3  -1 -15    9.67    1.20 
   3   1  15   10.17    1.20 
   3   1  15   11.12    1.15 
  -3  -1 -16   38.25    2.36 
  -3  -1 -16   44.08    2.58 
  -3  -1 -16   40.64    2.44 
   3   1  16   42.81    2.47 
   3   1  16   45.73    2.31 
  -3  -1 -17    0.66    0.58 
  -3  -1 -17    0.42    0.57 
  -3  -1 -17    0.06    0.43 
   3   1  17    0.76    0.58 
   3   1  17    1.41    0.59 
  -3  -1 -18   39.70    2.60 
  -3  -1 -18   38.35    2.60 
   3   1  18   43.73    2.70 
  -3  -2  17   23.75    2.05 
  -3  -2  17   25.89    1.90 
   3   2 -17   21.80    1.87 
   3   2 -17   23.47    1.99 
  -3  -2  16   -0.19    0.48 
  -3  -2  16    0.34    0.47 
   3   2 -16   -0.09    0.43 
   3   2 -16    0.06    0.44 
  -3  -2  15   24.26    1.90 
  -3  -2  15   22.19    1.65 
   3   2 -15   19.38    1.62 
   3   2 -15   20.76    1.73 
  -3  -2  14    1.91    0.64 
  -3  -2  14    0.68    0.46 
   3   2 -14    0.75    0.48 
   3   2 -14    1.00    0.52 
   3   2 -14    1.52    0.63 
  -3  -2  13   33.69    2.05 
  -3  -2  13   27.41    1.72 
   3   2 -13   28.41    1.78 
   3   2 -13   30.67    1.93 
   3   2 -13   29.82    1.94 
  -3  -2  12   20.66    1.45 
  -3  -2  12   25.65    1.24 
   3   2 -12   23.74    1.56 
   3   2 -12   23.64    1.64 
   3   2 -12   25.17    1.71 
  -3  -2  11   32.41    1.74 
  -3  -2  11   38.64    1.51 
   3   2 -11   33.22    1.73 
   3   2 -11   34.73    1.89 
   3   2 -11   34.03    1.89 
  -3  -2  10   73.74    2.53 
  -3  -2  10   82.49    2.19 
   3   2 -10   67.45    2.34 
   3   2 -10   80.53    2.75 
   3   2 -10   79.95    2.76 
  -3  -2   9    6.94    0.79 
  -3  -2   9    7.35    0.68 
   3   2  -9    5.61    0.68 
   3   2  -9    7.01    0.82 
   3   2  -9    6.75    0.82 
  -3  -2   8  113.75    2.95 
  -3  -2   8  117.15    2.58 
   3   2  -8  118.81    3.09 
   3   2  -8  114.63    3.03 
  -3  -2   7    1.45    0.41 
  -3  -2   7    1.84    0.37 
   3   2  -7    1.63    0.37 
   3   2  -7    1.86    0.45 
  -3  -2   6  118.63    2.84 
  -3  -2   6  110.84    2.73 
  -3  -2   6  102.85    2.35 
   3   2  -6  106.35    2.30 
   3   2  -6  125.03    2.88 
   3   2  -6  103.65    2.64 
  -3  -2   5   11.00    0.84 
  -3  -2   5    9.05    0.70 
   3   2  -5   10.72    0.67 
   3   2  -5   11.63    0.84 
   3   2  -5   11.44    0.86 
  -3  -2   4  140.00    2.86 
  -3  -2   4  134.04    2.82 
  -3  -2   4  116.63    2.47 
   3   2  -4  132.14    2.20 
   3   2  -4  141.26    2.79 
   3   2  -4  126.52    2.76 
  -3  -2   3   46.84    1.57 
  -3  -2   3   43.80    1.54 
  -3  -2   3   36.43    1.35 
   3   2  -3   45.46    1.13 
   3   2  -3   48.81    1.54 
   3   2  -3   41.74    1.52 
  -3  -2   2  177.09    2.19 
  -3  -2   2  174.94    3.04 
  -3  -2   2  158.56    2.93 
  -3  -2   2  137.57    2.66 
   3   2  -2  175.29    2.89 
   3   2  -2  156.48    2.94 
  -3  -2   1  186.43    2.05 
  -3  -2   1  214.21    2.33 
  -3  -2   1  195.46    3.17 
  -3  -2   1  209.54    2.28 
  -3  -2   1  192.04    3.20 
  -3  -2   1  149.95    2.78 
   3   2  -1  207.47    3.33 
   3   2  -1  198.90    3.02 
   3   2  -1  170.90    3.03 
  -3  -2   0   23.37    0.59 
  -3  -2   0   23.66    0.59 
  -3  -2   0   22.65    1.04 
  -3  -2   0   23.82    0.54 
  -3  -2   0   21.45    1.03 
  -3  -2   0   17.19    0.92 
   3   2   0   21.27    1.03 
   3   2   0   23.17    0.97 
   3   2   0   19.19    0.98 
  -3  -2  -1  197.69    2.17 
  -3  -2  -1  205.50    3.25 
  -3  -2  -1  197.15    2.19 
  -3  -2  -1  207.54    3.32 
  -3  -2  -1  157.39    2.86 
   3   2   1  236.35    2.37 
   3   2   1  223.82    3.45 
   3   2   1  218.07    3.11 
   3   2   1  189.20    3.14 
  -3  -2  -2    1.09    0.19 
  -3  -2  -2    1.06    0.31 
  -3  -2  -2    1.83    0.36 
  -3  -2  -2    0.51    0.25 
   3   2   2    1.18    0.17 
   3   2   2    0.95    0.31 
   3   2   2    1.19    0.30 
   3   2   2    3.03    0.42 
  -3  -2  -3  195.84    2.44 
  -3  -2  -3  230.78    3.58 
  -3  -2  -3  224.63    3.56 
  -3  -2  -3  186.35    3.16 
   3   2   3  269.38    2.80 
   3   2   3  262.01    3.87 
   3   2   3  255.56    3.53 
   3   2   3  236.53    3.56 
  -3  -2  -4   32.57    1.01 
  -3  -2  -4   41.13    1.50 
  -3  -2  -4   36.57    1.42 
  -3  -2  -4   33.20    1.30 
   3   2   4   42.07    1.40 
   3   2   4   41.59    1.44 
  -3  -2  -5  105.27    2.04 
  -3  -2  -5  131.98    2.82 
  -3  -2  -5  136.57    2.88 
  -3  -2  -5  115.93    2.49 
   3   2   5  143.92    2.76 
   3   2   5  138.25    2.73 
  -3  -2  -6   45.78    1.44 
  -3  -2  -6   60.40    1.96 
  -3  -2  -6   61.48    1.97 
  -3  -2  -6   52.27    1.67 
   3   2   6   61.06    1.86 
   3   2   6   60.68    1.82 
  -3  -2  -7   55.56    1.71 
  -3  -2  -7   73.01    2.25 
  -3  -2  -7   71.35    2.21 
  -3  -2  -7   69.96    1.96 
   3   2   7   77.58    2.20 
   3   2   7   75.86    2.09 
  -3  -2  -8  132.41    2.87 
  -3  -2  -8  168.44    3.61 
  -3  -2  -8  169.15    3.58 
   3   2   8  181.60    3.59 
   3   2   8  178.43    3.37 
  -3  -2  -9    9.13    0.82 
  -3  -2  -9   10.35    0.95 
  -3  -2  -9   10.81    0.96 
  -3  -2  -9    9.75    0.78 
   3   2   9   11.70    0.98 
   3   2   9   11.98    0.91 
  -3  -2 -10   67.06    2.27 
  -3  -2 -10   82.23    2.71 
  -3  -2 -10   85.36    2.72 
  -3  -2 -10   83.09    2.23 
   3   2  10   87.54    2.71 
   3   2  10   90.60    2.51 
  -3  -2 -11    1.42    0.47 
  -3  -2 -11    2.13    0.55 
  -3  -2 -11    1.55    0.49 
  -3  -2 -11    2.55    0.47 
   3   2  11    1.27    0.49 
   3   2  11    1.63    0.44 
  -3  -2 -12   74.45    2.66 
  -3  -2 -12   86.91    3.03 
  -3  -2 -12   88.40    3.00 
  -3  -2 -12   87.86    2.35 
   3   2  12   89.02    2.99 
   3   2  12   94.17    2.73 
  -3  -2 -13   14.63    1.27 
  -3  -2 -13   14.30    1.31 
  -3  -2 -13   15.31    1.32 
  -3  -2 -13   15.81    1.02 
   3   2  13   15.88    1.35 
   3   2  13   16.62    1.20 
  -3  -2 -14   36.01    2.04 
  -3  -2 -14   39.63    2.22 
  -3  -2 -14   39.48    2.17 
  -3  -2 -14   40.23    1.61 
   3   2  14   37.13    2.12 
   3   2  14   43.14    1.98 
  -3  -2 -15   20.57    1.63 
  -3  -2 -15   24.05    1.82 
  -3  -2 -15   23.74    1.76 
   3   2  15   23.00    1.75 
   3   2  15   24.70    1.55 
  -3  -2 -16   11.68    1.31 
  -3  -2 -16   13.10    1.44 
  -3  -2 -16   13.39    1.40 
   3   2  16   11.83    1.34 
   3   2  16   13.30    1.20 
  -3  -2 -17   25.86    1.99 
  -3  -2 -17   28.13    2.12 
  -3  -2 -17   28.14    2.06 
   3   2  17   30.32    2.17 
   3   2  17   28.88    1.78 
  -3  -2 -18    2.18    0.77 
  -3  -2 -18    1.34    0.68 
  -3  -2 -18    1.80    0.70 
   3   2  18    1.62    0.73 
  -3  -2 -19   37.03    2.56 
  -3  -2 -19   40.15    2.71 
   3   2  19   42.57    2.76 
  -3  -3  17   15.98    1.76 
  -3  -3  17   12.72    1.45 
   3   3 -17   12.12    1.44 
   3   3 -17   13.02    1.57 
  -3  -3  16   14.75    1.63 
  -3  -3  16   11.17    1.32 
   3   3 -16   12.06    1.39 
   3   3 -16   13.50    1.54 
  -3  -3  15    0.06    0.50 
  -3  -3  15    0.18    0.44 
   3   3 -15    0.11    0.42 
   3   3 -15    0.09    0.44 
   3   3 -15   -0.03    0.52 
  -3  -3  14   19.56    1.72 
  -3  -3  14   15.44    1.43 
   3   3 -14   17.52    1.50 
   3   3 -14   21.26    1.75 
   3   3 -14   16.92    1.60 
  -3  -3  13    0.34    0.41 
   3   3 -13    0.29    0.40 
   3   3 -13    0.24    0.41 
   3   3 -13   -0.18    0.42 
  -3  -3  12   40.33    2.12 
   3   3 -12   40.68    2.04 
   3   3 -12   43.05    2.29 
   3   3 -12   40.86    2.25 
  -3  -3  11   18.65    1.42 
  -3  -3  11   20.72    1.04 
   3   3 -11   18.50    1.33 
   3   3 -11   19.84    1.51 
   3   3 -11   20.20    1.54 
  -3  -3  10   19.24    1.38 
  -3  -3  10   23.98    1.12 
   3   3 -10   18.34    1.25 
   3   3 -10   21.06    1.49 
   3   3 -10   24.36    1.61 
  -3  -3   9   33.52    1.75 
  -3  -3   9   35.89    1.37 
   3   3  -9    0.12    0.15 
   3   3  -9   35.18    1.84 
   3   3  -9   37.26    1.90 
  -3  -3   8   20.03    1.32 
  -3  -3   8   22.51    1.09 
   3   3  -8   20.45    1.16 
   3   3  -8   21.38    1.39 
   3   3  -8   24.67    1.49 
  -3  -3   7  114.78    3.03 
  -3  -3   7  118.68    2.51 
   3   3  -7  108.34    2.51 
   3   3  -7  132.78    3.29 
  -3  -3   6   11.54    0.96 
  -3  -3   6   10.19    0.89 
  -3  -3   6   11.13    0.77 
   3   3  -6    9.55    0.70 
   3   3  -6   11.14    0.94 
  -3  -3   5  177.88    3.58 
  -3  -3   5  144.51    3.21 
  -3  -3   5  144.30    2.77 
   3   3  -5  141.58    2.48 
   3   3  -5  181.17    3.57 
  -3  -3   4   23.75    1.25 
  -3  -3   4   20.19    1.15 
  -3  -3   4   18.51    0.97 
   3   3  -4   20.34    0.82 
   3   3  -4   23.12    1.21 
   3   3  -4   20.10    1.15 
  -3  -3   3  225.94    3.82 
  -3  -3   3  216.70    3.74 
  -3  -3   3  185.09    3.16 
   3   3  -3  206.77    2.54 
   3   3  -3  237.56    3.84 
   3   3  -3  194.24    3.53 
  -3  -3   2  125.98    1.62 
  -3  -3   2  148.28    2.96 
  -3  -3   2  136.19    1.76 
  -3  -3   2  139.83    2.88 
  -3  -3   2  112.85    2.42 
   3   3  -2  143.77    1.80 
   3   3  -2  150.27    2.91 
   3   3  -2  128.36    2.75 
  -3  -3   1  199.43    3.40 
  -3  -3   1  199.82    3.42 
  -3  -3   1  143.34    2.76 
   3   3  -1  198.98    3.30 
   3   3  -1  172.59    3.15 
  -3  -3   0  192.85    3.30 
  -3  -3   0  188.55    3.26 
  -3  -3   0  142.08    2.76 
   3   3   0  211.00    3.46 
   3   3   0  197.54    3.23 
   3   3   0  179.31    3.14 
  -3  -3  -1   12.65    0.83 
  -3  -3  -1   11.66    0.80 
  -3  -3  -1    8.12    0.67 
   3   3   1   13.08    0.84 
   3   3   1   12.89    0.81 
   3   3   1   11.16    0.76 
  -3  -3  -2  199.62    3.36 
  -3  -3  -2  200.59    3.35 
  -3  -3  -2  152.35    2.90 
   3   3   2  227.17    3.58 
   3   3   2  218.22    3.40 
   3   3   2  186.18    3.12 
  -3  -3  -3    3.94    0.27 
  -3  -3  -3    1.05    0.35 
  -3  -3  -3    1.31    0.35 
  -3  -3  -3    1.38    0.34 
   3   3   3    2.08    0.22 
   3   3   3    1.53    0.17 
   3   3   3    1.85    0.39 
   3   3   3    1.59    0.36 
   3   3   3    1.47    0.33 
  -3  -3  -4  292.76    3.12 
  -3  -3  -4  384.46    5.01 
  -3  -3  -4  394.85    5.03 
  -3  -3  -4  307.83    4.36 
   3   3   4  375.70    3.50 
   3   3   4  421.00    5.13 
   3   3   4  386.02    4.70 
  -3  -3  -5    1.00    0.24 
  -3  -3  -5    1.55    0.40 
  -3  -3  -5    1.18    0.36 
  -3  -3  -5    1.43    0.36 
   3   3   5    1.87    0.40 
   3   3   5    1.00    0.30 
  -3  -3  -6  291.37    3.68 
  -3  -3  -6  387.19    5.30 
  -3  -3  -6  392.42    5.24 
  -3  -3  -6  312.59    4.50 
   3   3   6  394.29    5.23 
   3   3   6  398.14    4.86 
  -3  -3  -7   90.24    2.09 
  -3  -3  -7  123.82    2.96 
  -3  -3  -7  116.18    2.79 
  -3  -3  -7  101.63    2.50 
   3   3   7  125.43    2.91 
   3   3   7  127.80    2.62 
  -3  -3  -8  140.72    2.84 
  -3  -3  -8  174.55    3.67 
  -3  -3  -8  184.29    3.68 
  -3  -3  -8  147.02    3.08 
   3   3   8  185.48    3.72 
   3   3   8  186.93    3.28 
  -3  -3  -9   71.61    2.14 
  -3  -3  -9   98.84    2.84 
  -3  -3  -9   90.64    2.64 
  -3  -3  -9   79.68    2.28 
   3   3   9   91.68    2.69 
   3   3   9   97.83    2.39 
  -3  -3 -10   15.41    1.07 
  -3  -3 -10   21.36    1.39 
  -3  -3 -10   22.93    1.39 
  -3  -3 -10    0.12    0.16 
   3   3  10   22.60    1.41 
   3   3  10   22.45    1.18 
  -3  -3 -11   63.87    2.27 
  -3  -3 -11   79.28    2.75 
  -3  -3 -11   81.81    2.70 
  -3  -3 -11   71.76    2.23 
   3   3  11   82.77    2.78 
   3   3  11   90.05    2.42 
  -3  -3 -12    0.59    0.39 
  -3  -3 -12    0.79    0.45 
  -3  -3 -12    0.65    0.41 
  -3  -3 -12    0.68    0.36 
   3   3  12    1.03    0.47 
   3   3  12    0.96    0.38 
  -3  -3 -13   71.91    2.68 
  -3  -3 -13   81.35    3.01 
  -3  -3 -13   79.50    2.87 
  -3  -3 -13   73.04    2.32 
   3   3  13   81.74    3.00 
   3   3  13   87.32    2.54 
  -3  -3 -14    3.76    0.73 
  -3  -3 -14    3.70    0.77 
  -3  -3 -14    3.52    0.71 
  -3  -3 -14    3.95    0.61 
   3   3  14    4.78    0.84 
   3   3  14    3.79    0.63 
  -3  -3 -15   47.68    2.40 
  -3  -3 -15   50.86    2.58 
  -3  -3 -15   50.51    2.47 
  -3  -3 -15   48.68    1.94 
   3   3  15   51.24    2.58 
   3   3  15   56.79    2.18 
  -3  -3 -16    7.00    1.04 
  -3  -3 -16    6.35    1.03 
  -3  -3 -16    7.96    1.07 
   3   3  16    7.88    1.12 
  -3  -3 -17   16.38    1.57 
  -3  -3 -17   21.27    1.82 
  -3  -3 -17   18.29    1.63 
   3   3  17   20.31    1.79 
  -3  -3 -18   26.80    2.07 
  -3  -3 -18   27.67    2.15 
  -3  -3 -18   24.78    1.96 
   3   3  18   26.61    2.12 
  -3  -3 -19    7.93    1.26 
  -3  -3 -19    5.59    1.11 
   3   3  19    6.08    1.16 
  -3  -4  16   14.20    1.65 
  -3  -4  16   11.92    1.44 
   3   4 -16   11.53    1.38 
   3   4 -16   12.35    1.56 
   3   4 -16   11.26    1.50 
  -3  -4  15   19.17    1.83 
  -3  -4  15   20.52    1.78 
   3   4 -15   19.27    1.68 
   3   4 -15   20.16    1.86 
   3   4 -15   20.90    1.91 
  -3  -4  14    6.26    1.02 
   3   4 -14    6.59    1.00 
   3   4 -14    7.82    1.17 
   3   4 -14    8.39    1.24 
  -3  -4  13   21.55    1.71 
   3   4 -13   22.44    1.64 
   3   4 -13   26.60    1.96 
   3   4 -13   24.92    1.91 
  -3  -4  12    0.12    0.41 
   3   4 -12    0.15    0.38 
   3   4 -12    0.68    0.50 
   3   4 -12    0.14    0.46 
  -3  -4  11   40.52    2.17 
   3   4 -11   41.22    2.00 
   3   4 -11   39.29    2.20 
   3   4 -11   46.60    2.40 
  -3  -4  10    1.68    0.54 
   3   4 -10    0.42    0.27 
   3   4 -10    2.17    0.61 
   3   4 -10    1.95    0.62 
  -3  -4   9   64.66    2.56 
  -3  -4   9   75.73    1.94 
   3   4  -9   62.64    2.20 
   3   4  -9   74.21    2.80 
   3   4  -9   81.41    2.93 
  -3  -4   8   21.64    1.45 
  -3  -4   8   24.22    1.11 
   3   4  -8   22.44    1.25 
   3   4  -8   28.24    1.68 
   3   4  -8   26.90    1.64 
  -3  -4   7   68.10    2.46 
  -3  -4   7   70.72    1.91 
   3   4  -7   66.08    2.00 
   3   4  -7   80.32    2.70 
  -3  -4   6  159.46    3.70 
  -3  -4   6  125.57    3.25 
  -3  -4   6  129.27    2.63 
   3   4  -6  119.91    2.53 
   3   4  -6  153.43    3.62 
  -3  -4   5   14.01    1.07 
  -3  -4   5   11.81    0.98 
  -3  -4   5   11.35    0.79 
   3   4  -5   10.77    0.70 
   3   4  -5   14.32    1.09 
  -3  -4   4  141.38    3.25 
  -3  -4   4  111.99    2.87 
  -3  -4   4  112.95    2.47 
   3   4  -4  107.18    2.01 
   3   4  -4  145.20    3.27 
  -3  -4   3    0.13    0.29 
  -3  -4   3    0.32    0.28 
  -3  -4   3    0.86    0.31 
   3   4  -3    0.44    0.18 
   3   4  -3    0.62    0.36 
  -3  -4   2  319.32    4.77 
  -3  -4   2  359.30    3.48 
  -3  -4   2  291.52    4.52 
  -3  -4   2  240.92    4.06 
  -3  -4   2  238.00    3.73 
   3   4  -2  230.83    2.54 
   3   4  -2  335.57    4.86 
   3   4  -2  250.13    4.14 
  -3  -4   1   23.87    1.22 
  -3  -4   1   26.63    0.67 
  -3  -4   1   21.88    1.16 
  -3  -4   1   17.06    0.98 
   3   4  -1   24.65    1.23 
   3   4  -1   18.72    1.07 
  -3  -4   0  230.72    3.83 
  -3  -4   0  231.48    3.81 
  -3  -4   0  165.21    3.10 
   3   4   0  238.53    3.88 
   3   4   0  192.95    3.41 
  -3  -4  -1   79.67    2.17 
  -3  -4  -1   79.36    2.13 
  -3  -4  -1   56.27    1.79 
   3   4   1   83.99    2.21 
   3   4   1   68.25    1.92 
  -3  -4  -2  119.20    2.66 
  -3  -4  -2  115.63    2.57 
  -3  -4  -2   84.60    2.23 
   3   4   2  120.31    2.66 
   3   4   2  101.76    2.31 
  -3  -4  -3   80.14    2.18 
  -3  -4  -3   82.77    2.16 
  -3  -4  -3   57.26    1.85 
   3   4   3   88.43    1.22 
   3   4   3   82.36    2.20 
   3   4   3   72.96    1.91 
  -3  -4  -4   42.47    0.96 
  -3  -4  -4   41.00    1.58 
  -3  -4  -4   42.45    1.56 
  -3  -4  -4   30.42    1.37 
   3   4   4   43.90    1.63 
   3   4   4   36.54    1.33 
  -3  -4  -5  267.52    3.10 
  -3  -4  -5  284.78    4.42 
  -3  -4  -5  284.95    4.28 
  -3  -4  -5  204.00    3.68 
   3   4   5  300.56    4.56 
   3   4   5  277.39    3.86 
  -3  -4  -6   14.02    0.73 
  -3  -4  -6   14.80    1.01 
  -3  -4  -6   16.20    1.01 
  -3  -4  -6   11.64    0.89 
   3   4   6   16.71    1.08 
   3   4   6   15.77    0.88 
  -3  -4  -7   73.49    1.82 
  -3  -4  -7   82.57    2.42 
  -3  -4  -7   82.00    2.31 
  -3  -4  -7   61.84    2.04 
   3   4   7   81.58    2.42 
   3   4   7   87.32    2.07 
  -3  -4  -8   35.02    1.36 
  -3  -4  -8   41.94    1.78 
  -3  -4  -8   40.25    1.67 
  -3  -4  -8   34.66    1.56 
   3   4   8   40.09    1.76 
   3   4   8   42.90    1.46 
  -3  -4  -9  115.97    2.68 
  -3  -4  -9  133.74    3.32 
  -3  -4  -9  132.94    3.16 
  -3  -4  -9  107.08    2.80 
   3   4   9  141.54    3.45 
   3   4   9  144.88    2.78 
  -3  -4 -10   47.19    1.80 
  -3  -4 -10   55.24    2.20 
  -3  -4 -10   54.71    2.08 
  -3  -4 -10   46.94    1.88 
   3   4  10   59.37    2.30 
   3   4  10   61.42    1.82 
  -3  -4 -11   32.33    1.60 
  -3  -4 -11   39.25    1.93 
  -3  -4 -11   39.12    1.83 
  -3  -4 -11   34.88    1.66 
   3   4  11   37.84    1.92 
   3   4  11   40.13    1.51 
  -3  -4 -12   40.75    1.89 
  -3  -4 -12   45.18    2.15 
  -3  -4 -12   49.19    2.12 
  -3  -4 -12   41.24    1.83 
   3   4  12   49.76    2.28 
   3   4  12   50.97    1.74 
  -3  -4 -13    6.38    0.84 
  -3  -4 -13    9.27    1.05 
  -3  -4 -13    7.45    0.91 
  -3  -4 -13    4.98    0.69 
   3   4  13    7.76    1.00 
   3   4  13    7.96    0.75 
  -3  -4 -14   64.95    2.63 
  -3  -4 -14   71.97    2.92 
  -3  -4 -14   78.56    2.89 
  -3  -4 -14   73.04    2.52 
   3   4  14   79.78    3.11 
   3   4  14   90.42    2.47 
  -3  -4 -15    0.60    0.46 
  -3  -4 -15    0.53    0.49 
  -3  -4 -15    0.73    0.47 
  -3  -4 -15    0.84    0.42 
   3   4  15    1.40    0.60 
  -3  -4 -16   27.64    1.89 
  -3  -4 -16   29.88    2.04 
  -3  -4 -16   29.90    1.93 
  -3  -4 -16   28.78    1.63 
   3   4  16   31.39    2.12 
  -3  -4 -17    7.20    1.07 
  -3  -4 -17    7.06    1.10 
  -3  -4 -17    8.91    1.14 
   3   4  17    8.53    1.22 
  -3  -4 -18   11.07    1.35 
  -3  -4 -18   10.70    1.37 
  -3  -4 -18   10.01    1.25 
   3   4  18   12.20    1.48 
  -3  -4 -19   13.18    1.53 
  -3  -4 -19   12.88    1.55 
  -3  -4 -19   14.46    1.54 
   3   4  19   17.14    1.79 
  -3  -5  15   15.59    1.73 
  -3  -5  15   12.83    1.52 
   3   5 -15   14.03    1.48 
   3   5 -15   14.70    1.68 
   3   5 -15   15.08    1.72 
  -3  -5  14   14.30    1.55 
   3   5 -14   17.15    1.56 
   3   5 -14   17.74    1.76 
   3   5 -14   17.77    1.78 
  -3  -5  13    5.60    0.99 
   3   5 -13    6.19    0.95 
   3   5 -13    6.79    1.12 
   3   5 -13    6.26    1.09 
  -3  -5  12   28.14    1.99 
   3   5 -12   28.58    1.81 
   3   5 -12   28.60    2.05 
   3   5 -12   29.93    2.10 
  -3  -5  11    3.46    0.77 
   3   5 -11    1.88    0.53 
   3   5 -11    3.29    0.78 
   3   5 -11    3.80    0.83 
  -3  -5  10   41.06    2.24 
   3   5 -10   27.22    1.58 
   3   5 -10   52.61    2.56 
   3   5 -10   52.99    2.57 
  -3  -5   9    4.21    0.78 
   3   5  -9    3.34    0.60 
   3   5  -9    4.03    0.78 
   3   5  -9    4.59    0.82 
  -3  -5   8   47.25    2.25 
  -3  -5   8   54.05    1.65 
   3   5  -8   49.68    1.92 
   3   5  -8   58.75    2.52 
  -3  -5   7   37.78    1.96 
  -3  -5   7   31.01    1.77 
  -3  -5   7   30.68    1.27 
   3   5  -7   30.83    1.42 
   3   5  -7   38.71    1.98 
  -3  -5   6   48.75    2.14 
  -3  -5   6   39.94    1.94 
  -3  -5   6   38.16    1.44 
   3   5  -6   40.92    1.53 
   3   5  -6   49.45    2.16 
  -3  -5   5   61.60    2.33 
  -3  -5   5   44.25    1.97 
  -3  -5   5   48.25    1.64 
   3   5  -5   45.18    1.49 
   3   5  -5   55.46    2.21 
  -3  -5   4   32.03    1.64 
  -3  -5   4   24.16    1.42 
  -3  -5   4   23.43    1.15 
   3   5  -4   24.45    1.01 
   3   5  -4   33.33    1.67 
  -3  -5   3   95.49    2.73 
  -3  -5   3   72.51    2.37 
  -3  -5   3   69.32    2.01 
   3   5  -3   72.21    1.60 
   3   5  -3   94.98    2.73 
  -3  -5   2   31.96    1.54 
  -3  -5   2   29.18    1.45 
  -3  -5   2   25.14    1.35 
  -3  -5   2   22.40    1.15 
   3   5  -2   24.34    0.82 
   3   5  -2   33.00    1.58 
  -3  -5   1  281.97    4.59 
  -3  -5   1  259.76    4.35 
  -3  -5   1  208.90    3.85 
  -3  -5   1  194.89    3.51 
   3   5  -1  210.97    2.42 
   3   5  -1  281.44    4.63 
  -3  -5   0   22.11    0.59 
  -3  -5   0   19.96    1.17 
  -3  -5   0   23.82    0.72 
  -3  -5   0   17.86    1.09 
  -3  -5   0   14.91    0.99 
  -3  -5   0   13.89    0.94 
   3   5   0   15.87    0.50 
   3   5   0   17.25    0.62 
   3   5   0   19.49    1.18 
   3   5   0   15.46    1.01 
  -3  -5  -1  174.32    3.44 
  -3  -5  -1  170.27    3.32 
  -3  -5  -1  119.65    2.77 
   3   5   1  169.92    2.03 
   3   5   1  183.15    3.58 
   3   5   1  138.64    2.92 
  -3  -5  -2   36.74    1.54 
  -3  -5  -2   35.25    1.46 
  -3  -5  -2   24.78    1.27 
   3   5   2   41.46    0.88 
   3   5   2   40.38    1.65 
   3   5   2   32.15    1.35 
  -3  -5  -3   75.00    2.20 
  -3  -5  -3   78.31    2.17 
  -3  -5  -3   49.60    1.82 
   3   5   3   56.35    1.01 
   3   5   3   88.88    1.33 
   3   5   3   86.21    1.39 
   3   5   3   78.36    2.31 
   3   5   3   62.99    1.84 
  -3  -5  -4  200.94    3.71 
  -3  -5  -4  205.72    3.60 
  -3  -5  -4  131.75    3.04 
   3   5   4  218.32    2.55 
   3   5   4  223.77    2.65 
   3   5   4  209.35    3.88 
   3   5   4  166.80    3.00 
  -3  -5  -5   24.82    0.87 
  -3  -5  -5   23.31    1.26 
  -3  -5  -5   23.22    1.20 
  -3  -5  -5   16.44    1.10 
   3   5   5   24.25    0.86 
   3   5   5   23.86    1.31 
   3   5   5   20.46    1.01 
  -3  -5  -6   78.02    1.72 
  -3  -5  -6   70.28    2.22 
  -3  -5  -6   73.89    2.15 
  -3  -5  -6   50.72    1.93 
   3   5   6   74.63    2.36 
   3   5   6   66.66    1.79 
  -3  -5  -7    4.55    0.49 
  -3  -5  -7    5.10    0.68 
  -3  -5  -7    4.73    0.61 
  -3  -5  -7    3.66    0.60 
   3   5   7    5.82    0.74 
   3   5   7    5.44    0.54 
  -3  -5  -8  131.14    2.66 
  -3  -5  -8  136.21    3.28 
  -3  -5  -8  137.01    3.09 
  -3  -5  -8  102.84    2.85 
   3   5   8  143.39    3.47 
   3   5   8  132.19    2.53 
  -3  -5  -9    0.96    0.35 
  -3  -5  -9    0.84    0.42 
  -3  -5  -9    1.07    0.40 
  -3  -5  -9    1.23    0.43 
   3   5   9    1.33    0.49 
   3   5   9    0.71    0.28 
  -3  -5 -10   59.19    2.01 
  -3  -5 -10   64.80    2.39 
  -3  -5 -10   66.67    2.26 
  -3  -5 -10   50.94    2.08 
   3   5  10   69.36    2.56 
   3   5  10   67.80    1.80 
  -3  -5 -11   30.07    1.53 
  -3  -5 -11   33.86    1.80 
  -3  -5 -11   34.92    1.70 
  -3  -5 -11   28.25    1.58 
   3   5  11   33.31    1.85 
   3   5  11   32.85    1.27 
  -3  -5 -12   32.21    1.67 
  -3  -5 -12   34.71    1.88 
  -3  -5 -12   35.62    1.78 
  -3  -5 -12   25.21    1.52 
   3   5  12   35.36    1.97 
   3   5  12   36.22    1.35 
  -3  -5 -13   50.05    2.18 
  -3  -5 -13   57.82    2.51 
  -3  -5 -13   56.91    2.32 
  -3  -5 -13   44.68    2.06 
   3   5  13   58.21    2.60 
   3   5  13   59.84    1.78 
  -3  -5 -14   10.62    1.10 
  -3  -5 -14   10.07    1.14 
  -3  -5 -14   11.62    1.12 
  -3  -5 -14    9.23    1.00 
   3   5  14   11.17    1.24 
  -3  -5 -15   52.39    2.45 
  -3  -5 -15   62.10    2.79 
  -3  -5 -15   59.39    2.55 
   3   5  15   60.38    2.84 
  -3  -5 -16    0.35    0.45 
  -3  -5 -16   -0.24    0.37 
  -3  -5 -16    0.36    0.43 
  -3  -5 -16    0.56    0.43 
   3   5  16    0.35    0.51 
  -3  -5 -17   20.57    1.71 
  -3  -5 -17   21.45    1.79 
  -3  -5 -17   25.10    1.80 
  -3  -5 -17   21.63    1.54 
   3   5  17   21.93    1.88 
  -3  -5 -18    2.04    0.71 
  -3  -5 -18    2.07    0.72 
  -3  -5 -18    1.74    0.63 
   3   5  18    2.05    0.78 
  -3  -5 -19   17.35    1.72 
  -3  -5 -19   19.95    1.87 
  -3  -5 -19   19.09    1.69 
   3   5  19   17.12    1.80 
  -3  -6  14   19.47    1.88 
   3   6 -14   18.69    1.67 
   3   6 -14   20.68    1.97 
   3   6 -14   18.94    1.90 
  -3  -6  13    9.47    1.31 
   3   6 -13   12.00    1.31 
   3   6 -13   11.67    1.46 
   3   6 -13   11.07    1.44 
  -3  -6  12   10.87    1.35 
   3   6 -12   12.72    1.27 
   3   6 -12   11.37    1.40 
   3   6 -12   11.08    1.39 
  -3  -6  11   24.07    1.88 
   3   6 -11   25.11    1.94 
  -3  -6  10    2.97    0.75 
   3   6 -10    2.61    0.61 
   3   6 -10    3.17    0.78 
  -3  -6   9   46.55    2.44 
  -3  -6   9   37.68    2.20 
   3   6  -9   38.29    1.86 
   3   6  -9   48.64    2.51 
  -3  -6   8    0.31    0.41 
  -3  -6   8    0.18    0.39 
   3   6  -8   -0.18    0.25 
   3   6  -8    0.22    0.45 
  -3  -6   7   26.31    1.73 
  -3  -6   7   18.37    1.46 
  -3  -6   7   21.15    1.09 
   3   6  -7   19.21    1.19 
   3   6  -7   23.64    1.65 
  -3  -6   6    7.60    0.94 
  -3  -6   6    5.55    0.82 
  -3  -6   6    6.65    0.66 
   3   6  -6    6.76    0.69 
   3   6  -6    9.09    1.04 
  -3  -6   5   35.25    1.86 
  -3  -6   5   26.11    1.62 
  -3  -6   5   26.77    1.27 
   3   6  -5   28.14    1.27 
   3   6  -5   36.70    1.92 
  -3  -6   4   25.96    1.56 
  -3  -6   4   17.31    1.29 
  -3  -6   4   18.35    1.08 
   3   6  -4   20.68    1.02 
   3   6  -4   27.76    1.63 
  -3  -6   3   11.22    1.02 
  -3  -6   3    7.21    0.83 
  -3  -6   3    8.89    0.78 
   3   6  -3    9.26    0.65 
   3   6  -3   13.11    1.12 
  -3  -6   2  127.88    3.26 
  -3  -6   2  122.11    3.16 
  -3  -6   2   89.82    2.71 
  -3  -6   2   87.25    2.40 
   3   6  -2  107.69    2.04 
   3   6  -2  134.15    3.41 
  -3  -6   1   15.25    1.12 
  -3  -6   1   14.35    1.07 
  -3  -6   1   10.84    0.93 
  -3  -6   1    9.63    0.84 
   3   6  -1   13.21    0.66 
   3   6  -1   14.73    0.76 
   3   6  -1   15.20    1.16 
  -3  -6   0  242.04    4.37 
  -3  -6   0  241.85    4.29 
  -3  -6   0  165.66    3.50 
  -3  -6   0  157.61    3.34 
   3   6   0  223.99    2.74 
   3   6   0  238.58    3.07 
   3   6   0  250.50    4.57 
  -3  -6  -1    2.39    0.51 
  -3  -6  -1    2.27    0.48 
  -3  -6  -1    1.69    0.41 
  -3  -6  -1    2.28    0.48 
   3   6   1    2.09    0.28 
   3   6   1    2.55    0.34 
   3   6   1    3.26    0.59 
  -3  -6  -2  119.85    2.95 
  -3  -6  -2  117.69    2.82 
  -3  -6  -2   82.17    2.29 
  -3  -6  -2   74.04    2.33 
   3   6   2  129.41    1.89 
   3   6   2  127.60    2.04 
   3   6   2  119.37    3.05 
  -3  -6  -3   13.32    1.00 
  -3  -6  -3   16.09    1.04 
  -3  -6  -3   10.87    0.82 
  -3  -6  -3    8.84    0.85 
   3   6   3   16.65    0.67 
   3   6   3   16.28    0.72 
   3   6   3   14.76    1.10 
   3   6   3   11.50    0.85 
  -3  -6  -4  118.62    2.92 
  -3  -6  -4  128.78    2.90 
  -3  -6  -4   79.01    2.48 
   3   6   4  139.34    2.15 
   3   6   4  138.00    2.23 
   3   6   4  127.53    3.18 
   3   6   4   95.42    2.33 
  -3  -6  -5   99.19    2.69 
  -3  -6  -5   98.80    2.52 
  -3  -6  -5   64.25    2.26 
   3   6   5  109.28    2.01 
   3   6   5  106.90    2.04 
   3   6   5   99.83    2.83 
   3   6   5   79.84    2.07 
  -3  -6  -6   55.61    2.04 
  -3  -6  -6   58.90    1.95 
  -3  -6  -6   36.42    1.74 
   3   6   6   58.86    1.56 
   3   6   6   61.61    1.62 
   3   6   6   58.31    2.20 
   3   6   6   43.80    1.48 
  -3  -6  -7  132.99    2.56 
  -3  -6  -7  129.18    3.18 
  -3  -6  -7  128.96    2.95 
  -3  -6  -7   90.48    2.78 
   3   6   7  131.92    2.55 
   3   6   7  130.87    3.37 
   3   6   7  108.66    2.31 
  -3  -6  -8    9.30    0.75 
  -3  -6  -8    9.43    0.93 
  -3  -6  -8    9.78    0.86 
  -3  -6  -8    6.14    0.80 
   3   6   8   10.45    1.02 
   3   6   8    7.73    0.62 
  -3  -6  -9  192.53    3.54 
  -3  -6  -9  189.25    4.06 
  -3  -6  -9  199.79    3.85 
  -3  -6  -9  135.46    3.54 
   3   6   9  196.18    4.36 
   3   6   9  173.97    2.87 
  -3  -6 -10    2.31    0.50 
  -3  -6 -10    2.59    0.59 
  -3  -6 -10    2.64    0.55 
  -3  -6 -10    2.55    0.60 
   3   6  10    2.87    0.67 
   3   6  10    2.58    0.39 
  -3  -6 -11   96.41    2.75 
  -3  -6 -11   99.07    3.08 
  -3  -6 -11  104.86    2.90 
  -3  -6 -11   74.23    2.70 
   3   6  11  103.94    3.33 
   3   6  11  101.45    2.10 
  -3  -6 -12    4.20    0.67 
  -3  -6 -12    4.77    0.78 
  -3  -6 -12    4.37    0.67 
  -3  -6 -12    3.20    0.65 
   3   6  12    3.91    0.78 
  -3  -6 -13   40.41    1.97 
  -3  -6 -13   41.62    2.14 
  -3  -6 -13   43.38    1.99 
  -3  -6 -13   33.09    1.88 
   3   6  13   43.51    2.30 
  -3  -6 -14   36.59    1.97 
  -3  -6 -14   36.81    2.08 
  -3  -6 -14   38.36    1.93 
  -3  -6 -14   29.22    1.80 
   3   6  14   39.49    2.27 
  -3  -6 -15   24.43    1.70 
  -3  -6 -15   27.59    1.87 
  -3  -6 -15   27.17    1.70 
  -3  -6 -15   23.07    1.63 
   3   6  15   28.77    2.02 
  -3  -6 -16   36.43    2.14 
  -3  -6 -16   40.37    2.33 
  -3  -6 -16   40.96    2.14 
  -3  -6 -16   36.18    2.07 
   3   6  16   39.64    2.43 
  -3  -6 -17    3.90    0.84 
  -3  -6 -17    4.52    0.91 
  -3  -6 -17    4.62    0.83 
  -3  -6 -17    4.65    0.84 
   3   6  17    5.30    1.04 
  -3  -6 -18   25.93    1.98 
  -3  -6 -18   29.86    2.16 
  -3  -6 -18   26.57    1.84 
   3   6  18   30.96    2.31 
  -3  -6 -19    0.32    0.56 
  -3  -6 -19    0.29    0.55 
   3   6  19   -0.21    0.53 
  -3  -7  13   20.01    1.95 
   3   7 -13   16.49    1.56 
   3   7 -13   18.95    1.91 
  -3  -7  12    3.93    0.94 
  -3  -7  12    3.23    0.89 
   3   7 -12   -0.07    0.18 
   3   7 -12    3.94    0.97 
  -3  -7  11   16.96    1.69 
  -3  -7  11   15.93    1.64 
   3   7 -11   15.70    1.41 
   3   7 -11   15.73    1.64 
  -3  -7  10   27.84    2.06 
  -3  -7  10   22.14    1.85 
   3   7 -10   22.38    1.58 
   3   7 -10   24.34    1.95 
  -3  -7   9   12.69    1.38 
  -3  -7   9    9.77    1.24 
   3   7  -9   11.88    1.12 
   3   7  -9   12.68    1.40 
  -3  -7   8   46.23    2.47 
  -3  -7   8   35.07    2.18 
   3   7  -8   38.43    1.87 
   3   7  -8   42.34    2.38 
  -3  -7   7    2.43    0.67 
  -3  -7   7    0.97    0.51 
   3   7  -7    1.50    0.46 
   3   7  -7    1.49    0.61 
  -3  -7   6   82.99    3.09 
  -3  -7   6   59.04    2.64 
  -3  -7   6   67.48    2.06 
   3   7  -6   69.23    2.27 
   3   7  -6   79.69    3.07 
  -3  -7   5    1.56    0.54 
  -3  -7   5    0.95    0.45 
  -3  -7   5    1.94    0.45 
   3   7  -5    1.67    0.41 
   3   7  -5    1.51    0.57 
  -3  -7   4   40.41    2.04 
  -3  -7   4   29.14    1.75 
  -3  -7   4   29.28    1.43 
   3   7  -4   36.42    1.48 
   3   7  -4   45.28    2.20 
  -3  -7   3    8.78    0.97 
  -3  -7   3    6.50    0.85 
  -3  -7   3    6.56    0.73 
   3   7  -3    8.29    0.69 
   3   7  -3    8.79    1.01 
  -3  -7   2   55.10    2.25 
  -3  -7   2   49.08    2.10 
  -3  -7   2   34.23    1.78 
  -3  -7   2   38.43    1.69 
   3   7  -2   50.23    1.56 
   3   7  -2   50.92    1.68 
   3   7  -2   58.10    2.38 
  -3  -7   1   45.53    2.00 
  -3  -7   1   47.47    2.01 
  -3  -7   1   33.00    1.70 
  -3  -7   1   31.12    1.54 
   3   7  -1   44.82    1.39 
   3   7  -1   46.24    1.52 
   3   7  -1   47.93    2.13 
  -3  -7   0   10.86    1.00 
  -3  -7   0   10.02    0.93 
  -3  -7   0    6.15    0.74 
  -3  -7   0    6.10    0.74 
   3   7   0   10.00    0.65 
   3   7   0    9.48    0.69 
   3   7   0    9.56    1.00 
  -3  -7  -1  124.33    3.20 
  -3  -7  -1  120.12    3.05 
  -3  -7  -1   84.27    2.54 
  -3  -7  -1   78.63    2.51 
   3   7   1  127.90    2.25 
   3   7   1  131.79    2.46 
   3   7   1  125.08    3.36 
  -3  -7  -2   13.46    1.07 
  -3  -7  -2   12.65    0.99 
  -3  -7  -2    8.75    0.82 
  -3  -7  -2    7.63    0.84 
   3   7   2   14.63    0.75 
   3   7   2   13.89    0.79 
   3   7   2   13.04    1.13 
  -3  -7  -3  139.82    3.33 
  -3  -7  -3  147.69    3.27 
  -3  -7  -3    0.23    0.16 
  -3  -7  -3   89.15    2.75 
   3   7   3  159.26    2.53 
   3   7   3  160.87    2.70 
   3   7   3  142.68    3.56 
  -3  -7  -4    4.08    0.66 
  -3  -7  -4    4.06    0.61 
  -3  -7  -4    2.78    0.48 
  -3  -7  -4    2.37    0.56 
   3   7   4    4.09    0.46 
   3   7   4    4.16    0.48 
   3   7   4    4.22    0.72 
  -3  -7  -5  156.41    3.53 
  -3  -7  -5  161.83    3.36 
  -3  -7  -5  107.62    2.53 
  -3  -7  -5  102.25    3.04 
   3   7   5  174.14    2.83 
   3   7   5  173.46    2.93 
   3   7   5  168.59    3.92 
  -3  -7  -6   41.89    1.84 
  -3  -7  -6   44.73    1.75 
  -3  -7  -6   29.81    1.27 
  -3  -7  -6   28.09    1.63 
   3   7   6   46.70    1.50 
   3   7   6   47.06    1.54 
   3   7   6   42.49    1.99 
  -3  -7  -7   79.52    2.55 
  -3  -7  -7   84.45    2.41 
  -3  -7  -7   54.06    1.66 
  -3  -7  -7   49.21    2.17 
   3   7   7   85.41    2.14 
   3   7   7   84.10    2.17 
   3   7   7   82.97    2.81 
  -3  -7  -8   87.84    2.73 
  -3  -7  -8   93.13    2.56 
  -3  -7  -8   63.83    1.74 
  -3  -7  -8   56.21    2.36 
   3   7   8   93.59    2.37 
   3   7   8   92.85    2.39 
   3   7   8   85.94    2.91 
  -3  -7  -9   25.63    1.52 
  -3  -7  -9   27.40    1.42 
  -3  -7  -9   20.47    0.94 
  -3  -7  -9   19.19    1.42 
   3   7   9   28.87    1.39 
   3   7   9   25.45    1.64 
   3   7   9   19.37    0.93 
  -3  -7 -10  100.36    2.73 
  -3  -7 -10   95.89    2.98 
  -3  -7 -10   95.96    2.68 
  -3  -7 -10   66.13    2.64 
   3   7  10  100.92    3.30 
   3   7  10   79.39    1.80 
  -3  -7 -11    0.57    0.39 
  -3  -7 -11    0.23    0.40 
  -3  -7 -11    0.57    0.37 
  -3  -7 -11    0.22    0.39 
   3   7  11    0.71    0.52 
  -3  -7 -12   71.31    2.53 
  -3  -7 -12   70.55    2.70 
  -3  -7 -12   70.79    2.42 
  -3  -7 -12   51.47    2.41 
   3   7  12   69.79    2.89 
  -3  -7 -13    6.98    0.89 
  -3  -7 -13    6.29    0.91 
  -3  -7 -13    6.39    0.80 
  -3  -7 -13    4.52    0.81 
   3   7  13    6.64    1.01 
  -3  -7 -14   59.29    2.52 
  -3  -7 -14   60.78    2.67 
  -3  -7 -14   60.11    2.37 
  -3  -7 -14   47.84    2.42 
   3   7  14   59.98    2.85 
  -3  -7 -15   23.33    1.68 
  -3  -7 -15   26.56    1.84 
  -3  -7 -15   23.39    1.54 
  -3  -7 -15   20.10    1.62 
   3   7  15   24.63    1.91 
  -3  -7 -16   25.24    1.81 
  -3  -7 -16   28.98    1.99 
  -3  -7 -16   23.05    1.76 
   3   7  16   25.52    2.00 
  -3  -7 -17   30.85    2.09 
  -3  -7 -17   30.89    2.12 
  -3  -7 -17   27.25    1.94 
   3   7  17   33.67    2.36 
  -3  -7 -18    2.92    0.82 
  -3  -7 -18    2.94    0.80 
  -3  -7 -18    3.22    0.80 
   3   7  18    3.20    0.92 
  -3  -8  11    1.99    0.77 
  -3  -8  11    1.20    0.68 
   3   8 -11    0.95    0.55 
   3   8 -11    1.34    0.74 
  -3  -8  10   28.70    2.19 
  -3  -8  10   22.98    2.00 
   3   8 -10   26.69    1.80 
   3   8 -10   25.13    2.07 
  -3  -8   9   19.35    1.77 
  -3  -8   9   14.20    1.55 
   3   8  -9   14.31    1.29 
   3   8  -9   16.79    1.67 
  -3  -8   8   22.50    1.83 
  -3  -8   8   18.50    1.69 
   3   8  -8   19.04    1.41 
   3   8  -8   20.32    1.78 
  -3  -8   7   41.83    2.39 
  -3  -8   7   30.39    2.08 
   3   8  -7   35.63    1.83 
   3   8  -7   40.45    2.38 
  -3  -8   6    4.22    0.84 
  -3  -8   6    1.99    0.65 
   3   8  -6    3.33    0.61 
   3   8  -6    4.12    0.85 
  -3  -8   5   64.60    2.79 
  -3  -8   5   41.38    2.28 
  -3  -8   5   47.12    1.86 
   3   8  -5   54.26    2.06 
   3   8  -5   58.84    2.72 
  -3  -8   4    0.13    0.40 
  -3  -8   4   -0.04    0.34 
  -3  -8   4    0.20    0.33 
   3   8  -4    0.58    0.33 
   3   8  -4   -0.34    0.39 
  -3  -8   3   71.35    2.77 
  -3  -8   3   44.53    2.23 
  -3  -8   3   49.91    2.00 
   3   8  -3   65.39    2.07 
   3   8  -3   68.82    2.25 
   3   8  -3   70.65    2.85 
  -3  -8   2   23.83    1.58 
  -3  -8   2   21.80    1.49 
  -3  -8   2   15.37    1.29 
  -3  -8   2   16.03    1.18 
   3   8  -2   21.34    1.14 
   3   8  -2   21.85    1.23 
   3   8  -2   22.12    1.59 
  -3  -8   1   61.91    2.46 
  -3  -8   1   55.88    2.29 
  -3  -8   1   36.35    1.89 
  -3  -8   1   40.61    1.87 
   3   8  -1   56.43    1.77 
   3   8  -1   60.27    1.95 
   3   8  -1   59.67    2.52 
  -3  -8   0   53.67    2.24 
  -3  -8   0   54.46    2.20 
  -3  -8   0   34.08    1.78 
  -3  -8   0   32.04    1.68 
   3   8   0   52.62    1.66 
   3   8   0   53.69    1.79 
   3   8   0   55.56    2.40 
  -3  -8  -1   56.18    2.25 
  -3  -8  -1   55.21    2.16 
  -3  -8  -1   33.65    1.71 
  -3  -8  -1   33.57    1.75 
   3   8   1   56.83    1.69 
   3   8   1   57.64    1.82 
   3   8   1   51.19    2.28 
  -3  -8  -2   69.61    2.47 
  -3  -8  -2   68.71    2.36 
  -3  -8  -2   41.19    1.83 
  -3  -8  -2   43.04    2.00 
   3   8   2   72.42    1.89 
   3   8   2   72.42    2.01 
   3   8   2   67.93    2.61 
  -3  -8  -3    4.36    0.70 
  -3  -8  -3    3.83    0.62 
  -3  -8  -3    0.58    0.26 
  -3  -8  -3    3.16    0.64 
   3   8   3    4.03    0.51 
   3   8   3    3.90    0.54 
   3   8   3    4.52    0.77 
  -3  -8  -4  101.07    2.94 
  -3  -8  -4  103.23    2.79 
  -3  -8  -4   62.25    2.10 
  -3  -8  -4   63.21    2.49 
   3   8   4  108.65    2.36 
   3   8   4  111.23    2.51 
   3   8   4  103.22    3.21 
  -3  -8  -5    0.95    0.48 
  -3  -8  -5    0.14    0.35 
  -3  -8  -5    0.25    0.27 
  -3  -8  -5    0.22    0.37 
   3   8   5    0.08    0.28 
   3   8   5   -0.29    0.26 
   3   8   5    0.07    0.43 
  -3  -8  -6  127.49    3.32 
  -3  -8  -6  131.56    3.09 
  -3  -8  -6   80.69    2.22 
  -3  -8  -6   75.27    2.80 
   3   8   6  134.82    2.79 
   3   8   6  139.82    2.95 
   3   8   6  122.13    3.54 
  -3  -8  -7   13.51    1.13 
  -3  -8  -7   13.94    1.03 
  -3  -8  -7    8.46    0.70 
  -3  -8  -7    8.61    1.01 
   3   8   7   14.24    0.95 
   3   8   7   13.15    0.95 
   3   8   7   12.52    1.21 
  -3  -8  -8   86.84    2.78 
  -3  -8  -8   90.80    2.56 
  -3  -8  -8   58.19    1.71 
  -3  -8  -8   54.82    2.46 
   3   8   8   95.37    2.53 
   3   8   8   94.24    2.56 
   3   8   8   89.55    3.11 
  -3  -8  -9   65.10    2.45 
  -3  -8  -9   69.34    2.25 
  -3  -8  -9   43.61    2.24 
   3   8   9   71.09    2.27 
   3   8   9   74.54    2.36 
   3   8   9   67.14    2.74 
  -3  -8 -10   31.49    1.75 
  -3  -8 -10   34.73    1.62 
  -3  -8 -10   21.94    1.63 
   3   8  10   33.02    1.63 
   3   8  10   35.80    1.71 
   3   8  10   33.96    2.01 
  -3  -8 -11   79.63    2.83 
  -3  -8 -11   82.48    2.52 
  -3  -8 -11   54.45    2.57 
   3   8  11   87.42    2.75 
   3   8  11   81.28    3.15 
  -3  -8 -12    4.14    0.77 
  -3  -8 -12    3.68    0.62 
  -3  -8 -12    2.68    0.70 
   3   8  12    3.54    0.69 
   3   8  12    4.85    0.90 
  -3  -8 -13   40.61    2.05 
  -3  -8 -13   43.32    2.20 
  -3  -8 -13   40.44    1.85 
  -3  -8 -13   30.43    2.00 
   3   8  13   35.25    1.90 
   3   8  13   42.56    2.40 
  -3  -8 -14    0.75    0.51 
  -3  -8 -14    1.19    0.58 
  -3  -8 -14    0.60    0.49 
   3   8  14    0.50    0.54 
  -3  -8 -15   58.87    2.66 
  -3  -8 -15   62.07    2.79 
  -3  -8 -15   44.90    2.51 
   3   8  15   60.07    3.01 
  -3  -8 -16   18.37    1.59 
  -3  -8 -16   16.79    1.54 
  -3  -8 -16   13.06    1.43 
   3   8  16   17.25    1.71 
  -3  -8 -17   18.91    1.68 
  -3  -8 -17   23.42    1.85 
  -3  -8 -17   18.36    1.70 
   3   8  17   21.95    1.97 
  -3  -8 -18   11.07    1.36 
  -3  -8 -18   10.69    1.34 
  -3  -8 -18    8.16    1.21 
   3   8  18   10.70    1.48 
  -3  -9   9   32.85    2.37 
  -3  -9   9   28.67    2.27 
   3   9  -9   34.40    2.45 
  -3  -9   8    9.75    1.32 
  -3  -9   8    7.47    1.19 
   3   9  -8    9.66    1.35 
  -3  -9   7   26.65    2.02 
  -3  -9   7   22.35    1.91 
   3   9  -7   25.60    2.02 
  -3  -9   6   29.34    2.06 
  -3  -9   6   21.41    1.81 
   3   9  -6   26.44    2.00 
  -3  -9   5   22.04    1.74 
  -3  -9   5   14.84    1.49 
   3   9  -5   17.90    1.29 
   3   9  -5   22.00    1.80 
  -3  -9   4   64.32    2.84 
  -3  -9   4   41.37    2.35 
  -3  -9   4   48.01    2.03 
   3   9  -4   56.29    2.17 
   3   9  -4   62.16    2.89 
  -3  -9   3   -0.07    0.40 
  -3  -9   3    0.11    0.38 
  -3  -9   3    0.17    0.35 
   3   9  -3    0.15    0.31 
   3   9  -3    0.05    0.34 
   3   9  -3   -0.03    0.47 
  -3  -9   2   47.85    2.33 
  -3  -9   2   46.65    2.28 
  -3  -9   2   30.23    1.90 
  -3  -9   2   33.94    1.78 
   3   9  -2   45.07    1.81 
   3   9  -2   46.04    1.94 
   3   9  -2   48.92    2.47 
  -3  -9   1    4.55    0.80 
  -3  -9   1    3.81    0.71 
  -3  -9   1    2.02    0.58 
  -3  -9   1    2.34    0.58 
   3   9  -1    4.07    0.59 
   3   9  -1    4.12    0.63 
   3   9  -1    2.99    0.74 
  -3  -9   0   45.20    2.17 
  -3  -9   0   42.57    2.05 
  -3  -9   0   27.66    1.71 
  -3  -9   0   27.04    1.65 
   3   9   0   43.28    1.68 
   3   9   0   43.42    1.79 
   3   9   0   44.61    2.29 
  -3  -9  -1   53.17    2.31 
  -3  -9  -1   51.08    2.19 
  -3  -9  -1   30.82    1.75 
  -3  -9  -1   30.57    1.77 
   3   9   1   52.98    1.83 
   3   9   1   51.50    1.92 
   3   9   1   50.51    2.41 
  -3  -9  -2   34.08    1.83 
  -3  -9  -2   35.97    1.79 
  -3  -9  -2   21.73    1.43 
  -3  -9  -2   20.65    1.49 
   3   9   2   34.55    1.47 
   3   9   2   36.71    1.60 
   3   9   2   34.02    1.98 
  -3  -9  -3   65.41    2.48 
  -3  -9  -3   61.29    2.28 
  -3  -9  -3   36.22    1.77 
  -3  -9  -3   37.96    2.03 
   3   9   3   64.97    2.00 
   3   9   3   66.38    2.14 
   3   9   3   61.64    2.63 
  -3  -9  -4   11.22    1.07 
  -3  -9  -4   10.49    0.97 
  -3  -9  -4    6.62    0.77 
  -3  -9  -4    5.60    0.85 
   3   9   4   10.97    0.87 
   3   9   4   11.23    0.92 
   3   9   4    9.52    1.10 
  -3  -9  -5   67.53    2.50 
  -3  -9  -5   69.34    2.33 
  -3  -9  -5   40.13    1.73 
  -3  -9  -5   39.01    2.11 
   3   9   5   72.99    2.16 
   3   9   5   73.46    2.27 
   3   9   5   70.76    2.82 
  -3  -9  -6   -0.38    0.39 
  -3  -9  -6    0.11    0.36 
  -3  -9  -6    0.01    0.25 
  -3  -9  -6    0.04    0.39 
   3   9   6    0.09    0.35 
   3   9   6   -0.39    0.41 
  -3  -9  -7  108.87    3.19 
  -3  -9  -7  108.80    2.86 
  -3  -9  -7   64.16    2.00 
  -3  -9  -7   64.76    2.79 
   3   9   7  109.91    2.80 
   3   9   7  109.91    2.89 
   3   9   7  102.74    3.45 
  -3  -9  -8    9.92    1.04 
  -3  -9  -8   10.19    0.92 
  -3  -9  -8    5.82    0.94 
   3   9   8   10.00    0.91 
   3   9   8    9.96    0.94 
   3   9   8    8.87    1.11 
  -3  -9  -9   69.70    2.60 
  -3  -9  -9   73.89    2.34 
  -3  -9  -9   45.28    2.40 
   3   9   9   76.11    2.47 
   3   9   9   80.06    2.59 
   3   9   9   71.85    2.96 
  -3  -9 -10   22.95    1.54 
  -3  -9 -10   15.80    1.48 
   3   9  10   22.88    1.43 
   3   9  10   23.82    1.48 
   3   9  10   23.15    1.75 
  -3  -9 -11   31.60    1.83 
  -3  -9 -11   22.17    1.76 
   3   9  11   36.34    1.85 
   3   9  11   35.95    1.86 
   3   9  11   35.55    2.18 
  -3  -9 -12   31.16    1.85 
  -3  -9 -12   21.14    1.75 
   3   9  12   33.99    1.86 
   3   9  12   32.05    1.82 
   3   9  12   33.51    2.17 
  -3  -9 -13   16.14    1.40 
  -3  -9 -13   10.14    1.26 
   3   9  13   16.78    1.38 
   3   9  13   16.81    1.39 
   3   9  13   17.10    1.62 
  -3  -9 -14   46.54    2.37 
  -3  -9 -14   33.61    2.26 
   3   9  14   30.47    1.89 
   3   9  14   47.42    2.68 
  -3  -9 -15    0.29    0.49 
  -3  -9 -15    0.08    0.48 
   3   9  15    0.12    0.39 
   3   9  15    0.33    0.57 
  -3  -9 -16   43.62    2.42 
  -3  -9 -16   34.11    2.35 
   3   9  16   42.87    2.42 
   3   9  16   41.50    2.65 
  -3  -9 -17    2.53    0.80 
  -3  -9 -17    2.69    0.77 
  -3  -9 -17    1.43    0.69 
   3   9  17    3.58    0.86 
   3   9  17    2.75    0.90 
  -3 -10   7    7.23    1.20 
  -3 -10   7    5.92    1.14 
   3  10  -7    7.31    1.25 
  -3 -10   6   29.80    2.17 
  -3 -10   6   19.99    1.86 
   3  10  -6   29.16    2.21 
  -3 -10   5   18.75    1.70 
  -3 -10   5   13.36    1.49 
   3  10  -5   20.62    1.84 
  -3 -10   4   20.16    1.71 
  -3 -10   4   13.13    1.44 
   3  10  -4   16.47    1.63 
  -3 -10   3   35.54    2.17 
  -3 -10   3   34.26    2.12 
  -3 -10   3   23.45    1.84 
  -3 -10   3   24.19    1.57 
   3  10  -3   31.37    1.80 
   3  10  -3   34.17    2.24 
  -3 -10   2    7.42    1.04 
  -3 -10   2    7.02    0.99 
  -3 -10   2    4.13    0.83 
  -3 -10   2    5.20    0.80 
   3  10  -2    6.47    0.85 
   3  10  -2    6.88    1.08 
  -3 -10   1   48.13    2.40 
  -3 -10   1   47.06    2.34 
  -3 -10   1   29.73    1.94 
  -3 -10   1   29.96    1.80 
   3  10  -1   48.37    2.12 
   3  10  -1   41.99    2.39 
  -3 -10   0    1.78    0.61 
  -3 -10   0    0.22    0.43 
  -3 -10   0    0.85    0.49 
  -3 -10   0    0.18    0.40 
   3  10   0    0.83    0.45 
   3  10   0    0.66    0.58 
  -3 -10  -1   88.99    3.13 
  -3 -10  -1   88.52    3.02 
  -3 -10  -1   51.16    2.39 
  -3 -10  -1   51.96    2.44 
   3  10   1   84.05    2.69 
   3  10   1   86.29    3.33 
  -3 -10  -2   11.41    1.16 
  -3 -10  -2   11.78    1.12 
  -3 -10  -2    6.21    0.86 
  -3 -10  -2    6.85    0.96 
   3  10   2   13.67    1.12 
   3  10   2   12.13    1.31 
  -3 -10  -3   25.52    1.65 
  -3 -10  -3   25.44    1.55 
  -3 -10  -3   15.84    1.27 
  -3 -10  -3   15.15    1.38 
   3  10   3   25.94    1.48 
   3  10   3   22.18    1.70 
  -3 -10  -4   24.01    1.58 
  -3 -10  -4   25.69    1.53 
  -3 -10  -4   15.28    1.20 
  -3 -10  -4   13.66    1.34 
   3  10   4   24.47    1.45 
   3  10   4   23.42    1.74 
  -3 -10  -5   13.64    1.22 
  -3 -10  -5   14.44    1.14 
  -3 -10  -5    8.43    0.88 
  -3 -10  -5    7.00    1.00 
   3  10   5   12.36    1.06 
   3  10   5   13.59    1.36 
  -3 -10  -6   45.61    2.14 
  -3 -10  -6   45.27    1.92 
  -3 -10  -6   27.65    1.91 
   3  10   6   45.91    1.90 
   3  10   6   46.93    2.00 
   3  10   6   42.00    2.32 
  -3 -10  -7    2.18    0.62 
  -3 -10  -7    1.76    0.63 
   3  10   7    2.60    0.57 
   3  10   7    2.39    0.58 
   3  10   7    2.14    0.72 
  -3 -10  -8   32.69    1.83 
  -3 -10  -8   20.49    1.70 
   3  10   8   33.88    1.71 
   3  10   8   35.84    1.81 
   3  10   8   30.23    2.01 
  -3 -10  -9   -0.02    0.42 
  -3 -10  -9   -0.20    0.40 
   3  10   9    0.01    0.37 
   3  10   9   -0.09    0.38 
   3  10   9   -0.33    0.46 
  -3 -10 -10   50.76    2.30 
  -3 -10 -10   30.19    2.12 
   3  10  10   49.60    2.18 
   3  10  10   53.04    2.30 
   3  10  10   46.71    2.54 
  -3 -10 -11    6.01    0.91 
  -3 -10 -11    5.17    0.96 
   3  10  11    8.83    1.01 
   3  10  11    8.15    1.00 
   3  10  11    7.11    1.12 
  -3 -10 -12   33.79    1.96 
  -3 -10 -12   19.78    1.78 
   3  10  12   36.38    2.00 
   3  10  12   36.25    2.02 
   3  10  12   34.74    2.29 
  -3 -10 -13   10.48    1.36 
   3  10  13   19.64    1.55 
   3  10  13   19.50    1.56 
   3  10  13   18.50    1.74 
  -3 -10 -14    7.98    1.22 
   3  10  14   12.30    1.30 
   3  10  14   12.79    1.33 
   3  10  14   11.91    1.47 
  -3 -10 -15   19.74    1.87 
   3  10  15   20.73    1.67 
   3  10  15    0.38    0.32 
   3  10  15   31.53    2.34 
  -3 -10 -16    0.65    0.63 
   3  10  16    0.57    0.47 
   3  10  16    1.47    0.67 
   3  10  16    0.64    0.68 
  -3 -11   4    8.86    1.25 
  -3 -11   4    9.33    1.26 
  -3 -11   4    6.18    1.10 
   3  11  -4    7.79    1.25 
  -3 -11   3   20.74    1.77 
  -3 -11   3   19.34    1.70 
  -3 -11   3   13.25    1.49 
   3  11  -3   19.84    1.83 
  -3 -11   2   19.22    1.67 
  -3 -11   2   18.98    1.63 
  -3 -11   2   12.16    1.39 
   3  11  -2   15.79    1.63 
  -3 -11   1   18.89    1.62 
  -3 -11   1   16.59    1.49 
  -3 -11   1   10.39    1.26 
  -3 -11   1   10.46    1.17 
   3  11  -1   16.31    1.63 
  -3 -11   0   48.64    2.48 
  -3 -11   0   46.94    2.38 
  -3 -11   0   29.17    1.98 
  -3 -11   0   30.81    1.97 
   3  11   0   47.06    2.64 
  -3 -11  -1    0.29    0.49 
  -3 -11  -1   -0.03    0.38 
  -3 -11  -1    0.33    0.44 
   3  11   1    0.18    0.59 
  -3 -11  -2   59.95    2.64 
  -3 -11  -2   33.25    2.10 
   3  11   2   52.83    2.74 
  -3 -11  -3    3.29    0.74 
  -3 -11  -3    2.45    0.62 
  -3 -11  -3    2.13    0.66 
   3  11   3    3.53    0.87 
  -3 -11  -4   35.95    2.00 
  -3 -11  -4   18.68    1.64 
   3  11   4   34.71    2.22 
  -3 -11  -5    9.44    1.08 
  -3 -11  -5    5.68    0.97 
   3  11   5    8.06    1.16 
  -3 -11  -6   16.62    1.39 
  -3 -11  -6    8.10    1.15 
   3  11   6   17.02    1.60 
  -3 -11  -7   17.34    1.64 
   3  11   7   26.67    1.97 
  -3 -11  -8    5.23    0.98 
   3  11   8    8.03    1.19 
  -3 -11  -9   33.02    2.29 
   3  11   9   55.21    2.85 
  -3 -11 -10    0.10    0.49 
   3  11  10    0.59    0.62 
  -3 -11 -11   23.20    2.00 
   3  11  11   34.46    2.33 
  -3 -11 -12    1.90    0.76 
   3  11  12    4.89    1.03 
  -3 -11 -13   15.28    1.70 
   3  11  13   22.46    1.97 
  -3 -11 -14    4.81    1.05 
   3  11  14    9.07    1.35 
  -3 -12   0    8.52    1.20 
  -3 -12   0    8.72    1.16 
   3  12   0   12.39    1.52 
  -3 -12  -1   21.45    1.76 
  -3 -12  -1   19.42    1.70 
   3  12   1   32.54    2.32 
  -3 -12  -2    1.94    0.69 
   3  12   2    1.20    0.76 
  -3 -12  -3   25.28    1.97 
   3  12   3   41.17    2.55 
  -3 -12  -4    0.19    0.48 
   3  12   4   -0.88    0.48 
  -3 -12  -5   23.77    1.96 
   3  12   5   43.92    2.62 
  -3 -12  -6    5.14    1.01 
   3  12   6    8.99    1.29 
  -3 -12  -7   17.48    1.74 
   3  12   7   33.21    2.30 
  -3 -12  -8   21.21    1.93 
   3  12   8   33.43    2.33 
  -3 -12  -9    3.15    0.87 
   3  12   9    3.31    0.93 
  -3 -12 -10   22.17    2.03 
   3  12  10   42.43    2.65 
  -4   8   9    6.86    1.26 
  -4   8   9    7.82    1.31 
   4  -8  -9    5.51    1.11 
  -4   8   8   51.98    3.06 
  -4   8   8   54.57    3.12 
   4  -8  -8   36.06    2.54 
  -4   8   7    1.28    0.77 
  -4   8   7   -0.05    0.58 
   4  -8  -7    0.85    0.63 
  -4   8   6   51.54    3.01 
  -4   8   6   50.86    2.99 
   4  -8  -6   36.46    2.49 
  -4   8   5    4.74    1.10 
  -4   8   5    4.85    1.08 
   4  -8  -5    4.16    0.94 
  -4   8   4   36.73    2.56 
  -4   8   4   37.62    2.57 
   4  -8  -4   28.49    2.15 
  -4   8   3   23.99    2.10 
  -4   8   3   26.87    2.20 
   4  -8  -3   18.41    1.74 
  -4   8   2   25.24    2.16 
  -4   8   2   27.13    2.22 
   4  -8  -2   26.97    1.92 
   4  -8  -2   21.92    1.85 
  -4   8   1   31.25    2.38 
  -4   8   1   33.14    2.45 
   4  -8  -1   31.20    2.12 
   4  -8  -1   31.37    2.17 
  -4   8   0   10.65    1.50 
  -4   8   0   11.75    1.57 
   4  -8   0   10.34    1.31 
   4  -8   0   10.49    1.30 
  -4   8  -1   46.41    2.91 
  -4   8  -1   47.47    2.95 
   4  -8   1   43.21    2.60 
   4  -8   1   43.30    2.46 
  -4   7  12   37.49    2.61 
  -4   7  12   34.63    2.51 
   4  -7 -12   24.60    2.13 
  -4   7  11    6.85    1.21 
  -4   7  11    5.20    1.09 
   4  -7 -11    4.16    0.98 
  -4   7  10   22.36    1.99 
  -4   7  10   24.35    2.06 
   4  -7 -10   17.61    1.77 
  -4   7   9   18.31    1.79 
  -4   7   9   18.40    1.78 
   4  -7  -9   13.09    1.52 
  -4   7   8   13.96    1.57 
  -4   7   8   14.55    1.60 
   4  -7  -8    9.71    1.31 
  -4   7   7   34.71    2.37 
  -4   7   7   33.05    2.30 
   4  -7  -7   22.66    1.90 
  -4   7   6    7.12    1.16 
  -4   7   6    6.20    1.10 
   4  -7  -6    5.24    0.99 
  -4   7   5   48.90    2.75 
  -4   7   5   50.89    2.80 
   4  -7  -5   37.28    2.36 
  -4   7   4    0.14    0.57 
  -4   7   4    0.22    0.55 
   4  -7  -4    0.03    0.39 
   4  -7  -4    0.09    0.42 
  -4   7   3   42.27    2.57 
  -4   7   3   37.78    2.42 
   4  -7  -3   16.93    1.40 
   4  -7  -3   32.20    2.15 
  -4   7   2   12.16    1.46 
  -4   7   2   11.76    1.43 
   4  -7  -2   11.99    1.25 
   4  -7  -2   10.65    1.27 
  -4   7   1   27.57    2.13 
  -4   7   1   25.63    2.04 
   4  -7  -1   27.86    1.90 
   4  -7  -1   23.55    1.80 
  -4   7   0   45.37    2.69 
  -4   7   0   47.53    2.75 
   4  -7   0   41.19    2.35 
   4  -7   0   35.93    2.18 
  -4   7  -1   15.77    1.66 
  -4   7  -1   17.40    1.73 
   4  -7   1   14.16    1.45 
   4  -7   1   15.25    1.43 
  -4   7  -2   48.19    2.82 
  -4   7  -2   51.40    2.90 
   4  -7   2   48.55    2.67 
   4  -7   2   48.48    2.44 
  -4   7  -3    0.35    0.63 
  -4   7  -3    0.85    0.68 
   4  -7   3    0.39    0.52 
  -4   7  -4   40.64    2.68 
  -4   7  -4   40.28    2.65 
   4  -7   4   37.25    2.47 
  -4   7  -5    0.10    0.61 
  -4   7  -5    0.61    0.66 
   4  -7   5    0.44    0.55 
  -4   6  14    5.19    1.09 
  -4   6  14    6.12    1.16 
   4  -6 -14    3.60    0.92 
  -4   6  13   34.41    2.45 
  -4   6  13   36.52    2.51 
   4  -6 -13   26.92    2.16 
  -4   6  12    0.20    0.56 
  -4   6  12    0.89    0.62 
   4  -6 -12    0.49    0.53 
  -4   6  11   38.33    2.48 
  -4   6  11   36.98    2.43 
   4  -6 -11   26.71    2.08 
  -4   6  10    1.63    0.70 
  -4   6  10    2.62    0.79 
   4  -6 -10    1.16    0.58 
  -4   6   9   33.47    2.25 
  -4   6   9   37.52    2.37 
   4  -6  -9   23.91    1.91 
  -4   6   8   16.75    1.61 
  -4   6   8   17.45    1.62 
   4  -6  -8   11.35    1.34 
  -4   6   7   38.95    2.37 
  -4   6   7   35.28    2.24 
   4  -6  -7   25.09    1.90 
  -4   6   6   36.45    2.27 
  -4   6   6   35.05    2.21 
   4  -6  -6   37.63    1.84 
   4  -6  -6   25.16    1.88 
  -4   6   5   15.10    1.49 
  -4   6   5   18.33    1.62 
   4  -6  -5   18.90    1.36 
   4  -6  -5   13.35    1.38 
  -4   6   4   55.90    2.76 
  -4   6   4   61.00    2.87 
   4  -6  -4   54.09    2.31 
   4  -6  -4   40.42    2.31 
  -4   6   3   -0.38    0.46 
  -4   6   3    0.06    0.50 
   4  -6  -3    0.14    0.26 
   4  -6  -3    0.08    0.43 
  -4   6   2   71.26    3.11 
  -4   6   2   72.28    3.12 
   4  -6  -2   74.61    2.85 
   4  -6  -2   58.40    2.69 
  -4   6   1    1.21    0.63 
  -4   6   1    1.16    0.63 
   4  -6  -1    1.39    0.55 
   4  -6  -1    1.55    0.58 
  -4   6   0   50.12    2.65 
  -4   6   0   50.84    2.66 
   4  -6   0   47.30    2.38 
   4  -6   0   41.58    2.22 
  -4   6  -1   23.05    1.85 
  -4   6  -1   23.02    1.83 
   4  -6   1   20.44    1.63 
   4  -6   1   20.74    1.56 
  -4   6  -2   27.22    2.01 
  -4   6  -2   29.33    2.08 
   4  -6   2   24.81    1.83 
   4  -6   2   24.48    1.67 
  -4   6  -3   60.66    3.01 
  -4   6  -3   60.89    3.00 
   4  -6   3   56.40    2.80 
   4  -6   3   63.07    2.61 
  -4   6  -4    7.50    1.19 
  -4   6  -4    9.18    1.28 
   4  -6   4    6.14    1.02 
   4  -6   4    7.21    0.94 
  -4   6  -5   53.19    2.91 
  -4   6  -5   53.03    2.89 
  -4   6  -5   43.64    2.27 
   4  -6   5   48.00    2.71 
  -4   6  -6    0.26    0.59 
  -4   6  -6    0.07    0.54 
  -4   6  -6    0.22    0.45 
   4  -6   6   -0.05    0.47 
  -4   6  -7   47.93    2.88 
  -4   6  -7   47.72    2.86 
  -4   6  -7   38.58    2.31 
   4  -6   7   41.02    2.64 
  -4   6  -8    3.06    0.92 
  -4   6  -8    2.76    0.87 
  -4   6  -8    2.54    0.76 
   4  -6   8    2.41    0.83 
  -4   5  15   18.88    1.86 
  -4   5  15   19.00    1.86 
   4  -5 -15   16.91    1.72 
  -4   5  14   12.99    1.53 
  -4   5  14   13.31    1.54 
   4  -5 -14   10.71    1.39 
  -4   5  13   13.08    1.50 
  -4   5  13   12.86    1.48 
   4  -5 -13   10.53    1.34 
  -4   5  12   43.17    2.56 
  -4   5  12   37.81    2.39 
   4  -5 -12   29.51    2.12 
  -4   5  11    2.21    0.73 
  -4   5  11    2.09    0.71 
   4  -5 -11    1.17    0.60 
  -4   5  10   73.37    3.19 
  -4   5  10   77.41    3.26 
   4  -5 -10   55.75    2.80 
  -4   5   9    1.48    0.64 
  -4   5   9    2.07    0.68 
   4  -5  -9    1.10    0.55 
  -4   5   8   56.33    2.70 
  -4   5   8   54.25    2.64 
   4  -5  -8   61.41    2.16 
   4  -5  -8   37.46    2.23 
  -4   5   7   15.67    1.45 
  -4   5   7   18.55    1.56 
   4  -5  -7   19.48    1.26 
   4  -5  -7   13.27    1.34 
  -4   5   6   74.11    3.03 
  -4   5   6   77.13    3.06 
   4  -5  -6   83.52    2.63 
   4  -5  -6   56.44    2.65 
  -4   5   5   38.02    2.17 
  -4   5   5   40.53    2.21 
   4  -5  -5   37.84    1.81 
   4  -5  -5   27.27    1.84 
  -4   5   4   43.73    2.30 
  -4   5   4   43.23    2.27 
   4  -5  -4   43.03    1.97 
   4  -5  -4   33.60    2.00 
  -4   5   3   72.40    2.94 
  -4   5   3   78.65    3.04 
   4  -5  -3   77.52    2.70 
   4  -5  -3   58.28    2.59 
  -4   5   2    8.21    1.07 
  -4   5   2    8.93    1.11 
   4  -5  -2    8.81    0.97 
   4  -5  -2    7.02    0.94 
  -4   5   1   94.66    3.37 
  -4   5   1   89.65    3.25 
  -4   5   1   74.35    2.14 
   4  -5  -1   87.61    3.00 
   4  -5  -1   75.25    2.87 
  -4   5   0    0.91    0.60 
  -4   5   0    0.99    0.59 
  -4   5   0    0.38    0.33 
   4  -5   0    0.67    0.44 
   4  -5   0    0.22    0.41 
  -4   5  -1  159.77    4.47 
  -4   5  -1  167.81    4.54 
  -4   5  -1  130.77    3.18 
   4  -5   1  147.02    4.10 
   4  -5   1  132.92    3.72 
  -4   5  -2   10.75    1.25 
  -4   5  -2   12.35    1.32 
  -4   5  -2   10.61    0.99 
   4  -5   2   10.48    1.16 
   4  -5   2   10.10    1.05 
  -4   5  -3   60.07    2.81 
  -4   5  -3   65.35    2.90 
  -4   5  -3   54.05    2.23 
   4  -5   3   56.82    2.66 
   4  -5   3   58.60    2.40 
  -4   5  -4   35.30    2.21 
  -4   5  -4   36.33    2.22 
  -4   5  -4   31.08    1.78 
   4  -5   4   32.47    2.07 
   4  -5   4   37.71    1.90 
  -4   5  -5   32.80    2.17 
  -4   5  -5   28.41    2.01 
  -4   5  -5   28.98    1.80 
   4  -5   5   27.17    1.95 
   4  -5   5   33.84    1.77 
  -4   5  -6   44.94    2.57 
  -4   5  -6   51.80    2.73 
  -4   5  -6   43.07    2.26 
   4  -5   6   43.75    2.52 
  -4   5  -7    2.09    0.76 
  -4   5  -7    1.99    0.72 
  -4   5  -7    2.39    0.68 
   4  -5   7    2.14    0.71 
  -4   5  -8   54.14    2.95 
  -4   5  -8   55.34    2.96 
  -4   5  -8   52.49    2.69 
   4  -5   8   49.92    2.83 
  -4   5  -9    0.43    0.58 
  -4   5  -9    0.93    0.65 
  -4   5  -9    0.92    0.61 
   4  -5   9    0.31    0.53 
  -4   5 -10   40.97    2.70 
  -4   5 -10   39.15    2.63 
  -4   5 -10   36.40    2.43 
  -4   4  16   32.09    2.37 
   4  -4 -16   30.26    2.20 
  -4   4  15    0.69    0.59 
   4  -4 -15    0.58    0.56 
  -4   4  14   45.61    2.66 
  -4   4  14   47.86    2.72 
   4  -4 -14   41.66    2.48 
  -4   4  13   15.58    1.56 
  -4   4  13   17.54    1.64 
   4  -4 -13   13.03    1.42 
  -4   4  12   49.49    2.63 
  -4   4  12   52.94    2.71 
   4  -4 -12   42.56    2.42 
  -4   4  11   33.01    2.11 
  -4   4  11   31.79    2.05 
   4  -4 -11   24.66    1.83 
  -4   4  10   13.99    1.38 
  -4   4  10   11.52    1.25 
   4  -4 -10    7.83    1.06 
  -4   4   9   45.15    2.34 
  -4   4   9   49.10    2.42 
   4  -4  -9   50.81    1.90 
   4  -4  -9   34.47    2.08 
  -4   4   8    0.59    0.50 
  -4   4   8    0.83    0.51 
   4  -4  -8    1.59    0.45 
   4  -4  -8    0.62    0.47 
  -4   4   7   97.76    3.31 
  -4   4   7   99.50    3.32 
   4  -4  -7  106.11    2.82 
   4  -4  -7   72.96    2.92 
  -4   4   6    2.07    0.61 
  -4   4   6    1.41    0.56 
   4  -4  -6    1.49    0.45 
   4  -4  -6    1.76    0.57 
  -4   4   5  151.11    4.03 
  -4   4   5  142.33    3.88 
  -4   4   5  134.54    2.36 
   4  -4  -5  149.67    3.48 
   4  -4  -5  102.82    3.37 
  -4   4   4   39.43    2.05 
  -4   4   4   41.31    2.07 
  -4   4   4   35.77    1.25 
   4  -4  -4   30.53    1.82 
  -4   4   3   45.30    2.18 
  -4   4   3   44.93    2.15 
  -4   4   3   40.10    1.40 
   4  -4  -3   44.48    1.95 
   4  -4  -3   34.67    1.91 
  -4   4   2   53.83    2.37 
  -4   4   2   55.53    2.38 
  -4   4   2   45.13    1.56 
   4  -4  -2   52.00    2.15 
   4  -4  -2   37.94    1.97 
  -4   4   1   31.05    1.82 
  -4   4   1   33.59    1.87 
  -4   4   1   29.30    1.33 
   4  -4  -1   30.60    1.70 
   4  -4  -1   26.39    1.63 
  -4   4   0   78.72    2.89 
  -4   4   0   62.17    1.50 
  -4   4   0   72.96    2.75 
  -4   4   0   62.79    2.03 
   4  -4   0   72.50    2.65 
   4  -4   0   61.10    2.43 
  -4   4  -1    0.58    0.50 
  -4   4  -1    0.86    0.30 
  -4   4  -1    0.59    0.48 
  -4   4  -1    0.33    0.33 
   4  -4   1    1.20    0.48 
   4  -4   1    0.85    0.42 
  -4   4  -2   55.49    2.48 
  -4   4  -2   44.95    1.54 
  -4   4  -2   51.83    2.37 
  -4   4  -2   44.27    1.87 
   4  -4   2   47.40    2.25 
   4  -4   2   50.55    2.15 
  -4   4  -3    7.07    0.98 
  -4   4  -3    7.26    0.71 
  -4   4  -3    7.87    1.02 
  -4   4  -3    7.17    0.83 
   4  -4   3    6.49    0.91 
   4  -4   3    8.32    0.91 
  -4   4  -4   97.84    3.40 
  -4   4  -4   87.28    2.48 
  -4   4  -4  102.30    3.45 
  -4   4  -4   86.67    2.85 
   4  -4   4   81.13    3.08 
   4  -4   4   98.96    2.93 
  -4   4  -5   29.08    1.92 
  -4   4  -5   23.93    1.39 
  -4   4  -5   27.62    1.85 
  -4   4  -5   25.78    1.64 
   4  -4   5   23.81    1.73 
   4  -4   5   26.72    1.51 
  -4   4  -6   28.40    1.94 
  -4   4  -6   26.47    1.54 
  -4   4  -6   29.00    1.94 
  -4   4  -6   24.75    1.66 
  -4   4  -6   29.32    1.54 
   4  -4   6   25.13    1.83 
  -4   4  -7   58.80    2.82 
  -4   4  -7   55.17    2.31 
  -4   4  -7   65.71    2.96 
  -4   4  -7   52.84    2.51 
   4  -4   7   52.34    2.68 
  -4   4  -8    5.48    0.99 
  -4   4  -8    4.76    0.79 
  -4   4  -8    4.41    0.89 
  -4   4  -8    4.16    0.82 
   4  -4   8    4.04    0.86 
  -4   4  -9   49.93    2.74 
  -4   4  -9   54.26    2.52 
  -4   4  -9   49.41    2.71 
  -4   4  -9   50.36    2.63 
   4  -4   9   47.67    2.70 
  -4   4 -10    0.20    0.52 
  -4   4 -10    0.36    0.49 
  -4   4 -10    0.22    0.50 
   4  -4  10    0.04    0.47 
  -4   4 -11   37.04    2.51 
  -4   4 -11   38.71    2.33 
  -4   4 -11   41.08    2.56 
  -4   4 -12    5.03    1.09 
  -4   4 -12    4.93    0.98 
   4  -4  12    3.66    0.96 
  -4   3  17   25.23    2.13 
   4  -3 -17   26.22    2.00 
  -4   3  16    0.56    0.57 
   4  -3 -16    1.03    0.60 
  -4   3  15   38.60    2.45 
   4  -3 -15   34.75    2.21 
  -4   3  14    0.20    0.49 
  -4   3  14    0.35    0.43 
   4  -3 -14    0.10    0.43 
  -4   3  13   49.40    2.60 
  -4   3  13   50.85    2.16 
   4  -3 -13   45.98    2.44 
  -4   3  12   10.61    1.23 
  -4   3  12   10.53    0.96 
   4  -3 -12    9.80    1.16 
  -4   3  11   41.76    2.26 
  -4   3  11   43.84    2.31 
  -4   3  11   44.72    1.79 
   4  -3 -11   46.44    1.81 
   4  -3 -11   38.36    2.16 
  -4   3  10   42.52    2.22 
  -4   3  10   41.57    2.18 
  -4   3  10   40.94    1.59 
   4  -3 -10   44.62    1.77 
   4  -3 -10   32.92    1.98 
  -4   3   9   69.62    2.76 
  -4   3   9   71.29    2.78 
  -4   3   9   69.57    1.91 
   4  -3  -9   72.92    2.27 
   4  -3  -9   55.90    2.52 
  -4   3   8   59.45    2.49 
  -4   3   8   59.87    2.48 
  -4   3   8   63.42    1.70 
   4  -3  -8   63.59    2.13 
   4  -3  -8   46.70    2.27 
  -4   3   7    6.43    0.87 
  -4   3   7    5.72    0.82 
  -4   3   7    6.10    0.57 
   4  -3  -7    6.51    0.73 
   4  -3  -7    4.95    0.79 
  -4   3   6  140.57    3.70 
  -4   3   6  158.07    2.14 
  -4   3   6  142.14    3.68 
  -4   3   6  150.12    2.65 
   4  -3  -6  143.85    3.27 
   4  -3  -6  103.06    3.26 
  -4   3   5    3.28    0.65 
  -4   3   5    3.86    0.34 
  -4   3   5    3.58    0.67 
  -4   3   5    3.30    0.45 
   4  -3  -5    0.55    0.27 
   4  -3  -5    3.56    0.67 
  -4   3   4   90.27    2.87 
  -4   3   4   86.69    1.45 
  -4   3   4   96.10    2.93 
  -4   3   4   86.55    2.04 
   4  -3  -4  102.32    2.23 
   4  -3  -4   90.55    2.64 
   4  -3  -4   64.30    2.50 
  -4   3   3   28.55    1.62 
  -4   3   3   26.29    0.81 
  -4   3   3   27.76    1.58 
  -4   3   3   25.93    1.15 
   4  -3  -3   33.26    1.30 
   4  -3  -3   25.12    1.41 
   4  -3  -3   22.24    1.46 
  -4   3   2   51.26    2.14 
  -4   3   2   42.91    1.11 
  -4   3   2   50.89    2.11 
  -4   3   2   43.62    1.54 
   4  -3  -2   58.33    1.78 
   4  -3  -2   44.82    1.91 
   4  -3  -2   38.78    1.90 
  -4   3   1   49.11    2.10 
  -4   3   1   45.81    1.25 
  -4   3   1   52.80    2.15 
  -4   3   1   47.12    1.66 
   4  -3  -1   46.74    1.99 
   4  -3  -1   42.27    1.95 
  -4   3   0   29.34    1.65 
  -4   3   0   26.05    1.02 
  -4   3   0   29.71    1.64 
  -4   3   0   26.86    1.31 
   4  -3   0   28.36    1.59 
   4  -3   0   24.19    1.47 
  -4   3  -1  100.36    3.06 
  -4   3  -1   84.29    1.99 
  -4   3  -1  104.26    3.07 
  -4   3  -1   90.31    2.50 
   4  -3   1   89.85    2.88 
   4  -3   1   83.33    2.67 
  -4   3  -2   20.11    1.42 
  -4   3  -2   18.16    1.00 
  -4   3  -2   21.63    1.44 
  -4   3  -2   18.57    1.20 
   4  -3   2   16.62    1.28 
   4  -3   2   18.23    1.25 
  -4   3  -3   88.21    2.95 
  -4   3  -3   71.63    2.09 
  -4   3  -3   85.76    2.87 
  -4   3  -3   77.22    2.50 
   4  -3   3   75.19    2.75 
   4  -3   3   77.94    2.52 
  -4   3  -4    1.32    0.53 
  -4   3  -4    1.25    0.39 
  -4   3  -4    1.25    0.51 
  -4   3  -4    0.55    0.38 
   4  -3   4    0.88    0.45 
   4  -3   4    1.23    0.44 
  -4   3  -5   70.31    2.75 
  -4   3  -5   61.95    2.17 
  -4   3  -5   73.13    2.77 
  -4   3  -5   68.08    2.54 
   4  -3   5   60.32    2.59 
   4  -3   5   75.24    2.41 
  -4   3  -6   21.42    1.59 
  -4   3  -6   19.26    1.29 
  -4   3  -6   20.59    1.54 
  -4   3  -6   20.32    1.46 
  -4   3  -6   22.93    1.32 
   4  -3   6   21.64    1.61 
  -4   3  -7   18.75    1.54 
  -4   3  -7   14.18    1.18 
  -4   3  -7   17.02    1.44 
  -4   3  -7   16.39    1.37 
  -4   3  -7   18.47    1.16 
   4  -3   7   14.82    1.38 
  -4   3  -8   32.13    2.04 
  -4   3  -8   30.83    1.78 
  -4   3  -8   33.60    2.05 
  -4   3  -8   30.98    1.93 
   4  -3   8   28.23    1.41 
   4  -3   8   28.60    1.94 
  -4   3  -9   12.47    1.34 
  -4   3  -9   10.78    1.14 
  -4   3  -9   11.90    1.31 
  -4   3  -9   11.46    1.26 
   4  -3   9   10.96    1.26 
  -4   3 -10   56.29    2.83 
  -4   3 -10   58.30    2.66 
  -4   3 -10   54.83    2.75 
   4  -3  10   53.81    2.80 
  -4   3 -11    1.78    0.71 
  -4   3 -11    1.91    0.66 
  -4   3 -11    2.30    0.74 
   4  -3  11    2.04    0.72 
  -4   3 -12   43.50    2.66 
  -4   3 -12   46.37    2.58 
   4  -3  12   42.19    2.62 
  -4   3 -13    1.89    0.77 
  -4   3 -13    1.59    0.69 
   4  -3  13    2.07    0.76 
  -4   2  17    4.27    0.97 
  -4   2  17    5.39    0.99 
   4  -2 -17    5.03    1.03 
   4  -2 -17    3.70    0.79 
  -4   2  16   12.59    1.47 
  -4   2  16   15.42    1.47 
   4  -2 -16   12.87    1.48 
   4  -2 -16   14.93    1.44 
  -4   2  15    4.01    0.87 
  -4   2  15    5.51    0.90 
   4  -2 -15    3.91    0.87 
   4  -2 -15    5.10    0.89 
  -4   2  14   31.99    2.11 
  -4   2  14   39.78    2.08 
   4  -2 -14   34.85    2.20 
   4  -2 -14   33.72    2.04 
  -4   2  13    0.33    0.45 
  -4   2  13    1.02    0.46 
   4  -2 -13    0.99    0.54 
   4  -2 -13    0.40    0.41 
  -4   2  12   52.72    2.52 
  -4   2  12   66.42    2.25 
  -4   2  12   56.87    2.24 
  -4   2  12   65.85    2.26 
   4  -2 -12   52.35    2.45 
  -4   2  11    2.21    0.62 
  -4   2  11    2.22    0.48 
  -4   2  11    2.76    0.51 
  -4   2  11    2.32    0.51 
   4  -2 -11    2.34    0.51 
   4  -2 -11    2.14    0.61 
  -4   2  10   58.61    2.49 
  -4   2  10   66.36    2.02 
  -4   2  10   68.22    2.07 
  -4   2  10   55.64    1.96 
   4  -2 -10   62.79    2.15 
   4  -2 -10   50.18    2.32 
  -4   2   9   40.50    2.01 
  -4   2   9   46.81    1.61 
  -4   2   9   44.04    2.08 
  -4   2   9   44.68    1.62 
  -4   2   9   40.06    1.55 
   4  -2  -9   44.73    1.80 
   4  -2  -9   34.38    1.89 
  -4   2   8   14.19    1.19 
  -4   2   8   14.44    0.86 
  -4   2   8   12.31    1.11 
  -4   2   8   13.59    0.89 
  -4   2   8   11.99    0.80 
   4  -2  -8   14.89    1.05 
   4  -2  -8    9.52    1.02 
  -4   2   7  109.33    3.13 
  -4   2   7  116.92    2.31 
  -4   2   7  105.12    3.04 
  -4   2   7  110.37    2.44 
  -4   2   7   92.48    2.01 
   4  -2  -7  105.35    2.74 
   4  -2  -7   75.82    2.72 
  -4   2   6   13.47    1.10 
  -4   2   6   13.78    0.76 
  -4   2   6   14.09    1.11 
  -4   2   6   12.16    0.82 
  -4   2   6   10.70    0.62 
   4  -2  -6    1.53    0.36 
   4  -2  -6    9.80    1.00 
  -4   2   5  140.23    3.41 
  -4   2   5  144.16    2.38 
  -4   2   5  148.60    2.43 
  -4   2   5  139.91    3.36 
  -4   2   5  146.40    2.78 
  -4   2   5  130.18    1.89 
   4  -2  -5  136.45    3.15 
   4  -2  -5  100.15    3.03 
  -4   2   4    0.43    0.37 
  -4   2   4    0.42    0.25 
  -4   2   4    0.43    0.27 
  -4   2   4    0.50    0.36 
  -4   2   4    0.42    0.31 
   4  -2  -4    0.38    0.32 
   4  -2  -4    1.38    0.47 
  -4   2   3  159.80    3.55 
  -4   2   3  158.58    2.46 
  -4   2   3  165.95    3.56 
  -4   2   3  154.32    2.90 
   4  -2  -3  183.04    3.19 
   4  -2  -3  151.58    3.37 
   4  -2  -3  121.47    3.25 
  -4   2   2   14.09    1.07 
  -4   2   2   13.42    0.72 
  -4   2   2   15.13    1.09 
  -4   2   2   14.25    0.91 
   4  -2  -2   16.12    0.79 
   4  -2  -2   16.19    0.96 
   4  -2  -2   14.10    1.05 
   4  -2  -2   11.25    1.00 
  -4   2   1  131.60    3.19 
  -4   2   1  126.54    2.29 
  -4   2   1  138.51    3.22 
  -4   2   1  123.63    2.70 
   4  -2  -1  157.73    2.58 
   4  -2  -1  120.76    3.08 
   4  -2  -1  103.50    2.92 
  -4   2   0   96.35    2.73 
  -4   2   0   87.99    1.97 
  -4   2   0   96.91    2.69 
  -4   2   0   85.42    2.30 
   4  -2   0   88.54    2.67 
   4  -2   0   75.42    2.46 
  -4   2  -1   85.54    2.60 
  -4   2  -1   74.40    1.91 
  -4   2  -1   86.85    2.57 
  -4   2  -1   75.46    2.23 
   4  -2   1   75.87    2.52 
   4  -2   1   68.57    2.32 
  -4   2  -2  128.11    3.25 
  -4   2  -2  112.31    2.49 
  -4   2  -2  131.85    3.24 
  -4   2  -2  113.97    2.86 
   4  -2   2  114.96    3.17 
   4  -2   2  111.33    2.94 
  -4   2  -3    9.17    0.94 
  -4   2  -3    7.75    0.71 
  -4   2  -3    8.63    0.90 
  -4   2  -3    8.96    0.87 
   4  -2   3    9.85    0.50 
   4  -2   3    6.93    0.84 
   4  -2   3    8.05    0.82 
  -4   2  -4  147.24    3.64 
  -4   2  -4  124.64    2.91 
  -4   2  -4  146.88    3.57 
  -4   2  -4  126.89    3.25 
   4  -2   4  155.81    2.40 
   4  -2   4  128.16    3.51 
   4  -2   4  135.92    3.20 
  -4   2  -5    4.35    0.72 
  -4   2  -5    4.21    0.62 
  -4   2  -5    4.05    0.70 
  -4   2  -5    4.51    0.71 
  -4   2  -5    4.60    0.63 
   4  -2   5    5.52    0.52 
   4  -2   5    4.45    0.74 
  -4   2  -6   84.42    2.89 
  -4   2  -6   72.36    2.42 
  -4   2  -6   80.69    2.78 
  -4   2  -6   77.73    2.73 
  -4   2  -6   81.09    2.39 
   4  -2   6   85.96    2.12 
   4  -2   6   74.00    2.79 
  -4   2  -7    1.30    0.52 
  -4   2  -7    1.09    0.44 
  -4   2  -7    1.51    0.54 
  -4   2  -7    0.87    0.45 
  -4   2  -7    1.53    0.42 
   4  -2   7    1.29    0.38 
   4  -2   7    1.54    0.54 
  -4   2  -8   60.69    2.60 
  -4   2  -8   56.76    2.35 
  -4   2  -8   59.44    2.55 
  -4   2  -8   56.45    2.50 
  -4   2  -8   64.40    2.06 
   4  -2   8   61.28    2.06 
   4  -2   8   50.29    2.42 
  -4   2  -9   11.76    1.24 
  -4   2  -9   13.79    1.25 
  -4   2  -9   13.18    1.28 
  -4   2  -9   12.67    1.27 
  -4   2  -9   13.87    0.95 
   4  -2   9   15.18    1.12 
   4  -2   9   11.60    1.23 
  -4   2 -10   43.16    2.36 
  -4   2 -10   39.77    2.16 
  -4   2 -10   41.76    2.33 
   4  -2  10   44.15    1.98 
   4  -2  10   41.93    2.34 
  -4   2 -11   52.86    2.69 
  -4   2 -11   50.48    2.53 
   4  -2  11   54.43    2.31 
   4  -2  11   51.43    2.66 
  -4   2 -12    6.53    1.07 
  -4   2 -12    8.25    1.14 
  -4   2 -12    7.38    1.13 
   4  -2  12    8.04    0.99 
   4  -2  12    5.29    0.96 
  -4   2 -13   41.37    2.56 
  -4   2 -13   43.92    2.55 
  -4   2 -13   43.73    2.65 
   4  -2  13   42.48    2.25 
   4  -2  13   41.08    2.52 
  -4   2 -14   -0.14    0.52 
  -4   2 -14    0.00    0.51 
   4  -2  14    0.04    0.30 
   4  -2  14    0.28    0.54 
  -4   2 -15   26.78    2.21 
  -4   2 -15   27.37    2.19 
   4  -2  15   29.38    2.07 
   4  -2  15   29.19    2.26 
  -4   1  17    2.11    0.73 
   4  -1 -17    1.82    0.72 
  -4   1  16   17.63    1.59 
   4  -1 -16   14.07    1.51 
   4  -1 -16   15.88    1.41 
  -4   1  15   15.08    1.42 
   4  -1 -15   11.19    1.30 
   4  -1 -15   11.28    1.19 
  -4   1  14   12.70    1.19 
  -4   1  14   13.43    1.18 
  -4   1  14   13.27    1.28 
   4  -1 -14   12.13    1.30 
   4  -1 -14   10.68    1.14 
  -4   1  13   53.68    2.27 
  -4   1  13   56.71    2.27 
  -4   1  13   54.36    2.39 
  -4   1  13   53.77    2.17 
   4  -1 -13   48.64    2.44 
   4  -1 -13   52.26    2.39 
  -4   1  12    3.94    0.67 
  -4   1  12    4.15    0.66 
  -4   1  12    4.88    0.76 
  -4   1  12    4.23    0.67 
   4  -1 -12    3.05    0.70 
   4  -1 -12    3.42    0.70 
  -4   1  11   86.87    3.02 
  -4   1  11   87.50    2.65 
  -4   1  11   89.53    2.65 
  -4   1  11   90.66    2.79 
  -4   1  11   90.61    2.71 
   4  -1 -11   80.22    2.90 
   4  -1 -11   74.50    2.75 
  -4   1  10    6.29    0.85 
  -4   1  10    7.73    0.79 
  -4   1  10    7.10    0.76 
  -4   1  10    6.89    0.77 
   4  -1 -10    6.23    0.85 
   4  -1 -10    7.03    0.79 
   4  -1 -10    5.19    0.77 
  -4   1   9  103.92    3.08 
  -4   1   9  110.15    2.71 
  -4   1   9  108.32    2.73 
  -4   1   9   97.18    2.58 
   4  -1  -9   99.63    2.74 
   4  -1  -9   84.23    2.83 
  -4   1   8    0.68    0.39 
  -4   1   8    1.22    0.38 
  -4   1   8    1.34    0.40 
  -4   1   8    1.25    0.37 
   4  -1  -8    0.99    0.37 
   4  -1  -8    1.11    0.45 
  -4   1   7   65.22    2.28 
  -4   1   7   74.68    2.03 
  -4   1   7   70.46    2.35 
  -4   1   7   72.59    2.10 
  -4   1   7   60.96    1.78 
   4  -1  -7   23.56    1.29 
   4  -1  -7   54.41    2.20 
  -4   1   6   49.32    1.92 
  -4   1   6   50.09    1.59 
  -4   1   6   49.80    1.91 
  -4   1   6   49.05    1.69 
  -4   1   6   42.26    1.37 
   4  -1  -6   39.04    1.31 
   4  -1  -6   46.00    1.80 
   4  -1  -6   38.15    1.82 
  -4   1   5   74.65    2.30 
  -4   1   5   78.50    1.93 
  -4   1   5   73.88    2.25 
  -4   1   5   72.98    2.03 
   4  -1  -5   60.60    1.50 
   4  -1  -5   70.23    2.21 
   4  -1  -5   56.21    2.17 
  -4   1   4  145.47    3.17 
  -4   1   4  152.22    2.67 
  -4   1   4  150.98    3.18 
  -4   1   4  143.15    2.85 
   4  -1  -4  118.30    1.94 
   4  -1  -4  137.47    3.12 
   4  -1  -4  105.39    2.95 
  -4   1   3   30.50    1.42 
  -4   1   3   32.16    1.19 
  -4   1   3   30.74    1.39 
  -4   1   3   29.62    1.28 
  -4   1   3   36.23    0.92 
   4  -1  -3   25.27    0.77 
   4  -1  -3   29.36    1.44 
   4  -1  -3   23.20    1.37 
  -4   1   2  198.40    3.64 
  -4   1   2  190.59    2.99 
  -4   1   2  194.16    3.52 
  -4   1   2  188.81    3.34 
  -4   1   2  211.56    2.25 
   4  -1  -2  157.53    1.91 
   4  -1  -2  169.41    3.52 
   4  -1  -2  144.61    3.38 
  -4   1   1    9.54    0.82 
  -4   1   1    8.74    0.66 
  -4   1   1    9.95    0.81 
  -4   1   1    8.62    0.74 
   4  -1  -1    9.05    0.84 
   4  -1  -1    8.56    0.84 
  -4   1   0  153.12    3.17 
  -4   1   0  153.29    2.75 
  -4   1   0  150.04    3.07 
  -4   1   0  143.00    2.99 
   4  -1   0  144.91    3.31 
   4  -1   0  125.07    3.07 
  -4   1  -1   41.14    1.65 
  -4   1  -1   39.00    1.41 
  -4   1  -1   42.23    1.63 
  -4   1  -1   36.85    1.54 
  -4   1  -1   36.28    0.82 
   4  -1   1   46.51    0.95 
   4  -1   1   39.28    1.73 
   4  -1   1   34.50    1.59 
  -4   1  -2  105.55    2.69 
  -4   1  -2   97.98    2.34 
  -4   1  -2  104.20    2.61 
  -4   1  -2  100.26    2.62 
  -4   1  -2   94.16    1.55 
   4  -1   2  118.98    1.79 
   4  -1   2   97.28    2.79 
   4  -1   2   89.53    2.54 
  -4   1  -3   66.09    2.17 
  -4   1  -3   63.31    1.95 
  -4   1  -3   71.00    2.20 
  -4   1  -3   62.86    2.14 
  -4   1  -3   60.90    2.07 
   4  -1   3   79.48    1.59 
   4  -1   3   61.31    2.25 
   4  -1   3   63.04    2.11 
  -4   1  -4   47.19    1.89 
  -4   1  -4   43.12    1.69 
  -4   1  -4   49.31    1.89 
  -4   1  -4   43.61    1.85 
  -4   1  -4   41.65    1.70 
   4  -1   4   53.72    1.43 
   4  -1   4   45.04    1.97 
  -4   1  -5  119.76    3.12 
  -4   1  -5  112.38    2.86 
  -4   1  -5  123.06    3.09 
  -4   1  -5  110.77    3.06 
  -4   1  -5    0.12    0.13 
   4  -1   5  129.71    2.47 
   4  -1   5  109.13    3.15 
  -4   1  -6   14.44    1.15 
  -4   1  -6   12.55    1.02 
  -4   1  -6   15.57    1.17 
  -4   1  -6   13.69    1.14 
  -4   1  -6   14.21    1.00 
   4  -1   6   14.99    0.91 
   4  -1   6   14.11    1.19 
  -4   1  -7   97.88    3.01 
  -4   1  -7   95.19    2.87 
  -4   1  -7  102.52    3.02 
  -4   1  -7   95.81    3.05 
  -4   1  -7  104.30    2.64 
   4  -1   7  110.49    2.61 
   4  -1   7   98.14    3.14 
  -4   1  -8    2.04    0.58 
  -4   1  -8    2.50    0.58 
  -4   1  -8    1.87    0.55 
  -4   1  -8    2.34    0.59 
  -4   1  -8    2.41    0.48 
   4  -1   8    2.87    0.52 
   4  -1   8    1.99    0.57 
  -4   1  -9   55.33    2.43 
  -4   1  -9   55.39    2.38 
  -4   1  -9   58.59    2.56 
  -4   1  -9   62.03    1.99 
   4  -1   9   59.99    2.16 
   4  -1   9   52.62    2.42 
  -4   1 -10   16.34    1.40 
  -4   1 -10   16.61    1.39 
  -4   1 -10   15.07    1.37 
  -4   1 -10   19.00    1.10 
   4  -1  10   18.20    1.28 
   4  -1  10   16.72    1.43 
  -4   1 -11   50.60    2.50 
  -4   1 -11   54.95    2.57 
  -4   1 -11   56.45    2.70 
   4  -1  11   53.64    2.27 
   4  -1  11   53.98    2.60 
  -4   1 -12   34.82    2.17 
  -4   1 -12   34.16    2.12 
  -4   1 -12   36.55    2.26 
   4  -1  12   13.30    1.20 
   4  -1  12   35.50    2.17 
  -4   1 -13    8.60    1.18 
  -4   1 -13    8.06    1.15 
  -4   1 -13    8.24    1.18 
   4  -1  13    8.34    1.04 
   4  -1  13    7.54    1.09 
  -4   1 -14   29.14    2.14 
  -4   1 -14   31.89    2.22 
  -4   1 -14   29.46    2.19 
   4  -1  14   33.09    2.07 
   4  -1  14   29.08    2.09 
  -4   1 -15    2.28    0.78 
  -4   1 -15    1.32    0.69 
   4  -1  15    1.39    0.61 
   4  -1  15    1.08    0.62 
  -4   1 -16   41.78    2.72 
  -4   1 -16   46.05    2.86 
   4  -1  16   43.06    2.56 
   4  -1  16   44.55    2.71 
  -4   0  17   24.62    2.00 
   4   0 -17   21.58    1.89 
   4   0 -17   22.21    1.84 
  -4   0  16    0.69    0.58 
   4   0 -16    0.41    0.51 
   4   0 -16    0.46    0.48 
  -4   0  15   21.59    1.73 
   4   0 -15   20.55    1.70 
   4   0 -15   24.12    1.61 
  -4   0  14   12.47    1.28 
  -4   0  14   11.36    1.11 
   4   0 -14   10.41    1.19 
   4   0 -14   13.37    1.21 
  -4   0  13   31.06    1.88 
  -4   0  13   32.23    1.77 
   4   0 -13   27.27    1.80 
   4   0 -13   31.94    1.79 
  -4   0  12   44.51    2.09 
  -4   0  12   38.51    1.99 
  -4   0  12   40.76    1.93 
   4   0 -12   38.25    2.04 
   4   0 -12   34.16    1.82 
  -4   0  11    6.39    0.81 
  -4   0  11    5.98    0.78 
  -4   0  11    6.00    0.81 
  -4   0  11    7.11    0.83 
   4   0 -11    5.33    0.80 
   4   0 -11    6.35    0.83 
  -4   0  10   68.83    2.38 
  -4   0  10   68.66    2.37 
  -4   0  10   63.73    2.32 
  -4   0  10   70.77    2.42 
   4   0 -10   68.07    2.49 
   4   0 -10   23.99    1.41 
   4   0 -10   61.77    2.37 
  -4   0   9    6.38    0.75 
  -4   0   9    6.22    0.73 
   4   0  -9    6.22    0.78 
   4   0  -9    5.50    0.70 
   4   0  -9    6.09    0.75 
   4   0  -9    5.37    0.75 
  -4   0   8  140.35    3.33 
  -4   0   8  152.98    3.30 
  -4   0   8  144.46    3.25 
   4   0  -8  149.66    3.44 
   4   0  -8  132.28    3.02 
   4   0  -8  146.90    3.38 
   4   0  -8  121.49    3.24 
  -4   0   7   25.49    1.36 
  -4   0   7   26.60    1.31 
  -4   0   7   25.80    1.33 
   4   0  -7   22.11    1.17 
   4   0  -7   23.22    1.32 
   4   0  -7   20.04    1.30 
  -4   0   6  138.84    3.06 
  -4   0   6  148.40    3.01 
  -4   0   6  150.69    3.15 
   4   0  -6  123.26    2.59 
   4   0  -6  137.43    3.17 
   4   0  -6  110.28    2.99 
  -4   0   5   46.50    1.68 
  -4   0   5   49.73    1.66 
  -4   0   5   47.71    1.68 
  -4   0   5   47.12    1.70 
   4   0  -5   41.49    1.39 
   4   0  -5   46.92    1.82 
   4   0  -5   35.09    1.66 
  -4   0   4  155.98    3.04 
  -4   0   4  163.18    2.99 
  -4   0   4  159.71    3.03 
  -4   0   4  155.18    3.09 
   4   0  -4  138.85    2.44 
   4   0  -4  142.88    3.17 
   4   0  -4  120.42    3.05 
  -4   0   3  145.57    2.86 
  -4   0   3  151.12    2.82 
  -4   0   3  154.24    2.88 
  -4   0   3  145.32    2.96 
   4   0  -3  138.46    2.29 
   4   0  -3  138.71    3.11 
   4   0  -3  110.60    2.88 
  -4   0   2   45.53    1.54 
  -4   0   2   43.38    1.46 
  -4   0   2   44.16    1.48 
  -4   0   2   40.28    1.54 
   4   0  -2   41.00    1.14 
   4   0  -2   41.58    1.68 
   4   0  -2   31.55    1.52 
  -4   0   1  121.72    2.53 
  -4   0   1  117.73    2.45 
  -4   0   1  121.50    2.45 
  -4   0   1  115.89    2.64 
   4   0  -1  118.90    1.93 
   4   0  -1  106.57    2.72 
   4   0  -1   89.11    2.53 
  -4   0   0    0.72    0.31 
  -4   0   0    0.95    0.34 
  -4   0   0    0.45    0.28 
  -4   0   0    1.05    0.36 
   4   0   0    0.85    0.24 
   4   0   0    1.28    0.39 
   4   0   0    0.76    0.34 
  -4   0  -1  206.33    3.41 
  -4   0  -1  195.36    3.32 
  -4   0  -1  211.74    3.35 
  -4   0  -1  191.02    3.55 
  -4   0  -1  156.06    3.33 
   4   0   1  225.27    2.82 
   4   0   1  187.25    3.72 
   4   0   1  164.94    3.43 
  -4   0  -2    8.90    0.73 
  -4   0  -2    9.41    0.76 
  -4   0  -2   11.47    0.80 
  -4   0  -2    8.03    0.77 
  -4   0  -2    8.17    0.77 
   4   0   2   10.81    0.61 
   4   0   2    9.50    0.86 
  -4   0  -3  195.73    3.48 
  -4   0  -3  178.42    3.36 
  -4   0  -3  193.40    3.35 
  -4   0  -3  175.25    3.57 
  -4   0  -3  161.37    3.35 
   4   0   3  211.93    2.97 
   4   0   3  171.00    3.65 
  -4   0  -4   77.64    2.22 
  -4   0  -4   75.82    2.24 
  -4   0  -4   77.13    2.15 
  -4   0  -4   73.97    2.35 
  -4   0  -4   72.03    2.20 
   4   0   4   86.60    1.94 
   4   0   4   75.71    2.45 
  -4   0  -5   78.62    2.32 
  -4   0  -5   78.90    2.37 
  -4   0  -5   80.34    2.28 
  -4   0  -5   82.20    2.57 
  -4   0  -5   76.43    2.26 
   4   0   5   90.19    2.11 
   4   0   5   78.85    2.55 
  -4   0  -6  140.98    3.26 
  -4   0  -6  140.18    3.32 
  -4   0  -6  139.48    3.16 
  -4   0  -6  138.16    3.46 
  -4   0  -6    0.03    0.11 
   4   0   6  162.26    3.06 
   4   0   6  142.06    3.53 
  -4   0  -7    8.65    0.87 
  -4   0  -7    8.28    0.88 
  -4   0  -7    8.22    0.84 
  -4   0  -7    7.09    0.86 
  -4   0  -7    7.50    0.75 
   4   0   7    9.30    0.80 
   4   0   7    9.66    0.97 
  -4   0  -8   74.21    2.54 
  -4   0  -8   73.43    2.58 
  -4   0  -8   75.89    2.73 
  -4   0  -8   77.77    2.26 
   4   0   8   76.10    2.31 
   4   0   8   74.29    2.66 
  -4   0  -9    0.27    0.39 
  -4   0  -9    0.01    0.34 
  -4   0  -9   -0.03    0.35 
  -4   0  -9    0.23    0.31 
   4   0   9    0.06    0.30 
   4   0   9    0.19    0.37 
  -4   0 -10   65.45    2.59 
  -4   0 -10   62.22    2.58 
  -4   0 -10   65.33    2.72 
  -4   0 -10   70.79    2.14 
   4   0  10   35.59    1.75 
   4   0  10   64.55    2.62 
  -4   0 -11    8.42    1.02 
  -4   0 -11   11.11    1.18 
  -4   0 -11   10.92    0.87 
   4   0  11    9.41    1.00 
   4   0  11   10.01    1.11 
  -4   0 -12   41.01    2.23 
  -4   0 -12   43.43    2.34 
  -4   0 -12   42.36    2.36 
   4   0  12   43.55    2.15 
   4   0  12   44.04    2.29 
  -4   0 -13   14.13    1.40 
  -4   0 -13   14.27    1.43 
  -4   0 -13   15.45    1.51 
   4   0  13   15.94    1.39 
   4   0  13   15.62    1.44 
  -4   0 -14   13.69    1.43 
  -4   0 -14   18.13    1.67 
   4   0  14   16.79    1.49 
   4   0  14   16.02    1.49 
  -4   0 -15   23.70    1.93 
  -4   0 -15   24.00    1.97 
  -4   0 -15   24.04    1.99 
   4   0  15   23.31    1.81 
   4   0  15   23.62    1.85 
  -4   0 -16    2.23    0.78 
  -4   0 -16    2.26    0.80 
   4   0  16    1.97    0.74 
   4   0  16    2.54    0.76 
  -4   0 -17   27.27    2.22 
  -4   0 -17   31.09    2.40 
   4   0  17   26.37    2.10 
   4   0  17   29.08    2.16 
  -4  -1  17    2.80    0.87 
   4   1 -17    2.12    0.74 
   4   1 -17    1.77    0.69 
  -4  -1  16   17.79    1.70 
   4   1 -16   15.93    1.57 
   4   1 -16   13.97    1.48 
  -4  -1  15   -0.14    0.45 
  -4  -1  15    0.37    0.45 
   4   1 -15    0.15    0.43 
   4   1 -15   -0.25    0.34 
  -4  -1  14   32.37    2.07 
  -4  -1  14   31.47    1.88 
   4   1 -14   27.80    1.87 
   4   1 -14   31.90    1.73 
  -4  -1  13    6.69    0.97 
  -4  -1  13    6.14    0.87 
   4   1 -13    8.23    1.02 
   4   1 -13    7.07    1.00 
   4   1 -13    7.50    0.88 
  -4  -1  12   31.16    1.84 
  -4  -1  12   35.21    1.98 
  -4  -1  12   35.11    1.88 
   4   1 -12   30.09    1.78 
   4   1 -12   31.49    1.88 
   4   1 -12   32.18    1.70 
  -4  -1  11   23.22    1.53 
  -4  -1  11   23.41    1.50 
   4   1 -11   22.14    1.47 
   4   1 -11   22.49    1.52 
   4   1 -11   21.90    1.39 
  -4  -1  10   31.35    1.70 
  -4  -1  10   30.08    1.65 
   4   1 -10   30.77    1.64 
   4   1 -10   33.60    1.77 
   4   1 -10   15.70    1.15 
  -4  -1   9  104.53    2.99 
  -4  -1   9  104.20    2.99 
  -4  -1   9   99.89    2.93 
   4   1  -9   98.74    2.80 
   4   1  -9   99.25    2.89 
   4   1  -9   98.11    2.90 
   4   1  -9   93.78    2.78 
  -4  -1   8    3.50    0.60 
  -4  -1   8    2.43    0.53 
   4   1  -8    0.30    0.20 
   4   1  -8    2.93    0.56 
   4   1  -8    3.62    0.61 
   4   1  -8    3.24    0.58 
  -4  -1   7  108.12    2.82 
  -4  -1   7  102.86    2.79 
   4   1  -7  108.00    2.66 
   4   1  -7   44.07    1.73 
   4   1  -7   99.35    2.79 
   4   1  -7   85.63    2.58 
  -4  -1   6    9.02    0.76 
  -4  -1   6    9.67    0.84 
  -4  -1   6    9.86    0.86 
   4   1  -6   10.40    0.81 
   4   1  -6    8.01    0.73 
   4   1  -6    8.97    0.85 
   4   1  -6    8.44    0.83 
  -4  -1   5  134.30    2.71 
  -4  -1   5  137.19    2.98 
  -4  -1   5  136.79    3.07 
   4   1  -5  130.91    2.74 
   4   1  -5  123.38    3.01 
   4   1  -5  104.87    2.79 
  -4  -1   4   52.50    1.59 
  -4  -1   4   52.22    1.77 
  -4  -1   4   54.84    1.60 
  -4  -1   4   51.77    1.83 
   4   1  -4   50.51    1.60 
   4   1  -4   48.67    1.85 
   4   1  -4   39.01    1.68 
  -4  -1   3  219.55    3.26 
  -4  -1   3  207.97    3.55 
  -4  -1   3  220.73    3.19 
  -4  -1   3  198.11    3.61 
   4   1  -3  202.62    3.17 
   4   1  -3  188.54    3.67 
   4   1  -3  155.17    3.35 
  -4  -1   2  178.01    2.81 
  -4  -1   2  169.12    3.13 
  -4  -1   2  177.40    2.72 
  -4  -1   2  161.56    3.21 
  -4  -1   2  130.96    3.04 
   4   1  -2  163.86    2.72 
   4   1  -2  153.16    3.26 
   4   1  -2  124.23    2.96 
  -4  -1   1   34.45    1.17 
  -4  -1   1   33.27    1.36 
  -4  -1   1   35.83    1.14 
  -4  -1   1   30.98    1.38 
  -4  -1   1   25.01    1.31 
   4   1  -1   33.61    1.16 
   4   1  -1   29.69    1.41 
  -4  -1   0  150.51    2.51 
  -4  -1   0  147.02    2.90 
  -4  -1   0  153.20    2.42 
  -4  -1   0  140.19    2.99 
  -4  -1   0  109.65    2.73 
   4   1   0  153.07    2.52 
   4   1   0  134.12    3.03 
  -4  -1  -1   18.65    0.88 
  -4  -1  -1   18.68    1.05 
  -4  -1  -1   19.15    0.84 
  -4  -1  -1   18.04    1.09 
  -4  -1  -1   13.51    0.96 
   4   1   1   20.90    0.91 
   4   1   1   16.83    1.08 
  -4  -1  -2  271.16    3.64 
  -4  -1  -2  265.91    4.13 
  -4  -1  -2  273.39    3.51 
  -4  -1  -2  259.40    4.27 
  -4  -1  -2  220.08    3.92 
   4   1   2  298.08    3.76 
  -4  -1  -3   10.89    0.74 
  -4  -1  -3   11.73    0.88 
  -4  -1  -3   11.79    0.73 
  -4  -1  -3   11.49    0.92 
  -4  -1  -3   10.68    0.86 
   4   1   3   12.90    0.77 
   4   1   3   11.66    0.93 
  -4  -1  -4  162.26    2.95 
  -4  -1  -4  169.68    3.41 
  -4  -1  -4  164.13    2.86 
  -4  -1  -4  166.45    3.52 
  -4  -1  -4  141.38    3.10 
   4   1   4  187.41    3.10 
   4   1   4  166.04    3.53 
  -4  -1  -5   57.46    1.81 
  -4  -1  -5   63.39    2.13 
  -4  -1  -5   60.11    1.78 
  -4  -1  -5   60.15    2.15 
  -4  -1  -5   57.34    1.95 
   4   1   5   73.66    1.98 
   4   1   5   63.39    2.19 
  -4  -1  -6  135.06    2.95 
  -4  -1  -6  148.18    3.40 
  -4  -1  -6  144.09    3.46 
  -4  -1  -6  138.68    3.07 
   4   1   6  163.32    3.16 
   4   1   6  145.68    3.42 
  -4  -1  -7   57.24    2.00 
  -4  -1  -7   63.54    2.29 
  -4  -1  -7   61.88    2.33 
  -4  -1  -7   26.88    1.34 
   4   1   7   21.35    1.17 
   4   1   7   66.43    2.34 
  -4  -1  -8   31.68    1.57 
  -4  -1  -8   32.01    1.70 
  -4  -1  -8   31.32    1.72 
  -4  -1  -8   31.11    1.46 
   4   1   8   34.37    1.58 
   4   1   8   32.31    1.68 
  -4  -1  -9   63.55    2.32 
  -4  -1  -9   68.19    2.56 
  -4  -1  -9   68.65    2.62 
  -4  -1  -9   76.57    2.29 
   4   1   9   79.13    2.51 
   4   1   9   73.45    2.59 
  -4  -1 -10    1.00    0.45 
  -4  -1 -10    1.28    0.49 
  -4  -1 -10    1.07    0.48 
  -4  -1 -10    1.53    0.42 
   4   1  10    1.91    0.52 
   4   1  10    1.52    0.49 
  -4  -1 -11   62.67    2.52 
  -4  -1 -11   73.22    2.87 
  -4  -1 -11   69.10    2.82 
  -4  -1 -11   77.53    2.31 
   4   1  11   76.91    2.72 
   4   1  11   73.65    2.74 
  -4  -1 -12    0.67    0.46 
  -4  -1 -12    0.45    0.45 
  -4  -1 -12    0.73    0.49 
  -4  -1 -12    0.71    0.37 
   4   1  12    0.60    0.47 
   4   1  12    1.06    0.49 
  -4  -1 -13   41.07    2.23 
  -4  -1 -13   48.39    2.52 
  -4  -1 -13   45.02    2.44 
   4   1  13   47.50    2.34 
   4   1  13   47.19    2.32 
  -4  -1 -14    5.65    0.94 
  -4  -1 -14    7.52    1.10 
  -4  -1 -14    7.77    1.12 
   4   1  14    7.00    1.01 
   4   1  14    8.00    1.04 
  -4  -1 -15   12.96    1.40 
  -4  -1 -15   14.26    1.52 
  -4  -1 -15   14.53    1.54 
   4   1  15   15.48    1.49 
   4   1  15   14.92    1.41 
  -4  -1 -16   14.94    1.56 
  -4  -1 -16   15.60    1.65 
  -4  -1 -16   18.30    1.76 
   4   1  16   17.82    1.66 
   4   1  16   18.20    1.60 
  -4  -1 -17    7.50    1.21 
  -4  -1 -17    9.04    1.36 
   4   1  17    7.96    1.21 
   4   1  17    9.97    1.25 
  -4  -2  16    7.56    1.21 
  -4  -2  16    5.80    1.00 
   4   2 -16    6.25    1.04 
   4   2 -16    7.49    1.17 
  -4  -2  15   25.28    1.98 
  -4  -2  15   24.86    1.82 
   4   2 -15   20.65    1.69 
   4   2 -15   21.23    1.79 
  -4  -2  14    0.53    0.50 
  -4  -2  14    0.37    0.45 
   4   2 -14    0.35    0.45 
   4   2 -14    0.44    0.55 
  -4  -2  13   39.13    2.13 
   4   2 -13   39.38    2.11 
   4   2 -13   42.34    2.34 
  -4  -2  12    0.92    0.47 
  -4  -2  12    1.17    0.43 
   4   2 -12    0.64    0.42 
   4   2 -12    0.70    0.51 
  -4  -2  11   38.32    2.06 
  -4  -2  11   34.74    1.90 
  -4  -2  11   38.04    1.75 
   4   2 -11   32.67    1.75 
   4   2 -11   36.64    2.01 
  -4  -2  10   18.55    1.39 
  -4  -2  10   17.11    1.32 
  -4  -2  10   18.65    1.22 
   4   2 -10   18.61    1.39 
  -4  -2   9   43.17    2.02 
  -4  -2   9   44.95    2.04 
  -4  -2   9   42.50    1.81 
   4   2  -9   42.46    1.80 
   4   2  -9   43.79    2.01 
  -4  -2   8   66.50    2.41 
  -4  -2   8   64.65    2.39 
  -4  -2   8   58.72    2.27 
  -4  -2   8   57.38    2.08 
   4   2  -8   62.70    2.06 
   4   2  -8   64.41    2.34 
   4   2  -8   58.46    2.27 
  -4  -2   7   16.47    1.18 
  -4  -2   7   16.33    1.18 
  -4  -2   7   15.19    1.07 
   4   2  -7   15.94    0.99 
   4   2  -7   15.89    1.13 
   4   2  -7   16.16    1.18 
  -4  -2   6   96.31    2.71 
  -4  -2   6   88.93    2.64 
  -4  -2   6   73.95    2.31 
   4   2  -6   89.96    2.20 
   4   2  -6   89.89    2.54 
   4   2  -6   82.50    2.57 
  -4  -2   5    1.15    0.33 
  -4  -2   5    1.44    0.43 
  -4  -2   5    1.86    0.46 
  -4  -2   5    1.01    0.36 
   4   2  -5    1.55    0.34 
   4   2  -5    1.45    0.40 
   4   2  -5    1.13    0.41 
  -4  -2   4  247.52    3.36 
  -4  -2   4  242.70    4.17 
  -4  -2   4  229.93    4.13 
  -4  -2   4  196.29    3.77 
   4   2  -4  237.28    3.90 
   4   2  -4  214.80    4.06 
  -4  -2   3   40.63    1.19 
  -4  -2   3   40.47    1.62 
  -4  -2   3   40.64    1.17 
  -4  -2   3   37.50    1.60 
  -4  -2   3   29.10    1.42 
   4   2  -3   18.73    1.02 
   4   2  -3   35.39    1.59 
  -4  -2   2  177.27    2.47 
  -4  -2   2  165.38    3.26 
  -4  -2   2  185.32    2.46 
  -4  -2   2  165.24    3.36 
  -4  -2   2  130.12    3.00 
   4   2  -2  152.54    3.29 
  -4  -2   1   40.53    1.06 
  -4  -2   1   36.42    1.49 
  -4  -2   1   42.31    1.02 
  -4  -2   1   37.81    1.57 
  -4  -2   1   29.54    1.41 
   4   2  -1   34.64    1.31 
   4   2  -1   32.50    1.48 
  -4  -2   0   62.48    1.31 
  -4  -2   0   55.09    1.82 
  -4  -2   0   62.72    1.21 
  -4  -2   0   58.53    1.95 
  -4  -2   0   45.15    1.73 
   4   2   0   62.02    1.73 
   4   2   0   52.92    1.88 
  -4  -2  -1   97.24    1.69 
  -4  -2  -1   92.52    2.39 
  -4  -2  -1   94.50    1.53 
  -4  -2  -1   93.02    2.47 
  -4  -2  -1   74.00    2.22 
   4   2   1  103.87    2.26 
   4   2   1   89.85    2.45 
  -4  -2  -2   28.22    0.93 
  -4  -2  -2   28.28    1.34 
  -4  -2  -2   27.28    0.84 
  -4  -2  -2   26.83    1.34 
  -4  -2  -2   22.01    1.22 
   4   2   2   31.34    1.24 
   4   2   2   26.77    1.34 
  -4  -2  -3  123.78    2.14 
  -4  -2  -3  134.51    2.99 
  -4  -2  -3  120.81    1.98 
  -4  -2  -3  131.96    3.04 
  -4  -2  -3  108.07    2.70 
   4   2   3   71.07    1.90 
   4   2   3  122.97    2.90 
  -4  -2  -4    1.72    0.33 
  -4  -2  -4    2.25    0.48 
  -4  -2  -4    2.46    0.50 
  -4  -2  -4    2.08    0.44 
   4   2   4    0.00    0.09 
   4   2   4    1.98    0.44 
  -4  -2  -5   83.32    1.98 
  -4  -2  -5   96.96    2.66 
  -4  -2  -5   93.97    2.67 
  -4  -2  -5   83.56    2.38 
   4   2   5  105.02    2.49 
   4   2   5   91.43    2.55 
  -4  -2  -6   20.24    1.05 
  -4  -2  -6   24.30    1.38 
  -4  -2  -6   21.57    1.33 
  -4  -2  -6   20.96    1.21 
   4   2   6   28.35    1.35 
   4   2   6   25.48    1.37 
  -4  -2  -7   86.17    2.28 
  -4  -2  -7  102.09    2.91 
  -4  -2  -7  102.54    2.95 
  -4  -2  -7   96.43    2.60 
   4   2   7  112.79    2.81 
   4   2   7  109.05    2.89 
  -4  -2  -8   66.31    2.12 
  -4  -2  -8   78.28    2.63 
  -4  -2  -8   76.02    2.61 
  -4  -2  -8   72.39    2.27 
   4   2   8   82.26    2.49 
   4   2   8   77.80    2.49 
  -4  -2  -9   33.19    1.59 
  -4  -2  -9   39.73    1.95 
  -4  -2  -9   42.93    2.03 
   4   2   9   40.91    1.84 
   4   2   9   41.29    1.86 
  -4  -2 -10   38.00    1.79 
  -4  -2 -10   48.32    2.23 
  -4  -2 -10   50.52    2.28 
  -4  -2 -10   45.17    1.82 
   4   2  10   50.42    2.13 
   4   2  10   51.01    2.11 
  -4  -2 -11    8.03    0.91 
  -4  -2 -11    9.54    1.07 
  -4  -2 -11    8.05    0.99 
  -4  -2 -11    8.27    0.83 
   4   2  11    8.58    0.97 
   4   2  11    8.17    0.91 
  -4  -2 -12   67.35    2.61 
  -4  -2 -12   75.99    3.00 
  -4  -2 -12   85.44    3.17 
  -4  -2 -12   83.96    2.52 
   4   2  12   87.74    3.05 
   4   2  12   88.61    2.94 
  -4  -2 -13    0.20    0.42 
  -4  -2 -13    0.50    0.48 
  -4  -2 -13    0.40    0.46 
  -4  -2 -13    0.62    0.38 
   4   2  13    0.35    0.43 
   4   2  13    0.16    0.39 
  -4  -2 -14   37.30    2.14 
  -4  -2 -14   44.00    2.46 
  -4  -2 -14   46.25    2.50 
   4   2  14   38.86    2.21 
   4   2  14   44.79    2.21 
  -4  -2 -15    6.36    1.00 
  -4  -2 -15    6.49    1.07 
  -4  -2 -15    5.42    0.97 
   4   2  15    5.23    0.94 
   4   2  15    6.54    0.94 
  -4  -2 -16   18.95    1.69 
  -4  -2 -16   16.91    1.69 
  -4  -2 -16   19.75    1.78 
   4   2  16   20.19    1.75 
   4   2  16   18.05    1.51 
  -4  -2 -17   11.78    1.42 
  -4  -2 -17   14.25    1.63 
   4   2  17    9.63    1.31 
   4   2  17   12.28    1.32 
  -4  -2 -18    6.08    1.13 
   4   2  18    6.89    1.20 
  -4  -3  16   12.45    1.55 
  -4  -3  16   11.51    1.39 
   4   3 -16   10.27    1.29 
  -4  -3  15    2.81    0.82 
  -4  -3  15    3.43    0.83 
   4   3 -15    2.35    0.70 
   4   3 -15    5.54    1.06 
  -4  -3  14   21.93    1.75 
   4   3 -14   20.95    1.64 
   4   3 -14   23.19    1.90 
  -4  -3  13    0.96    0.53 
   4   3 -13    1.00    0.48 
   4   3 -13    0.91    0.60 
  -4  -3  12   33.09    2.07 
  -4  -3  12   28.80    1.87 
   4   3 -12   36.63    2.19 
  -4  -3  11    0.50    0.44 
  -4  -3  11   -0.10    0.35 
  -4  -3  11    0.27    0.31 
   4   3 -11    0.08    0.30 
   4   3 -11   -0.24    0.38 
  -4  -3  10   53.50    2.44 
  -4  -3  10   48.77    2.28 
  -4  -3  10   50.32    1.93 
   4   3 -10   43.93    1.92 
   4   3 -10   52.25    2.40 
  -4  -3   9   10.52    1.08 
  -4  -3   9    9.70    1.03 
  -4  -3   9    9.70    0.87 
   4   3  -9    9.67    0.88 
   4   3  -9   10.27    1.07 
  -4  -3   8   40.34    1.98 
  -4  -3   8   37.70    1.90 
  -4  -3   8   35.27    1.59 
   4   3  -8   35.43    1.53 
   4   3  -8   39.65    1.94 
  -4  -3   7   42.23    1.95 
  -4  -3   7   41.06    1.94 
  -4  -3   7   39.05    1.89 
  -4  -3   7   37.30    1.63 
   4   3  -7   40.71    1.53 
   4   3  -7   42.36    1.92 
  -4  -3   6   18.90    1.29 
  -4  -3   6   16.98    1.22 
  -4  -3   6   16.34    1.21 
  -4  -3   6   14.49    1.02 
   4   3  -6   17.66    0.95 
   4   3  -6   19.42    1.27 
   4   3  -6   17.24    1.24 
  -4  -3   5   89.67    2.68 
  -4  -3   5   85.79    2.64 
  -4  -3   5   72.73    2.25 
   4   3  -5   89.41    1.96 
   4   3  -5   90.50    2.61 
   4   3  -5   80.21    2.57 
  -4  -3   4    9.23    0.87 
  -4  -3   4    7.87    0.81 
  -4  -3   4    6.34    0.69 
   4   3  -4    9.46    0.59 
   4   3  -4    8.44    0.81 
   4   3  -4    7.62    0.81 
  -4  -3   3  165.03    2.28 
  -4  -3   3  157.63    3.41 
  -4  -3   3  146.70    3.32 
  -4  -3   3  117.82    2.86 
   4   3  -3  159.54    3.28 
  -4  -3   2    2.26    0.26 
  -4  -3   2    1.89    0.46 
  -4  -3   2    2.09    0.25 
  -4  -3   2    1.63    0.42 
  -4  -3   2    1.51    0.39 
   4   3  -2    1.44    0.40 
   4   3  -2    1.42    0.42 
  -4  -3   1  159.06    1.79 
  -4  -3   1  227.40    2.39 
  -4  -3   1  200.58    3.75 
  -4  -3   1  192.93    3.73 
  -4  -3   1  151.31    3.24 
   4   3  -1  210.73    3.64 
   4   3  -1  181.16    3.62 
  -4  -3   0   33.90    1.50 
  -4  -3   0   35.41    1.56 
  -4  -3   0   25.08    1.31 
   4   3   0   35.86    1.44 
   4   3   0   30.22    1.44 
  -4  -3  -1   94.31    2.51 
  -4  -3  -1   98.79    2.60 
  -4  -3  -1   75.04    2.26 
   4   3   1  103.28    2.45 
   4   3   1   92.92    2.50 
  -4  -3  -2   95.51    1.37 
  -4  -3  -2  123.41    2.90 
  -4  -3  -2  125.71    2.96 
  -4  -3  -2   94.87    2.55 
   4   3   2  144.43    1.73 
   4   3   2  137.05    2.85 
   4   3   2  119.67    2.84 
  -4  -3  -3   55.36    1.14 
  -4  -3  -3   72.45    2.23 
  -4  -3  -3   73.04    2.26 
  -4  -3  -3   57.61    1.99 
   4   3   3   89.01    1.30 
   4   3   3   84.30    2.24 
   4   3   3   69.49    2.14 
  -4  -3  -4  122.26    1.97 
  -4  -3  -4  163.29    3.45 
  -4  -3  -4  158.97    3.42 
  -4  -3  -4  131.90    3.06 
   4   3   4  178.10    3.37 
   4   3   4  158.42    3.29 
  -4  -3  -5    0.14    0.19 
  -4  -3  -5    0.22    0.33 
  -4  -3  -5    1.07    0.41 
  -4  -3  -5    0.33    0.31 
   4   3   5    0.51    0.34 
   4   3   5    0.15    0.28 
  -4  -3  -6  109.77    2.23 
  -4  -3  -6  142.64    3.38 
  -4  -3  -6  143.90    3.38 
  -4  -3  -6  125.89    3.04 
   4   3   6  156.05    3.32 
   4   3   6  151.84    3.28 
  -4  -3  -7    0.93    0.32 
  -4  -3  -7    1.09    0.45 
  -4  -3  -7    1.47    0.48 
  -4  -3  -7    0.78    0.38 
   4   3   7    1.26    0.43 
   4   3   7    1.00    0.38 
  -4  -3  -8   69.80    2.04 
  -4  -3  -8   90.58    2.84 
  -4  -3  -8   88.35    2.78 
  -4  -3  -8   79.75    2.45 
   4   3   8   92.63    2.72 
   4   3   8   91.66    2.60 
  -4  -3  -9   19.06    1.15 
  -4  -3  -9   25.71    1.58 
  -4  -3  -9   26.70    1.59 
  -4  -3  -9   24.97    1.39 
   4   3   9   27.11    1.54 
   4   3   9   27.89    1.47 
  -4  -3 -10   27.02    1.44 
  -4  -3 -10   35.89    1.92 
  -4  -3 -10   36.38    1.90 
  -4  -3 -10   34.46    1.65 
   4   3  10   38.55    1.89 
   4   3  10   36.41    1.71 
  -4  -3 -11   50.71    2.08 
  -4  -3 -11   66.17    2.68 
  -4  -3 -11   63.71    2.59 
  -4  -3 -11   25.36    1.42 
   4   3  11   66.89    2.59 
   4   3  11   64.76    2.33 
  -4  -3 -12   26.11    1.59 
  -4  -3 -12   28.28    1.84 
  -4  -3 -12   31.00    1.88 
  -4  -3 -12   29.83    1.58 
   4   3  12   33.65    1.92 
   4   3  12   30.65    1.65 
  -4  -3 -13   90.32    3.07 
  -4  -3 -13  104.29    3.61 
  -4  -3 -13  108.28    3.61 
  -4  -3 -13   96.91    2.86 
   4   3  13  103.79    3.49 
   4   3  13  108.31    3.17 
  -4  -3 -14    0.62    0.48 
  -4  -3 -14    0.27    0.48 
  -4  -3 -14    0.64    0.50 
  -4  -3 -14    0.31    0.39 
   4   3  14    0.67    0.50 
   4   3  14    0.47    0.42 
  -4  -3 -15   38.77    2.21 
  -4  -3 -15   42.39    2.48 
  -4  -3 -15   46.50    2.53 
   4   3  15   40.82    2.36 
   4   3  15   46.26    2.18 
  -4  -3 -16    1.68    0.65 
  -4  -3 -16    1.34    0.64 
  -4  -3 -16    1.47    0.65 
   4   3  16    1.75    0.68 
   4   3  16    1.44    0.55 
  -4  -3 -17   28.11    2.08 
  -4  -3 -17   31.26    2.30 
  -4  -3 -17   28.88    2.15 
   4   3  17   28.43    2.15 
  -4  -3 -18    5.60    1.07 
  -4  -3 -18    5.11    1.09 
   4   3  18    6.68    1.18 
  -4  -4  15    5.82    1.13 
  -4  -4  15    5.83    1.06 
   4   4 -15    5.32    0.96 
   4   4 -15    6.19    1.16 
  -4  -4  14    9.95    1.28 
   4   4 -14   10.29    1.19 
   4   4 -14   11.80    1.46 
  -4  -4  13   19.40    1.73 
  -4  -4  13   16.67    1.56 
   4   4 -13    0.10    0.19 
   4   4 -13   20.49    1.79 
  -4  -4  12    9.37    1.21 
  -4  -4  12    7.85    1.08 
   4   4 -12    7.95    0.96 
   4   4 -12   10.64    1.29 
  -4  -4  11   47.07    2.48 
  -4  -4  11   43.46    2.33 
   4   4 -11   41.85    1.99 
   4   4 -11   45.93    2.44 
  -4  -4  10   -0.02    0.38 
  -4  -4  10    0.06    0.38 
  -4  -4  10    0.12    0.29 
   4   4 -10   -0.11    0.28 
   4   4 -10   -0.18    0.41 
  -4  -4   9   45.67    2.28 
  -4  -4   9   39.85    2.11 
  -4  -4   9   41.84    1.72 
   4   4  -9   40.68    1.75 
   4   4  -9   45.99    2.27 
  -4  -4   8    7.45    0.94 
  -4  -4   8    5.50    0.82 
  -4  -4   8    6.36    0.71 
   4   4  -8    6.14    0.67 
   4   4  -8    6.73    0.91 
  -4  -4   7   33.88    1.85 
  -4  -4   7   31.08    1.76 
  -4  -4   7   32.39    1.51 
   4   4  -7   32.14    1.36 
   4   4  -7   36.54    1.89 
  -4  -4   6    8.95    0.96 
  -4  -4   6    9.03    0.95 
  -4  -4   6    6.81    0.84 
  -4  -4   6    8.49    0.80 
   4   4  -6    7.04    0.62 
   4   4  -6    9.24    0.97 
  -4  -4   5   16.06    1.22 
  -4  -4   5   12.40    1.08 
  -4  -4   5   11.27    1.03 
  -4  -4   5   10.71    0.88 
   4   4  -5   12.18    0.72 
   4   4  -5   15.04    1.16 
   4   4  -5   10.84    1.02 
  -4  -4   4   74.31    2.50 
  -4  -4   4   70.64    2.44 
  -4  -4   4   61.64    2.28 
  -4  -4   4   52.78    1.92 
   4   4  -4   68.80    1.51 
   4   4  -4   72.87    2.42 
   4   4  -4   60.76    2.27 
  -4  -4   3   22.54    1.36 
  -4  -4   3   21.48    1.33 
  -4  -4   3   17.98    1.13 
   4   4  -3   23.87    0.75 
   4   4  -3   25.20    1.40 
   4   4  -3   18.91    1.25 
  -4  -4   2  320.69    5.14 
  -4  -4   2  301.62    4.99 
  -4  -4   2  244.08    4.25 
   4   4  -2  328.94    5.07 
   4   4  -2  279.97    4.79 
  -4  -4   1   -0.21    0.28 
  -4  -4   1    0.19    0.32 
  -4  -4   1    0.32    0.30 
   4   4  -1   -0.38    0.30 
   4   4  -1    0.38    0.32 
  -4  -4   0  184.12    3.72 
  -4  -4   0  180.30    3.69 
  -4  -4   0  137.38    3.14 
   4   4   0  191.67    3.67 
   4   4   0  163.85    3.47 
  -4  -4  -1   36.20    1.62 
  -4  -4  -1   34.52    1.58 
  -4  -4  -1   25.18    1.35 
   4   4   1   36.60    1.57 
   4   4   1   31.55    1.48 
  -4  -4  -2  212.46    4.00 
  -4  -4  -2  203.95    3.90 
  -4  -4  -2  152.13    3.35 
   4   4   2  219.94    3.92 
   4   4   2  190.34    3.66 
  -4  -4  -3  141.69    3.25 
  -4  -4  -3  141.64    3.23 
  -4  -4  -3   99.94    2.71 
   4   4   3  144.55    3.16 
   4   4   3  133.09    3.01 
  -4  -4  -4   62.91    1.14 
  -4  -4  -4   66.96    2.24 
  -4  -4  -4   71.22    2.29 
  -4  -4  -4   50.19    1.93 
   4   4   4   70.09    2.21 
   4   4   4   65.38    2.08 
  -4  -4  -5  103.18    1.77 
  -4  -4  -5  120.26    3.07 
  -4  -4  -5  122.02    3.06 
  -4  -4  -5   93.96    2.67 
   4   4   5  125.47    1.83 
   4   4   5  126.46    3.04 
   4   4   5  117.22    2.80 
  -4  -4  -6   29.81    1.05 
  -4  -4  -6   33.34    1.65 
  -4  -4  -6   35.65    1.68 
  -4  -4  -6   25.73    1.42 
   4   4   6   38.19    1.70 
   4   4   6   36.59    1.56 
  -4  -4  -7  187.67    3.02 
  -4  -4  -7  225.41    4.46 
  -4  -4  -7  230.33    4.43 
  -4  -4  -7  178.96    3.82 
   4   4   7  240.48    4.48 
   4   4   7  231.61    4.06 
  -4  -4  -8    1.13    0.35 
  -4  -4  -8    1.78    0.54 
  -4  -4  -8    0.94    0.46 
  -4  -4  -8    0.78    0.40 
   4   4   8    1.34    0.47 
   4   4   8    0.72    0.36 
  -4  -4  -9  163.63    3.24 
  -4  -4  -9  205.40    4.48 
  -4  -4  -9  202.71    4.34 
  -4  -4  -9  171.52    3.83 
   4   4   9  202.59    4.34 
   4   4   9  218.99    4.03 
  -4  -4 -10    3.17    0.54 
  -4  -4 -10    3.70    0.71 
  -4  -4 -10    4.62    0.74 
  -4  -4 -10    3.87    0.66 
   4   4  10    4.84    0.76 
   4   4  10    5.25    0.68 
  -4  -4 -11   51.26    2.02 
  -4  -4 -11   64.41    2.64 
  -4  -4 -11   61.91    2.51 
  -4  -4 -11   53.15    2.16 
   4   4  11   63.14    2.56 
   4   4  11   65.36    2.23 
  -4  -4 -12   33.78    1.74 
  -4  -4 -12   42.27    2.22 
  -4  -4 -12   40.60    2.10 
  -4  -4 -12   39.27    1.89 
   4   4  12   44.70    2.24 
   4   4  12   44.04    1.88 
  -4  -4 -13   38.83    1.97 
  -4  -4 -13   45.72    2.38 
  -4  -4 -13   47.27    2.34 
   4   4  13   44.45    2.32 
   4   4  13   46.98    1.98 
  -4  -4 -14   42.69    2.17 
  -4  -4 -14   51.80    2.62 
  -4  -4 -14   53.01    2.56 
  -4  -4 -14   47.54    2.14 
   4   4  14   53.06    2.62 
   4   4  14   56.59    2.22 
  -4  -4 -15    4.30    0.82 
  -4  -4 -15    5.36    0.96 
  -4  -4 -15    4.92    0.90 
  -4  -4 -15    4.97    0.78 
   4   4  15    4.43    0.90 
   4   4  15    4.70    0.73 
  -4  -4 -16   30.09    2.00 
  -4  -4 -16   36.55    2.37 
  -4  -4 -16   35.56    2.25 
  -4  -4 -16   32.59    1.81 
   4   4  16   32.17    2.20 
  -4  -4 -17    0.43    0.54 
  -4  -4 -17   -0.17    0.48 
  -4  -4 -17    0.21    0.50 
   4   4  17   -0.24    0.48 
  -4  -4 -18   28.74    2.13 
  -4  -4 -18   30.43    2.32 
   4   4  18   28.15    2.23 
  -4  -5  14    4.68    1.02 
  -4  -5  14    4.75    0.99 
   4   5 -14    2.29    0.63 
   4   5 -14    5.20    1.08 
  -4  -5  13   18.19    1.75 
  -4  -5  13   15.84    1.61 
   4   5 -13   15.00    1.38 
   4   5 -13   17.06    1.71 
  -4  -5  12   26.20    2.01 
  -4  -5  12   21.83    1.80 
   4   5 -12   23.31    1.61 
   4   5 -12   26.12    2.01 
  -4  -5  11   19.73    1.71 
  -4  -5  11   18.47    1.62 
   4   5 -11   18.21    1.36 
   4   5 -11   19.85    1.71 
  -4  -5  10   59.48    2.81 
  -4  -5  10   45.93    2.44 
   4   5 -10   50.67    2.12 
   4   5 -10   49.76    2.57 
  -4  -5   9    1.44    0.58 
  -4  -5   9    1.10    0.52 
  -4  -5   9    1.79    0.45 
   4   5  -9    1.46    0.45 
   4   5  -9    2.12    0.67 
  -4  -5   8   63.56    2.73 
  -4  -5   8   55.86    2.54 
  -4  -5   8   59.63    2.05 
   4   5  -8   55.73    1.96 
   4   5  -8   70.76    2.86 
  -4  -5   7    1.10    0.51 
  -4  -5   7    0.63    0.43 
  -4  -5   7    1.18    0.40 
   4   5  -7    1.06    0.35 
   4   5  -7    1.02    0.53 
  -4  -5   6   97.93    3.19 
  -4  -5   6   81.93    2.91 
  -4  -5   6   81.04    2.41 
   4   5  -6   79.33    2.03 
   4   5  -6   97.28    3.15 
  -4  -5   5   15.28    1.26 
  -4  -5   5   14.51    1.22 
  -4  -5   5   13.49    1.17 
  -4  -5   5   12.78    0.98 
   4   5  -5   14.28    0.79 
   4   5  -5   15.68    1.26 
  -4  -5   4   89.33    2.88 
  -4  -5   4   83.38    2.78 
  -4  -5   4   75.32    2.64 
  -4  -5   4   69.92    2.25 
   4   5  -4   78.03    1.64 
   4   5  -4   91.26    2.88 
  -4  -5   3   38.82    1.86 
  -4  -5   3   35.53    1.78 
  -4  -5   3   31.06    1.66 
  -4  -5   3   27.97    1.43 
   4   5  -3   33.05    0.90 
   4   5  -3   36.63    1.79 
   4   5  -3   29.32    1.62 
  -4  -5   2   18.74    1.29 
  -4  -5   2   21.86    0.68 
  -4  -5   2   17.74    1.25 
  -4  -5   2   14.32    1.11 
  -4  -5   2   14.77    1.06 
   4   5  -2   19.12    1.29 
   4   5  -2   15.16    1.15 
  -4  -5   1  136.03    3.36 
  -4  -5   1  127.05    3.23 
  -4  -5   1   96.61    2.69 
   4   5  -1  140.34    3.37 
   4   5  -1  109.69    2.98 
  -4  -5   0    4.71    0.69 
  -4  -5   0    4.57    0.67 
  -4  -5   0    3.32    0.56 
   4   5   0    4.67    0.69 
   4   5   0    3.78    0.60 
  -4  -5  -1  135.05    3.29 
  -4  -5  -1  132.57    3.22 
  -4  -5  -1   95.43    2.70 
   4   5   1  140.82    3.31 
   4   5   1  110.19    2.86 
  -4  -5  -2    1.29    0.47 
  -4  -5  -2    1.73    0.48 
  -4  -5  -2    1.22    0.41 
   4   5   2    1.69    0.49 
   4   5   2    1.27    0.41 
  -4  -5  -3  198.93    4.02 
  -4  -5  -3  195.01    3.91 
  -4  -5  -3  140.97    3.36 
   4   5   3  205.81    4.04 
   4   5   3  179.88    3.59 
  -4  -5  -4   27.79    1.50 
  -4  -5  -4   28.24    1.48 
  -4  -5  -4   20.46    1.30 
   4   5   4   30.59    1.56 
   4   5   4   25.72    1.33 
  -4  -5  -5  162.13    2.09 
  -4  -5  -5  147.02    3.50 
  -4  -5  -5  153.87    3.49 
  -4  -5  -5  116.29    3.10 
   4   5   5  139.62    1.82 
   4   5   5  158.29    3.60 
   4   5   5  141.92    3.11 
  -4  -5  -6  106.60    1.90 
  -4  -5  -6  102.03    2.95 
  -4  -5  -6  105.52    2.91 
  -4  -5  -6   77.79    2.56 
   4   5   6  116.21    3.12 
   4   5   6   98.51    2.56 
  -4  -5  -7   61.22    1.59 
  -4  -5  -7   57.60    2.26 
  -4  -5  -7   63.09    2.28 
  -4  -5  -7   47.17    2.02 
   4   5   7   64.18    2.36 
   4   5   7   60.69    2.00 
  -4  -5  -8  125.39    2.53 
  -4  -5  -8  131.91    3.50 
  -4  -5  -8  139.73    3.48 
  -4  -5  -8   97.32    2.94 
   4   5   8  141.33    3.61 
   4   5   8  136.57    3.04 
  -4  -5  -9    0.95    0.35 
  -4  -5  -9    0.99    0.47 
  -4  -5  -9    0.62    0.42 
  -4  -5  -9    1.19    0.48 
   4   5   9    0.98    0.50 
   4   5   9    0.61    0.34 
  -4  -5 -10   41.97    1.68 
  -4  -5 -10   46.98    2.20 
  -4  -5 -10   49.45    2.16 
  -4  -5 -10   38.17    1.90 
   4   5  10   46.95    2.20 
   4   5  10   54.03    1.92 
  -4  -5 -11    4.19    0.63 
  -4  -5 -11    5.63    0.87 
  -4  -5 -11    5.21    0.79 
  -4  -5 -11    4.00    0.70 
   4   5  11    4.75    0.81 
   4   5  11    5.14    0.65 
  -4  -5 -12   65.21    2.36 
  -4  -5 -12   71.21    2.87 
  -4  -5 -12   74.25    2.80 
  -4  -5 -12   63.86    2.52 
   4   5  12   73.25    2.92 
   4   5  12   77.87    2.37 
  -4  -5 -13   21.13    1.44 
  -4  -5 -13   23.89    1.74 
  -4  -5 -13   21.87    1.59 
  -4  -5 -13   20.10    1.46 
   4   5  13   23.58    1.74 
   4   5  13   24.71    1.37 
  -4  -5 -14   34.73    1.92 
  -4  -5 -14   36.33    2.20 
  -4  -5 -14   39.31    2.17 
  -4  -5 -14   34.05    1.91 
   4   5  14   37.71    2.25 
  -4  -5 -15   27.01    1.79 
  -4  -5 -15   29.99    2.07 
  -4  -5 -15   29.61    1.95 
  -4  -5 -15    0.01    0.17 
   4   5  15   28.36    2.03 
  -4  -5 -16   10.11    1.19 
  -4  -5 -16   11.50    1.37 
  -4  -5 -16    9.99    1.22 
  -4  -5 -16    9.89    1.10 
   4   5  16   10.24    1.32 
  -4  -5 -17   26.41    1.94 
  -4  -5 -17   30.72    2.23 
  -4  -5 -17   29.82    2.09 
  -4  -5 -17   26.74    1.76 
   4   5  17   30.89    2.26 
  -4  -5 -18    0.49    0.54 
  -4  -5 -18    0.44    0.59 
  -4  -5 -18    0.28    0.52 
   4   5  18    0.43    0.61 
  -4  -6  13    1.10    0.67 
  -4  -6  13    1.28    0.68 
   4   6 -13    1.27    0.73 
  -4  -6  12   34.76    2.40 
  -4  -6  12   32.25    2.28 
   4   6 -12   33.02    1.95 
   4   6 -12   31.94    2.31 
  -4  -6  11   14.19    1.53 
  -4  -6  11   13.46    1.47 
   4   6 -11   14.01    1.24 
   4   6 -11   13.09    1.49 
  -4  -6  10   20.13    1.74 
  -4  -6  10   18.84    1.68 
   4   6 -10   20.62    1.41 
   4   6 -10   22.78    1.85 
  -4  -6   9   38.14    2.29 
  -4  -6   9   30.74    2.05 
   4   6  -9   35.13    1.72 
   4   6  -9   37.70    2.28 
  -4  -6   8   17.76    1.55 
  -4  -6   8   15.70    1.45 
  -4  -6   8   17.35    1.13 
   4   6  -8   15.42    1.09 
   4   6  -8   17.87    1.55 
  -4  -6   7   91.53    3.33 
  -4  -6   7   78.67    3.08 
  -4  -6   7   79.82    2.42 
   4   6  -7   79.24    2.27 
   4   6  -7   94.79    3.38 
  -4  -6   6    0.78    0.48 
  -4  -6   6    0.58    0.43 
  -4  -6   6    0.37    0.33 
   4   6  -6    0.58    0.30 
   4   6  -6    1.28    0.58 
  -4  -6   5   66.38    2.68 
  -4  -6   5   59.43    2.53 
  -4  -6   5   49.36    2.31 
  -4  -6   5   44.84    1.84 
   4   6  -5   51.85    1.57 
   4   6  -5   66.05    2.67 
  -4  -6   4   15.25    1.29 
  -4  -6   4   13.74    1.21 
  -4  -6   4   11.38    1.11 
  -4  -6   4   11.61    0.98 
   4   6  -4   11.77    0.69 
   4   6  -4   15.46    1.30 
  -4  -6   3   48.18    2.17 
  -4  -6   3   44.38    2.07 
  -4  -6   3   35.37    1.85 
  -4  -6   3   33.28    1.61 
   4   6  -3   35.31    1.03 
   4   6  -3   45.90    2.13 
  -4  -6   2   53.99    2.26 
  -4  -6   2   51.50    2.18 
  -4  -6   2   41.40    1.95 
  -4  -6   2   39.58    1.77 
   4   6  -2   42.71    0.94 
   4   6  -2   57.25    2.33 
  -4  -6   1   98.93    3.00 
  -4  -6   1   91.69    2.86 
  -4  -6   1   74.38    2.55 
  -4  -6   1   69.47    2.35 
   4   6  -1   96.46    2.97 
  -4  -6   0   39.17    1.87 
  -4  -6   0   40.38    1.86 
  -4  -6   0   29.54    1.57 
  -4  -6   0   27.54    1.50 
   4   6   0   39.25    1.87 
   4   6   0   32.05    1.64 
  -4  -6  -1   10.27    0.98 
  -4  -6  -1   11.86    1.03 
  -4  -6  -1    6.76    0.79 
   4   6   1   12.30    1.07 
   4   6   1    9.20    0.89 
  -4  -6  -2   80.60    2.62 
  -4  -6  -2   83.71    2.61 
  -4  -6  -2   57.39    2.19 
   4   6   2   89.20    2.78 
   4   6   2   68.90    2.30 
  -4  -6  -3    0.41    0.41 
  -4  -6  -3    0.20    0.37 
  -4  -6  -3    0.76    0.41 
   4   6   3    0.35    0.41 
   4   6   3    0.20    0.29 
  -4  -6  -4  139.96    3.49 
  -4  -6  -4  140.27    3.38 
  -4  -6  -4   93.68    2.87 
   4   6   4  137.46    3.49 
   4   6   4  117.29    2.90 
  -4  -6  -5   17.01    1.25 
  -4  -6  -5   17.69    1.22 
  -4  -6  -5   11.82    1.07 
   4   6   5   19.34    0.65 
   4   6   5   20.48    0.69 
   4   6   5   16.57    1.25 
   4   6   5   14.93    1.03 
  -4  -6  -6  100.24    3.00 
  -4  -6  -6   99.83    2.86 
  -4  -6  -6   68.00    2.50 
   4   6   6  107.57    1.88 
   4   6   6  113.99    1.93 
   4   6   6   99.64    3.03 
   4   6   6   89.34    2.46 
  -4  -6  -7   66.82    1.64 
  -4  -6  -7   64.05    2.43 
  -4  -6  -7   67.22    2.37 
  -4  -6  -7   44.76    2.06 
   4   6   7   67.58    2.53 
   4   6   7   56.83    1.94 
  -4  -6  -8   32.34    1.25 
  -4  -6  -8   29.63    1.70 
  -4  -6  -8   32.69    1.70 
  -4  -6  -8   23.34    1.52 
   4   6   8   30.44    1.75 
   4   6   8   28.73    1.37 
  -4  -6  -9   69.09    1.98 
  -4  -6  -9   67.76    2.60 
  -4  -6  -9   71.50    2.53 
  -4  -6  -9   51.26    2.26 
   4   6   9   70.14    2.70 
   4   6   9   67.53    2.09 
  -4  -6 -10   24.18    1.27 
  -4  -6 -10   23.67    1.60 
  -4  -6 -10   24.37    1.52 
  -4  -6 -10   18.04    1.39 
   4   6  10   22.02    1.58 
   4   6  10   23.27    1.23 
  -4  -6 -11   48.24    1.89 
  -4  -6 -11   49.65    2.35 
  -4  -6 -11   47.93    2.17 
  -4  -6 -11   40.07    2.06 
   4   6  11   52.38    2.46 
   4   6  11   47.52    1.75 
  -4  -6 -12    0.14    0.36 
  -4  -6 -12   -0.02    0.43 
  -4  -6 -12    0.23    0.41 
  -4  -6 -12    0.37    0.44 
   4   6  12    0.18    0.46 
   4   6  12    0.21    0.31 
  -4  -6 -13   58.55    2.33 
  -4  -6 -13   60.27    2.74 
  -4  -6 -13   62.18    2.60 
  -4  -6 -13   48.67    2.35 
   4   6  13   58.08    2.74 
  -4  -6 -14   10.89    1.11 
  -4  -6 -14   12.46    1.34 
  -4  -6 -14   13.42    1.29 
  -4  -6 -14   10.23    1.15 
   4   6  14   12.04    1.35 
  -4  -6 -15   27.59    1.79 
  -4  -6 -15   33.03    2.16 
  -4  -6 -15   37.58    2.16 
  -4  -6 -15   28.02    1.85 
   4   6  15   33.85    2.24 
  -4  -6 -16   16.81    1.48 
  -4  -6 -16   15.60    1.58 
  -4  -6 -16   16.94    1.52 
  -4  -6 -16   14.59    1.38 
   4   6  16   18.14    1.73 
  -4  -6 -17    6.11    1.00 
  -4  -6 -17    9.25    1.29 
  -4  -6 -17    9.18    1.19 
  -4  -6 -17    1.69    0.55 
   4   6  17    9.97    1.38 
  -4  -6 -18   18.02    1.67 
  -4  -6 -18   18.75    1.83 
  -4  -6 -18   23.25    1.88 
  -4  -6 -18   18.37    1.58 
   4   6  18   20.02    1.93 
  -4  -7  12    0.74    0.62 
  -4  -7  12    0.88    0.64 
   4   7 -12    0.22    0.57 
  -4  -7  11   24.85    2.07 
  -4  -7  11   21.38    1.92 
   4   7 -11   26.39    2.14 
  -4  -7  10    8.72    1.24 
  -4  -7  10    7.07    1.13 
   4   7 -10    8.12    1.23 
  -4  -7   9   27.42    2.04 
  -4  -7   9   23.78    1.90 
   4   7  -9   26.32    2.01 
  -4  -7   8   32.90    2.17 
  -4  -7   8   25.21    1.91 
   4   7  -8   33.61    2.20 
  -4  -7   7   15.63    1.48 
  -4  -7   7   11.61    1.29 
  -4  -7   7   13.62    1.05 
   4   7  -7   16.76    1.55 
  -4  -7   6   48.17    2.46 
  -4  -7   6   37.54    2.18 
  -4  -7   6   37.83    1.73 
   4   7  -6   48.62    2.50 
  -4  -7   5    3.13    0.73 
  -4  -7   5    1.81    0.59 
  -4  -7   5    1.66    0.56 
  -4  -7   5    1.67    0.48 
   4   7  -5    2.36    0.68 
  -4  -7   4   54.69    2.49 
  -4  -7   4   49.58    2.36 
  -4  -7   4   38.62    2.09 
  -4  -7   4   40.56    1.83 
   4   7  -4   51.85    2.45 
  -4  -7   3    0.02    0.39 
  -4  -7   3    0.10    0.35 
  -4  -7   3    0.11    0.34 
  -4  -7   3   -0.29    0.27 
   4   7  -3   -0.11    0.41 
  -4  -7   2   53.05    2.35 
  -4  -7   2   50.00    2.25 
  -4  -7   2   37.54    1.95 
  -4  -7   2   36.33    1.76 
   4   7  -2   55.75    2.44 
  -4  -7   1   38.19    1.96 
  -4  -7   1   33.74    1.82 
  -4  -7   1   25.94    1.59 
  -4  -7   1   25.61    1.50 
   4   7  -1   39.21    2.02 
  -4  -7   0   38.63    1.95 
  -4  -7   0   39.26    1.92 
  -4  -7   0   26.52    1.57 
  -4  -7   0   25.60    1.52 
   4   7   0   36.35    1.92 
  -4  -7  -1   81.49    2.78 
  -4  -7  -1   74.71    2.60 
  -4  -7  -1   60.45    2.29 
  -4  -7  -1   55.43    2.24 
   4   7   1   84.86    2.89 
  -4  -7  -2    7.52    0.90 
  -4  -7  -2    7.84    0.88 
  -4  -7  -2    6.00    0.75 
  -4  -7  -2    5.61    0.78 
   4   7   2    7.78    0.42 
   4   7   2    7.65    0.94 
  -4  -7  -3   53.53    2.23 
  -4  -7  -3   61.33    2.30 
  -4  -7  -3   41.16    1.81 
  -4  -7  -3   40.96    1.96 
   4   7   3   61.27    1.19 
   4   7   3   60.19    2.42 
   4   7   3   43.15    1.85 
  -4  -7  -4    0.18    0.41 
  -4  -7  -4    0.47    0.40 
  -4  -7  -4    0.37    0.39 
   4   7   4    0.43    0.21 
   4   7   4    0.41    0.45 
   4   7   4    0.30    0.33 
  -4  -7  -5   96.36    3.00 
  -4  -7  -5  100.12    2.92 
  -4  -7  -5   63.52    2.50 
   4   7   5  115.20    1.80 
   4   7   5  115.32    1.92 
   4   7   5  103.80    3.21 
   4   7   5   82.33    2.46 
  -4  -7  -6    6.13    0.85 
  -4  -7  -6    5.40    0.75 
  -4  -7  -6    4.11    0.73 
   4   7   6    7.19    0.52 
   4   7   6    6.65    0.52 
   4   7   6    5.44    0.84 
   4   7   6    5.58    0.67 
  -4  -7  -7   88.43    2.93 
  -4  -7  -7   88.09    2.76 
  -4  -7  -7   60.68    2.51 
   4   7   7   99.40    2.05 
   4   7   7  101.63    2.11 
   4   7   7   93.45    3.12 
   4   7   7   79.37    2.32 
  -4  -7  -8   20.09    1.45 
  -4  -7  -8   19.70    1.34 
  -4  -7  -8   14.77    1.29 
   4   7   8   21.11    1.03 
   4   7   8   21.47    1.04 
   4   7   8   19.86    1.50 
   4   7   8   15.56    1.03 
  -4  -7  -9   90.31    2.29 
  -4  -7  -9   82.58    2.92 
  -4  -7  -9   84.60    2.77 
  -4  -7  -9   57.23    2.51 
   4   7   9   90.73    2.30 
   4   7   9   84.52    3.08 
   4   7   9   71.65    2.14 
  -4  -7 -10   63.98    2.06 
  -4  -7 -10   62.05    2.59 
  -4  -7 -10   61.35    2.40 
  -4  -7 -10   45.99    2.28 
   4   7  10   65.69    2.77 
   4   7  10   55.13    1.85 
  -4  -7 -11   19.94    1.24 
  -4  -7 -11   17.25    1.43 
  -4  -7 -11   18.15    1.36 
  -4  -7 -11   13.87    1.31 
   4   7  11   19.17    1.57 
   4   7  11   18.12    1.07 
  -4  -7 -12   68.23    2.39 
  -4  -7 -12   68.85    2.87 
  -4  -7 -12   62.50    2.52 
  -4  -7 -12   49.65    2.45 
   4   7  12   67.41    2.95 
  -4  -7 -13    1.78    0.55 
  -4  -7 -13    2.65    0.74 
  -4  -7 -13    2.33    0.63 
  -4  -7 -13    1.80    0.62 
   4   7  13    2.24    0.73 
  -4  -7 -14   72.94    2.74 
  -4  -7 -14   80.00    3.26 
  -4  -7 -14   76.47    2.94 
  -4  -7 -14   59.61    2.76 
   4   7  14   74.07    3.26 
  -4  -7 -15    2.92    0.69 
  -4  -7 -15    2.32    0.74 
  -4  -7 -15    3.94    0.80 
  -4  -7 -15    1.90    0.66 
   4   7  15    4.13    0.92 
  -4  -7 -16   30.37    1.95 
  -4  -7 -16   36.99    2.36 
  -4  -7 -16   32.55    2.04 
  -4  -7 -16   26.54    1.92 
   4   7  16   35.83    2.42 
  -4  -7 -17    6.83    1.04 
  -4  -7 -17    7.19    1.16 
  -4  -7 -17    7.29    1.07 
  -4  -7 -17    5.25    0.96 
   4   7  17    6.83    1.20 
  -4  -7 -18   16.56    1.60 
  -4  -7 -18   20.20    1.88 
  -4  -7 -18   15.77    1.55 
   4   7  18   17.57    1.85 
  -4  -8  11    0.53    0.63 
   4   8 -11    0.66    0.66 
  -4  -8  10   15.77    1.70 
  -4  -8  10   12.87    1.55 
   4   8 -10   15.86    1.71 
  -4  -8   9    4.43    0.97 
  -4  -8   9    3.43    0.88 
   4   8  -9    3.59    0.91 
  -4  -8   8   24.04    1.95 
  -4  -8   8   21.22    1.84 
   4   8  -8   25.83    2.04 
  -4  -8   7   12.14    1.38 
  -4  -8   7    7.47    1.12 
   4   8  -7   11.69    1.39 
  -4  -8   6   27.08    1.96 
  -4  -8   6   21.60    1.76 
   4   8  -6   26.07    1.95 
  -4  -8   5   50.31    2.57 
  -4  -8   5   44.02    2.39 
  -4  -8   5   35.93    2.19 
  -4  -8   5   37.41    1.81 
   4   8  -5   47.72    2.54 
  -4  -8   4   10.88    1.22 
  -4  -8   4   11.68    1.24 
  -4  -8   4    9.07    1.12 
  -4  -8   4    8.82    0.94 
   4   8  -4   11.91    1.31 
  -4  -8   3   62.93    2.74 
  -4  -8   3   54.43    2.52 
  -4  -8   3   46.14    2.34 
  -4  -8   3   42.71    1.98 
   4   8  -3   63.79    2.81 
  -4  -8   2    0.92    0.51 
  -4  -8   2    0.72    0.47 
  -4  -8   2    0.45    0.41 
  -4  -8   2    0.39    0.37 
   4   8  -2    0.60    0.55 
  -4  -8   1  139.08    3.93 
  -4  -8   1  132.95    3.77 
  -4  -8   1   94.32    3.18 
  -4  -8   1   90.09    2.93 
   4   8  -1  135.41    3.97 
  -4  -8   0    6.82    0.92 
  -4  -8   0    6.72    0.89 
  -4  -8   0    3.71    0.68 
  -4  -8   0    3.23    0.65 
   4   8   0    6.25    0.94 
  -4  -8  -1   46.89    2.21 
  -4  -8  -1   47.46    2.16 
  -4  -8  -1   30.66    1.72 
  -4  -8  -1   29.92    1.73 
   4   8   1   48.83    2.34 
  -4  -8  -2   23.73    1.57 
  -4  -8  -2   23.86    1.52 
  -4  -8  -2   15.76    1.22 
  -4  -8  -2   14.99    1.26 
   4   8   2   23.97    1.65 
  -4  -8  -3   20.62    1.46 
  -4  -8  -3   20.85    1.41 
  -4  -8  -3   13.54    1.11 
  -4  -8  -3   14.13    1.24 
   4   8   3   19.26    1.48 
  -4  -8  -4   50.49    2.25 
  -4  -8  -4   53.16    2.20 
  -4  -8  -4   35.13    1.93 
   4   8   4   51.27    2.37 
  -4  -8  -5   12.36    1.17 
  -4  -8  -5   11.46    1.06 
  -4  -8  -5    8.13    0.83 
  -4  -8  -5    6.87    0.92 
   4   8   5   10.55    1.14 
  -4  -8  -6   74.17    2.74 
  -4  -8  -6   79.82    2.67 
  -4  -8  -6   55.56    2.04 
  -4  -8  -6   48.89    2.33 
   4   8   6   80.68    1.90 
   4   8   6   75.18    2.90 
  -4  -8  -7    0.28    0.44 
  -4  -8  -7    0.00    0.35 
  -4  -8  -7    0.05    0.26 
  -4  -8  -7    0.24    0.40 
   4   8   7    0.14    0.24 
   4   8   7    0.01    0.45 
  -4  -8  -8   75.60    2.82 
  -4  -8  -8   82.90    2.74 
  -4  -8  -8   57.89    1.98 
  -4  -8  -8   52.02    2.47 
   4   8   8   79.62    2.06 
   4   8   8   86.58    2.20 
   4   8   8   79.24    3.05 
   4   8   8   58.89    2.00 
  -4  -8  -9   13.66    1.27 
  -4  -8  -9   12.89    1.14 
  -4  -8  -9   10.59    0.85 
  -4  -8  -9    8.75    1.09 
   4   8   9   14.66    0.97 
   4   8   9   13.70    0.95 
   4   8   9   12.84    1.31 
   4   8   9   11.38    0.89 
  -4  -8 -10   57.55    2.54 
  -4  -8 -10   59.44    2.37 
  -4  -8 -10   37.90    2.18 
   4   8  10   62.71    2.08 
   4   8  10   63.90    2.11 
   4   8  10   58.16    2.71 
  -4  -8 -11   27.29    1.81 
  -4  -8 -11   25.34    1.59 
  -4  -8 -11   18.92    1.58 
   4   8  11   28.13    1.49 
   4   8  11   25.23    1.86 
  -4  -8 -12   25.44    1.49 
  -4  -8 -12   22.30    1.69 
  -4  -8 -12   23.08    1.55 
  -4  -8 -12   14.69    1.43 
   4   8  12   24.36    1.47 
   4   8  12   22.82    1.81 
  -4  -8 -13   52.51    2.23 
  -4  -8 -13   47.80    2.49 
  -4  -8 -13   50.80    2.32 
  -4  -8 -13   35.65    2.21 
   4   8  13   48.20    2.65 
  -4  -8 -14    4.87    0.81 
  -4  -8 -14    6.15    1.02 
  -4  -8 -14    5.31    0.86 
  -4  -8 -14    4.80    0.93 
   4   8  14    5.96    1.07 
  -4  -8 -15   56.33    2.54 
  -4  -8 -15   58.70    2.89 
  -4  -8 -15   39.44    2.40 
   4   8  15   58.29    3.05 
  -4  -8 -16    0.06    0.47 
  -4  -8 -16    0.03    0.50 
  -4  -8 -16    0.08    0.48 
   4   8  16    0.09    0.57 
  -4  -8 -17   34.10    2.17 
  -4  -8 -17   35.76    2.40 
  -4  -8 -17   24.74    1.98 
   4   8  17   35.20    2.53 
  -4  -9   9   23.15    2.06 
   4   9  -9   24.16    2.13 
  -4  -9   8    0.19    0.53 
  -4  -9   8    0.22    0.52 
   4   9  -8    0.11    0.59 
  -4  -9   7   30.74    2.23 
  -4  -9   7   23.46    1.99 
   4   9  -7   30.01    2.24 
  -4  -9   6   11.73    1.39 
  -4  -9   6   10.41    1.31 
  -4  -9   6    6.08    1.06 
   4   9  -6   10.35    1.35 
  -4  -9   5   26.59    1.98 
  -4  -9   5   24.67    1.89 
  -4  -9   5   20.38    1.76 
   4   9  -5   25.65    2.00 
  -4  -9   4   28.25    1.99 
  -4  -9   4   23.88    1.82 
  -4  -9   4   20.62    1.72 
  -4  -9   4   21.43    1.46 
   4   9  -4   23.95    1.89 
  -4  -9   3   19.31    1.63 
  -4  -9   3   19.22    1.60 
  -4  -9   3   13.59    1.38 
  -4  -9   3   13.74    1.21 
   4   9  -3   17.44    1.61 
  -4  -9   2   56.85    2.68 
  -4  -9   2   54.60    2.59 
  -4  -9   2   35.60    2.12 
  -4  -9   2   39.75    2.02 
   4   9  -2   55.91    2.74 
  -4  -9   1    6.63    0.98 
  -4  -9   1    5.27    0.87 
  -4  -9   1    4.74    0.83 
  -4  -9   1    4.09    0.74 
   4   9  -1    6.27    1.02 
  -4  -9   0  125.39    3.84 
  -4  -9   0  121.45    3.69 
  -4  -9   0   79.51    2.99 
  -4  -9   0   78.18    2.90 
   4   9   0  120.65    3.92 
  -4  -9  -1    7.07    0.98 
  -4  -9  -1    7.84    0.98 
  -4  -9  -1    5.65    0.83 
  -4  -9  -1    5.17    0.83 
   4   9   1    7.03    1.04 
  -4  -9  -2   75.08    2.89 
  -4  -9  -2   72.73    2.74 
  -4  -9  -2   50.29    2.26 
  -4  -9  -2   46.59    2.29 
   4   9   2   75.38    3.04 
  -4  -9  -3   10.65    1.14 
  -4  -9  -3   10.04    1.05 
  -4  -9  -3    7.16    0.87 
  -4  -9  -3    7.68    1.00 
   4   9   3   10.19    1.19 
  -4  -9  -4   54.31    2.43 
  -4  -9  -4   55.90    2.34 
  -4  -9  -4   29.69    1.64 
  -4  -9  -4   33.54    1.99 
   4   9   4   55.14    2.60 
  -4  -9  -5   64.14    2.63 
  -4  -9  -5   67.05    2.53 
  -4  -9  -5   39.20    1.84 
  -4  -9  -5   42.83    2.27 
   4   9   5   61.00    2.74 
  -4  -9  -6    6.79    0.95 
  -4  -9  -6    8.34    0.95 
  -4  -9  -6    4.90    0.68 
  -4  -9  -6    6.96    0.99 
   4   9   6    8.78    1.13 
  -4  -9  -7   60.41    2.57 
  -4  -9  -7   66.49    2.50 
  -4  -9  -7   39.97    1.75 
  -4  -9  -7   41.97    2.31 
   4   9   7   62.65    2.81 
  -4  -9  -8    1.82    0.62 
  -4  -9  -8    2.03    0.58 
  -4  -9  -8    1.21    0.38 
  -4  -9  -8    1.40    0.60 
   4   9   8    1.15    0.62 
  -4  -9  -9   68.23    2.79 
  -4  -9  -9   72.90    2.62 
  -4  -9  -9   46.77    2.50 
   4   9   9   69.21    3.03 
  -4  -9 -10    4.09    0.82 
  -4  -9 -10    4.82    0.78 
  -4  -9 -10    3.04    0.75 
   4   9  10    5.14    0.97 
  -4  -9 -11   43.66    2.31 
  -4  -9 -11   44.11    2.08 
  -4  -9 -11   30.15    2.07 
   4   9  11   40.51    2.41 
  -4  -9 -12   10.24    1.22 
  -4  -9 -12   12.15    1.16 
  -4  -9 -12    6.57    1.05 
   4   9  12    8.66    1.22 
  -4  -9 -13   16.76    1.53 
  -4  -9 -13   12.02    1.40 
   4   9  13   17.98    1.72 
  -4  -9 -14   27.52    1.98 
  -4  -9 -14   21.60    1.85 
   4   9  14   31.26    2.27 
  -4  -9 -15    9.43    1.27 
  -4  -9 -15    5.97    1.08 
   4   9  15    9.21    1.35 
  -4  -9 -16   41.24    2.52 
  -4  -9 -16   30.81    2.27 
   4   9  16   41.26    2.72 
  -4 -10   7    0.54    0.60 
   4  10  -7    0.29    0.60 
  -4 -10   6   26.83    2.14 
  -4 -10   6   19.95    1.89 
   4  10  -6   27.42    2.21 
  -4 -10   5    3.71    0.91 
  -4 -10   5    2.88    0.79 
  -4 -10   5    1.94    0.73 
   4  10  -5    3.39    0.93 
  -4 -10   4   21.00    1.82 
  -4 -10   4   22.18    1.84 
  -4 -10   4   14.87    1.55 
   4  10  -4   23.60    1.98 
  -4 -10   3   11.96    1.38 
  -4 -10   3   13.85    1.44 
  -4 -10   3    8.42    1.17 
  -4 -10   3    9.80    1.10 
   4  10  -3   13.59    1.52 
  -4 -10   2   21.56    1.76 
  -4 -10   2   20.32    1.68 
  -4 -10   2   16.98    1.57 
  -4 -10   2   17.06    1.42 
   4  10  -2   24.79    1.96 
  -4 -10   1   55.95    2.73 
  -4 -10   1   52.89    2.60 
  -4 -10   1   36.61    2.21 
  -4 -10   1   36.47    2.06 
   4  10  -1   54.79    2.83 
  -4 -10   0    5.39    0.94 
  -4 -10   0    4.86    0.87 
  -4 -10   0    1.92    0.62 
  -4 -10   0    2.88    0.69 
   4  10   0    3.73    0.89 
  -4 -10  -1   60.69    2.75 
  -4 -10  -1   61.14    2.68 
  -4 -10  -1   40.86    2.21 
  -4 -10  -1   39.69    2.20 
   4  10   1   64.26    2.99 
  -4 -10  -2    0.23    0.48 
  -4 -10  -2    0.57    0.49 
  -4 -10  -2    0.10    0.35 
  -4 -10  -2    0.28    0.43 
   4  10   2    0.10    0.53 
  -4 -10  -3   69.76    2.88 
  -4 -10  -3   71.91    2.79 
  -4 -10  -3   45.50    2.20 
  -4 -10  -3   41.63    2.30 
   4  10   3   66.67    3.01 
  -4 -10  -4   10.28    1.18 
  -4 -10  -4   10.21    1.10 
  -4 -10  -4    7.76    0.93 
  -4 -10  -4    5.94    0.96 
   4  10   4    9.90    1.24 
  -4 -10  -5   45.96    2.33 
  -4 -10  -5   47.84    2.22 
  -4 -10  -5   28.79    1.66 
  -4 -10  -5   27.59    1.94 
   4  10   5   44.59    2.47 
  -4 -10  -6   34.38    2.03 
  -4 -10  -6   33.59    1.85 
  -4 -10  -6   20.00    1.35 
  -4 -10  -6   21.74    1.75 
   4  10   6   34.59    2.20 
  -4 -10  -7   19.54    1.56 
  -4 -10  -7   21.04    1.47 
  -4 -10  -7   13.54    1.42 
   4  10   7   20.48    1.74 
  -4 -10  -8   53.21    2.51 
  -4 -10  -8   54.44    2.31 
  -4 -10  -8   32.74    2.18 
   4  10   8   52.47    2.73 
  -4 -10  -9    0.48    0.52 
  -4 -10  -9    0.76    0.55 
   4  10   9    0.90    0.63 
  -4 -10 -10   56.31    2.63 
  -4 -10 -10   36.03    2.34 
   4  10  10   56.08    2.89 
  -4 -10 -11    3.02    0.77 
  -4 -10 -11    1.59    0.67 
   4  10  11    2.02    0.76 
  -4 -10 -12   28.06    1.94 
  -4 -10 -12   19.77    1.80 
   4  10  12   27.40    2.12 
  -4 -10 -13    3.61    0.86 
  -4 -10 -13    2.84    0.83 
   4  10  13    2.98    0.87 
  -4 -10 -14   28.89    2.05 
  -4 -10 -14   19.02    1.83 
   4  10  14   27.36    2.20 
  -4 -10 -15   11.75    1.39 
  -4 -10 -15    8.79    1.33 
   4  10  15   11.68    1.53 
  -4 -11   4    2.20    0.79 
  -4 -11   4    2.06    0.76 
   4  11  -4    1.84    0.81 
  -4 -11   3   24.42    1.99 
  -4 -11   3   23.94    1.95 
  -4 -11   3   16.47    1.69 
   4  11  -3   25.10    2.11 
  -4 -11   2    8.57    1.22 
  -4 -11   2    6.35    1.06 
  -4 -11   2    5.43    1.01 
  -4 -11   2    5.98    0.93 
   4  11  -2    6.83    1.18 
  -4 -11   1   17.76    1.65 
  -4 -11   1   16.89    1.57 
  -4 -11   1   12.09    1.38 
  -4 -11   1   11.02    1.24 
   4  11  -1   15.26    1.64 
  -4 -11   0   19.74    1.71 
  -4 -11   0   18.78    1.62 
  -4 -11   0   12.43    1.37 
  -4 -11   0   11.21    1.27 
   4  11   0   17.53    1.73 
  -4 -11  -1   18.73    1.64 
  -4 -11  -1   20.26    1.64 
  -4 -11  -1   11.76    1.30 
  -4 -11  -1   11.68    1.30 
   4  11   1   18.37    1.75 
  -4 -11  -2   37.67    2.25 
  -4 -11  -2   38.56    2.18 
  -4 -11  -2   24.65    1.78 
  -4 -11  -2   21.03    1.73 
   4  11   2   38.07    2.43 
  -4 -11  -3    2.16    0.71 
  -4 -11  -3    3.59    0.77 
  -4 -11  -3   -0.01    0.19 
  -4 -11  -3    1.70    0.64 
   4  11   3    2.37    0.82 
  -4 -11  -4   52.52    2.59 
  -4 -11  -4   51.34    2.41 
  -4 -11  -4   32.87    1.92 
  -4 -11  -4   30.75    2.12 
   4  11   4   48.67    2.72 
  -4 -11  -5    0.03    0.52 
  -4 -11  -5    0.20    0.46 
   4  11   5    0.35    0.59 
  -4 -11  -6   45.76    2.40 
  -4 -11  -6   27.33    2.04 
   4  11   6   49.99    2.76 
  -4 -11  -7   12.04    1.31 
  -4 -11  -7    6.90    1.12 
   4  11   7   12.86    1.49 
  -4 -11  -8   23.18    1.75 
  -4 -11  -8   13.35    1.50 
   4  11   8   27.67    2.11 
  -4 -11  -9   24.62    1.80 
  -4 -11  -9   11.76    1.43 
   4  11   9   23.30    1.97 
  -4 -11 -10    5.54    0.97 
  -4 -11 -10    4.28    0.95 
   4  11  10    4.84    1.03 
  -4 -11 -11   21.79    1.73 
  -4 -11 -11   16.96    1.74 
   4  11  11   24.85    2.07 
  -4 -11 -12    0.64    0.63 
  -4 -11 -12    0.10    0.51 
   4  11  12    0.38    0.63 
  -4 -11 -13   12.07    1.53 
   4  11  13   18.31    1.86 
  -4 -12   0   21.80    1.86 
  -4 -12   0   14.50    1.54 
  -4 -12   0   13.00    1.42 
   4  12   0   21.84    2.01 
  -4 -12  -1   17.75    1.67 
  -4 -12  -1   10.33    1.28 
  -4 -12  -1    9.55    1.26 
   4  12   1   16.98    1.79 
  -4 -12  -2   15.84    1.56 
  -4 -12  -2    9.56    1.21 
  -4 -12  -2   10.44    1.31 
   4  12   2   15.38    1.70 
  -4 -12  -3   31.63    2.13 
  -4 -12  -3   16.91    1.66 
   4  12   3   23.79    2.04 
  -4 -12  -4    5.26    0.99 
  -4 -12  -4    3.07    0.81 
   4  12   4    5.80    1.13 
  -4 -12  -5   24.88    1.87 
  -4 -12  -5   14.53    1.58 
   4  12   5   23.83    2.03 
  -4 -12  -6   -0.02    0.46 
   4  12   6   -0.04    0.55 
  -4 -12  -7   20.08    1.89 
   4  12   7   34.77    2.44 
  -4 -12  -8    1.27    0.69 
   4  12   8    2.00    0.84 
  -4 -12  -9   15.54    1.71 
   4  12   9   32.49    2.40 
  -4 -12 -10   10.44    1.45 
   4  12  10   16.77    1.80 
  -5   7   7   22.92    2.10 
  -5   7   7   19.46    1.92 
   5  -7  -7   16.49    1.77 
  -5   7   6   16.62    1.80 
  -5   7   6   19.04    1.90 
   5  -7  -6   14.55    1.65 
  -5   7   5   32.38    2.43 
  -5   7   5   36.37    2.55 
   5  -7  -5   22.80    2.01 
  -5   7   4    2.50    0.90 
  -5   7   4    4.40    1.03 
   5  -7  -4    2.54    0.81 
  -5   7   3   39.90    2.68 
  -5   7   3   38.37    2.60 
   5  -7  -3   31.66    2.29 
  -5   7   2    0.13    0.65 
  -5   7   2    0.85    0.72 
   5  -7  -2    0.61    0.54 
   5  -7  -2    0.34    0.55 
  -5   7   1   51.17    3.04 
  -5   7   1   49.02    2.95 
   5  -7  -1   49.99    2.74 
   5  -7  -1   41.46    2.55 
  -5   7   0    4.33    1.08 
  -5   7   0    3.27    0.98 
   5  -7   0    3.50    0.88 
   5  -7   0    4.30    0.92 
  -5   6  11   22.21    2.04 
  -5   6  11   20.92    1.97 
   5  -6 -11   14.12    1.67 
  -5   6  10    1.91    0.80 
  -5   6  10    0.94    0.69 
   5  -6 -10    0.42    0.55 
  -5   6   9   43.67    2.73 
  -5   6   9   50.81    2.92 
   5  -6  -9   32.50    2.40 
  -5   6   8    2.64    0.87 
  -5   6   8    2.72    0.85 
   5  -6  -8    3.25    0.86 
  -5   6   7   33.21    2.35 
  -5   6   7   32.92    2.32 
   5  -6  -7   25.43    2.07 
  -5   6   6   10.73    1.40 
  -5   6   6   11.50    1.43 
   5  -6  -6    8.92    1.26 
  -5   6   5   20.00    1.83 
  -5   6   5   23.01    1.94 
   5  -6  -5   25.05    1.73 
   5  -6  -5   18.65    1.74 
  -5   6   4   24.68    2.01 
  -5   6   4   23.53    1.95 
   5  -6  -4    0.36    0.28 
   5  -6  -4   17.98    1.70 
  -5   6   3   10.29    1.37 
  -5   6   3   10.15    1.33 
   5  -6  -3   11.24    1.24 
   5  -6  -3    8.17    1.17 
  -5   6   2   32.57    2.30 
  -5   6   2   30.61    2.21 
   5  -6  -2   38.23    2.25 
   5  -6  -2   28.63    2.07 
  -5   6   1    2.69    0.87 
  -5   6   1    2.39    0.82 
   5  -6  -1    3.04    0.76 
   5  -6  -1    2.38    0.71 
  -5   6   0   31.80    2.30 
  -5   6   0   39.08    2.51 
   5  -6   0   31.54    2.14 
   5  -6   0   29.70    2.06 
  -5   6  -1    3.67    0.96 
  -5   6  -1    4.63    1.01 
   5  -6   1    5.23    0.98 
   5  -6   1    3.65    0.82 
  -5   6  -2   43.86    2.72 
  -5   6  -2   42.44    2.65 
   5  -6   2   39.40    2.48 
   5  -6   2   37.17    2.24 
  -5   6  -3   12.78    1.57 
  -5   6  -3   12.34    1.53 
   5  -6   3   13.00    1.50 
   5  -6   3   12.80    1.35 
  -5   6  -4   14.60    1.68 
  -5   6  -4   13.69    1.61 
   5  -6   4   12.56    1.51 
  -5   6  -5   32.11    2.45 
  -5   6  -5   32.44    2.43 
   5  -6   5   27.02    2.20 
  -5   5  12   21.35    1.95 
  -5   5  12   19.45    1.85 
   5  -5 -12   17.49    1.78 
  -5   5  11   19.32    1.83 
  -5   5  11   20.53    1.87 
   5  -5 -11   13.53    1.56 
  -5   5  10   32.56    2.29 
  -5   5  10   35.11    2.36 
   5  -5 -10   22.87    1.97 
  -5   5   9    3.37    0.87 
  -5   5   9    3.06    0.84 
   5  -5  -9    2.04    0.72 
  -5   5   8   48.79    2.70 
  -5   5   8   48.92    2.68 
   5  -5  -8   33.62    2.30 
  -5   5   7    0.14    0.54 
  -5   5   7    0.45    0.56 
   5  -5  -7    0.30    0.48 
  -5   5   6   57.72    2.88 
  -5   5   6   56.09    2.81 
   5  -5  -6   62.90    2.57 
   5  -5  -6   42.40    2.50 
  -5   5   5    7.05    1.09 
  -5   5   5    7.70    1.12 
   5  -5  -5    8.71    1.02 
   5  -5  -5    5.66    0.97 
  -5   5   4   30.55    2.09 
  -5   5   4   32.08    2.11 
   5  -5  -4   31.93    1.90 
   5  -5  -4   22.72    1.81 
  -5   5   3   27.57    1.99 
  -5   5   3   27.27    1.96 
   5  -5  -3   26.41    1.77 
   5  -5  -3   20.26    1.69 
  -5   5   2   18.45    1.66 
  -5   5   2   21.59    1.76 
   5  -5  -2   20.40    1.59 
   5  -5  -2   16.72    1.52 
  -5   5   1   53.69    2.75 
  -5   5   1   55.39    2.77 
   5  -5  -1   56.20    2.65 
   5  -5  -1   45.49    2.45 
  -5   5   0    7.45    1.15 
  -5   5   0    6.64    1.07 
   5  -5   0    6.94    1.02 
   5  -5   0    5.98    0.95 
  -5   5  -1   53.75    2.79 
  -5   5  -1   51.36    2.70 
   5  -5   1   49.10    2.58 
   5  -5   1   44.80    2.38 
  -5   5  -2    0.25    0.57 
  -5   5  -2    1.16    0.65 
   5  -5   2    0.84    0.53 
   5  -5   2    0.54    0.48 
  -5   5  -3   47.54    2.69 
  -5   5  -3   49.56    2.71 
   5  -5   3   42.64    2.51 
   5  -5   3   50.27    2.46 
  -5   5  -4    4.74    1.00 
  -5   5  -4    5.73    1.05 
   5  -5   4    3.55    0.85 
   5  -5   4    4.75    0.85 
  -5   5  -5   24.48    2.02 
  -5   5  -5   23.96    1.98 
  -5   5  -5   22.56    1.70 
   5  -5   5   25.22    2.04 
  -5   5  -6   14.65    1.64 
  -5   5  -6   15.13    1.63 
  -5   5  -6   14.78    1.46 
   5  -5   6   14.76    1.62 
  -5   5  -7   10.40    1.44 
  -5   5  -7   10.92    1.44 
  -5   5  -7   11.05    1.33 
   5  -5   7    8.99    1.32 
  -5   5  -8   38.73    2.66 
  -5   5  -8   41.22    2.71 
  -5   5  -8   33.99    2.31 
  -5   4  14   27.53    2.20 
  -5   4  14   30.93    2.31 
   5  -4 -14   23.35    2.02 
  -5   4  13    1.49    0.71 
  -5   4  13    1.56    0.71 
   5  -4 -13    0.97    0.62 
  -5   4  12   30.64    2.21 
  -5   4  12   32.88    2.27 
   5  -4 -12   26.93    2.10 
  -5   4  11    8.26    1.19 
  -5   4  11    8.08    1.17 
   5  -4 -11    5.48    1.01 
  -5   4  10   16.71    1.60 
  -5   4  10   16.96    1.60 
   5  -4 -10   12.19    1.41 
  -5   4   9   46.85    2.55 
  -5   4   9   50.60    2.63 
   5  -4  -9   37.87    2.37 
  -5   4   8   15.39    1.49 
  -5   4   8   14.91    1.46 
   5  -4  -8   15.91    1.26 
   5  -4  -8   10.50    1.28 
  -5   4   7   79.65    3.22 
  -5   4   7   84.25    3.28 
   5  -4  -7   90.86    2.97 
   5  -4  -7   60.89    2.91 
  -5   4   6    0.90    0.58 
  -5   4   6    0.92    0.58 
   5  -4  -6    1.08    0.49 
   5  -4  -6    0.11    0.42 
  -5   4   5   98.09    3.50 
  -5   4   5   98.29    3.46 
   5  -4  -5   43.91    2.10 
   5  -4  -5   72.66    3.10 
  -5   4   4    1.08    0.58 
  -5   4   4    0.99    0.56 
   5  -4  -4    1.54    0.53 
   5  -4  -4    0.93    0.52 
  -5   4   3   72.96    2.99 
  -5   4   3   74.81    2.99 
   5  -4  -3   72.72    2.80 
   5  -4  -3   54.43    2.62 
  -5   4   2   29.68    1.94 
  -5   4   2   32.32    1.98 
   5  -4  -2   28.36    1.79 
   5  -4  -2   21.21    1.64 
  -5   4   1   54.49    2.60 
  -5   4   1   48.90    2.43 
  -5   4   1   49.97    1.95 
   5  -4  -1   52.46    2.46 
   5  -4  -1   42.66    2.27 
  -5   4   0   47.64    2.45 
  -5   4   0   48.29    2.43 
  -5   4   0   41.74    1.85 
   5  -4   0   42.47    2.25 
   5  -4   0   40.87    2.20 
  -5   4  -1   20.55    1.67 
  -5   4  -1   19.16    1.59 
  -5   4  -1   17.75    1.28 
   5  -4   1   17.97    1.52 
   5  -4   1   17.17    1.45 
  -5   4  -2  102.25    3.64 
  -5   4  -2  103.95    3.62 
  -5   4  -2   86.13    2.86 
   5  -4   2   92.12    3.44 
   5  -4   2   87.14    3.14 
  -5   4  -3    6.02    1.01 
  -5   4  -3    6.42    1.03 
  -5   4  -3    4.64    0.77 
   5  -4   3    5.41    0.94 
   5  -4   3    5.02    0.83 
  -5   4  -4   74.00    3.19 
  -5   4  -4   74.48    3.15 
  -5   4  -4   66.72    2.71 
   5  -4   4   66.71    3.05 
   5  -4   4   75.93    2.87 
  -5   4  -5    1.27    0.64 
  -5   4  -5    1.56    0.67 
  -5   4  -5    0.89    0.51 
  -5   4  -5    2.20    0.59 
   5  -4   5    1.29    0.61 
  -5   4  -6   48.22    2.69 
  -5   4  -6   45.43    2.56 
  -5   4  -6   42.79    2.33 
  -5   4  -6   48.79    2.24 
   5  -4   6   40.22    2.49 
  -5   4  -7    4.03    0.93 
  -5   4  -7    6.22    1.07 
  -5   4  -7    4.85    0.91 
   5  -4   7    4.03    0.91 
  -5   4  -8   33.07    2.34 
  -5   4  -8   33.37    2.31 
  -5   4  -8   29.14    2.08 
   5  -4   8   28.58    2.20 
  -5   4  -9   22.75    2.00 
  -5   4  -9   24.52    2.05 
  -5   4  -9   22.33    1.90 
   5  -4   9   19.29    1.87 
  -5   4 -10    7.75    1.28 
  -5   3  15   22.10    1.97 
  -5   3  15   23.19    2.01 
   5  -3 -15   21.38    1.89 
  -5   3  14    4.35    0.96 
  -5   3  14    4.71    0.99 
   5  -3 -14    4.03    0.92 
  -5   3  13   36.96    2.39 
  -5   3  13   38.37    2.41 
   5  -3 -13   35.07    2.33 
  -5   3  12    0.44    0.51 
  -5   3  12   -0.32    0.43 
   5  -3 -12    0.26    0.50 
  -5   3  11   75.83    3.22 
  -5   3  11   77.21    3.23 
   5  -3 -11   63.42    3.02 
  -5   3  10    5.85    0.97 
  -5   3  10    5.82    0.96 
   5  -3 -10    5.50    0.78 
   5  -3 -10    4.66    0.90 
  -5   3   9   52.35    2.56 
  -5   3   9   52.01    2.53 
   5  -3  -9   53.19    2.22 
   5  -3  -9   35.03    2.19 
  -5   3   8   22.92    1.69 
  -5   3   8   24.43    1.72 
   5  -3  -8   27.71    1.61 
   5  -3  -8   18.32    1.58 
  -5   3   7   37.53    2.10 
  -5   3   7   39.12    2.12 
   5  -3  -7   39.22    1.92 
   5  -3  -7   27.68    1.90 
  -5   3   6   53.82    2.47 
  -5   3   6   54.09    2.44 
   5  -3  -6   41.40    2.28 
  -5   3   5   26.62    1.74 
  -5   3   5   29.35    1.79 
  -5   3   5   27.43    1.31 
   5  -3  -5   30.04    1.71 
   5  -3  -5   22.29    1.67 
  -5   3   4   94.31    3.20 
  -5   3   4   96.91    3.20 
  -5   3   4   86.23    2.35 
   5  -3  -4   92.97    3.02 
   5  -3  -4   72.52    2.94 
  -5   3   3    0.74    0.51 
  -5   3   3    0.74    0.47 
  -5   3   3    0.31    0.35 
   5  -3  -3    0.82    0.44 
   5  -3  -3    0.19    0.40 
  -5   3   2  107.28    3.39 
  -5   3   2  111.79    3.40 
  -5   3   2  100.35    2.68 
   5  -3  -2  108.89    3.36 
   5  -3  -2   91.81    3.23 
  -5   3   1   11.16    1.16 
  -5   3   1   12.80    1.20 
  -5   3   1   12.46    1.00 
   5  -3  -1   11.54    1.14 
   5  -3  -1    9.41    1.07 
  -5   3   0   68.00    2.72 
  -5   3   0   73.59    2.78 
  -5   3   0   60.28    2.20 
   5  -3   0   65.84    2.69 
   5  -3   0   55.15    2.46 
  -5   3  -1   42.56    2.18 
  -5   3  -1   37.02    1.45 
  -5   3  -1   44.81    2.20 
  -5   3  -1   41.78    1.89 
   5  -3   1   41.91    2.18 
   5  -3   1   37.56    2.02 
  -5   3  -2   30.62    1.88 
  -5   3  -2   29.07    1.37 
  -5   3  -2   30.76    1.85 
  -5   3  -2   26.98    1.58 
   5  -3   2   27.17    1.80 
   5  -3   2   28.74    1.76 
  -5   3  -3   64.38    2.74 
  -5   3  -3   53.64    1.95 
  -5   3  -3   65.74    2.72 
  -5   3  -3   60.35    2.43 
   5  -3   3   57.13    2.64 
   5  -3   3   60.84    2.51 
  -5   3  -4    4.73    0.87 
  -5   3  -4    3.43    0.60 
  -5   3  -4    3.76    0.78 
  -5   3  -4    3.62    0.71 
   5  -3   4    3.95    0.79 
   5  -3   4    4.24    0.74 
  -5   3  -5   49.49    2.50 
  -5   3  -5   44.78    1.97 
  -5   3  -5   48.45    2.43 
  -5   3  -5   49.03    2.34 
  -5   3  -5   48.79    2.20 
   5  -3   5   43.97    2.42 
  -5   3  -6    0.07    0.48 
  -5   3  -6    0.15    0.36 
  -5   3  -6   -0.15    0.40 
  -5   3  -6    0.04    0.39 
  -5   3  -6    0.11    0.37 
   5  -3   6   -0.08    0.38 
  -5   3  -7   39.32    2.33 
  -5   3  -7   38.95    2.02 
  -5   3  -7   35.24    2.18 
  -5   3  -7   36.31    2.16 
  -5   3  -7   45.17    2.07 
   5  -3   7   38.73    2.37 
  -5   3  -8   12.53    1.41 
  -5   3  -8   10.75    1.16 
  -5   3  -8   12.49    1.38 
  -5   3  -8   12.80    1.37 
   5  -3   8    9.62    1.26 
  -5   3  -9   40.91    2.50 
  -5   3  -9   41.13    2.26 
  -5   3  -9   39.92    2.44 
  -5   3  -9   40.70    2.45 
   5  -3   9   36.47    2.41 
  -5   3 -10   17.92    1.74 
  -5   3 -10   16.96    1.55 
  -5   3 -10   19.75    1.79 
   5  -3  10   16.57    1.70 
  -5   3 -11    7.44    1.23 
  -5   3 -11    7.06    1.10 
   5  -3  11    7.07    1.20 
  -5   2  15   22.03    1.91 
   5  -2 -15   19.51    1.75 
  -5   2  14   15.28    1.56 
   5  -2 -14   14.71    1.51 
  -5   2  13    9.36    1.21 
  -5   2  13    8.50    1.17 
   5  -2 -13    8.54    1.17 
  -5   2  12   47.41    2.52 
  -5   2  12   46.00    2.48 
   5  -2 -12   36.56    2.25 
  -5   2  11    0.96    0.54 
  -5   2  11    0.64    0.50 
   5  -2 -11    0.82    0.46 
   5  -2 -11    0.58    0.49 
  -5   2  10   44.99    2.33 
  -5   2  10   41.88    2.23 
   5  -2 -10   44.27    2.04 
   5  -2 -10   35.56    2.16 
  -5   2   9    7.89    1.01 
  -5   2   9    8.30    1.01 
   5  -2  -9    8.20    0.93 
   5  -2  -9    5.29    0.89 
  -5   2   8   74.71    2.84 
  -5   2   8   69.79    2.72 
  -5   2   8   73.73    2.25 
   5  -2  -8   71.09    2.55 
   5  -2  -8   53.79    2.57 
  -5   2   7   19.83    1.46 
  -5   2   7   20.14    1.45 
  -5   2   7   21.64    1.23 
   5  -2  -7    8.35    0.89 
   5  -2  -7   15.22    1.38 
  -5   2   6   88.25    2.97 
  -5   2   6   94.20    3.03 
  -5   2   6   90.48    2.46 
   5  -2  -6   87.61    2.84 
   5  -2  -6   67.03    2.78 
  -5   2   5   91.37    2.98 
  -5   2   5   95.23    2.13 
  -5   2   5   93.84    2.97 
  -5   2   5   87.71    2.43 
   5  -2  -5   83.58    2.78 
   5  -2  -5   67.24    2.75 
  -5   2   4   38.77    1.93 
  -5   2   4   39.13    1.35 
  -5   2   4   39.39    1.91 
  -5   2   4   38.89    1.63 
   5  -2  -4   37.47    1.88 
   5  -2  -4   27.78    1.76 
  -5   2   3   82.05    2.77 
  -5   2   3   82.10    1.98 
  -5   2   3   86.84    2.79 
  -5   2   3   81.59    2.39 
   5  -2  -3   79.98    2.76 
   5  -2  -3   64.59    2.64 
  -5   2   2    1.11    0.49 
  -5   2   2    0.14    0.28 
  -5   2   2    0.00    0.36 
  -5   2   2    0.05    0.32 
   5  -2  -2    0.26    0.35 
   5  -2  -2    0.32    0.39 
  -5   2   1   73.71    2.62 
  -5   2   1   72.39    1.95 
  -5   2   1   81.07    2.68 
  -5   2   1   69.75    2.29 
   5  -2  -1   65.97    2.55 
   5  -2  -1   57.77    2.44 
  -5   2   0    3.94    0.72 
  -5   2   0    4.33    0.55 
  -5   2   0    4.28    0.71 
  -5   2   0    3.19    0.60 
   5  -2   0    3.85    0.70 
   5  -2   0    4.16    0.73 
  -5   2  -1   86.76    2.88 
  -5   2  -1   78.65    2.19 
  -5   2  -1   86.86    2.82 
  -5   2  -1   82.33    2.62 
   5  -2   1   80.33    2.90 
   5  -2   1   71.01    2.67 
  -5   2  -2   35.38    1.88 
  -5   2  -2   31.28    1.45 
  -5   2  -2   34.58    1.81 
  -5   2  -2   33.57    1.73 
   5  -2   2   29.98    1.81 
   5  -2   2   28.61    1.69 
  -5   2  -3   43.32    2.10 
  -5   2  -3   38.76    1.67 
  -5   2  -3   42.73    2.04 
  -5   2  -3   38.52    1.90 
   5  -2   3   40.69    2.14 
   5  -2   3   38.62    1.94 
  -5   2  -4   54.01    2.39 
  -5   2  -4   49.76    1.98 
  -5   2  -4   54.06    2.34 
  -5   2  -4   49.04    2.21 
  -5   2  -4   49.76    2.18 
   5  -2   4   50.19    2.42 
  -5   2  -5   14.75    1.31 
  -5   2  -5   12.63    1.08 
  -5   2  -5   16.57    1.35 
  -5   2  -5   14.03    1.26 
  -5   2  -5   14.74    1.20 
   5  -2   5   13.51    1.32 
  -5   2  -6   70.93    2.86 
  -5   2  -6   67.34    2.51 
  -5   2  -6   73.52    2.85 
  -5   2  -6   68.44    2.78 
  -5   2  -6   72.98    2.59 
   5  -2   6   65.41    2.88 
  -5   2  -7    0.52    0.50 
  -5   2  -7    0.10    0.37 
  -5   2  -7    0.48    0.49 
  -5   2  -7    0.30    0.44 
  -5   2  -7    0.48    0.39 
   5  -2   7    0.25    0.43 
  -5   2  -8   38.97    2.25 
  -5   2  -8   38.36    2.06 
  -5   2  -8   38.73    2.19 
  -5   2  -8   36.94    2.19 
  -5   2  -8   44.54    1.99 
   5  -2   8   37.52    2.28 
  -5   2  -9    4.75    0.90 
  -5   2  -9    3.71    0.77 
  -5   2  -9    3.39    0.79 
  -5   2  -9    3.99    0.84 
   5  -2   9    3.56    0.82 
  -5   2 -10   29.50    2.09 
  -5   2 -10   29.67    1.98 
  -5   2 -10   28.22    2.06 
   5  -2  10   28.50    2.10 
  -5   2 -11   10.82    1.36 
  -5   2 -11   11.38    1.32 
  -5   2 -11   10.73    1.37 
   5  -2  11   10.43    1.34 
  -5   2 -12   12.15    1.47 
  -5   2 -12   13.07    1.46 
   5  -2  12   12.45    1.49 
  -5   2 -13   14.76    1.66 
  -5   2 -13   15.02    1.61 
   5  -2  13   12.71    1.55 
  -5   1  15    2.42    0.75 
  -5   1  15    3.38    0.78 
   5  -1 -15    2.54    0.74 
  -5   1  14   14.29    1.47 
  -5   1  14   14.90    1.36 
   5  -1 -14   15.61    1.50 
  -5   1  13   13.78    1.40 
  -5   1  13   15.16    1.31 
   5  -1 -13   11.88    1.30 
  -5   1  12   14.16    1.37 
  -5   1  12   15.81    1.27 
  -5   1  12   15.14    1.28 
   5  -1 -12   12.17    1.29 
  -5   1  11   27.65    1.82 
  -5   1  11   27.95    1.56 
  -5   1  11   29.12    1.62 
  -5   1  11   27.07    1.55 
   5  -1 -11   26.68    1.64 
   5  -1 -11   23.92    1.74 
  -5   1  10    6.76    0.93 
  -5   1  10    7.66    0.83 
  -5   1  10    6.38    0.90 
  -5   1  10    7.01    0.82 
  -5   1  10    5.58    0.73 
   5  -1 -10    7.22    0.89 
   5  -1 -10    5.37    0.88 
  -5   1   9   60.36    2.50 
  -5   1   9   66.53    2.21 
  -5   1   9   60.60    2.48 
  -5   1   9   64.27    2.27 
  -5   1   9   56.07    1.97 
   5  -1  -9    0.05    0.15 
   5  -1  -9   45.71    2.31 
  -5   1   8    2.92    0.64 
  -5   1   8    2.92    0.53 
  -5   1   8    2.94    0.63 
  -5   1   8    3.32    0.60 
  -5   1   8    2.33    0.46 
   5  -1  -8    3.40    0.64 
   5  -1  -8    2.30    0.62 
  -5   1   7   68.95    2.53 
  -5   1   7   76.55    2.21 
  -5   1   7   71.14    2.53 
  -5   1   7   71.92    2.32 
  -5   1   7   61.04    1.79 
   5  -1  -7   71.31    2.55 
   5  -1  -7   53.80    2.44 
  -5   1   6   43.62    1.97 
  -5   1   6   45.90    1.67 
  -5   1   6   44.24    1.95 
  -5   1   6   43.98    1.79 
  -5   1   6   35.34    1.26 
   5  -1  -6   40.90    1.93 
   5  -1  -6   34.62    1.94 
  -5   1   5   74.38    2.51 
  -5   1   5   73.25    2.06 
  -5   1   5   75.78    2.49 
  -5   1   5   72.40    2.28 
  -5   1   5   61.78    1.52 
   5  -1  -5   70.95    2.53 
   5  -1  -5   57.31    2.46 
  -5   1   4   75.51    2.49 
  -5   1   4   78.13    2.10 
  -5   1   4   80.56    2.52 
  -5   1   4   76.12    2.34 
   5  -1  -4   59.79    1.34 
   5  -1  -4   72.02    2.55 
   5  -1  -4   56.97    2.43 
  -5   1   3   16.61    1.18 
  -5   1   3   15.47    0.96 
  -5   1   3   16.14    1.14 
  -5   1   3   15.73    1.10 
   5  -1  -3   14.07    1.15 
   5  -1  -3   12.11    1.14 
  -5   1   2   91.81    2.69 
  -5   1   2   95.11    2.33 
  -5   1   2  100.95    2.76 
  -5   1   2   87.89    2.55 
   5  -1  -2   84.30    2.78 
   5  -1  -2   72.07    2.67 
  -5   1   1   17.13    1.19 
  -5   1   1   16.75    1.01 
  -5   1   1   19.13    1.23 
  -5   1   1   17.10    1.16 
   5  -1  -1   14.80    1.20 
   5  -1  -1   12.73    1.14 
  -5   1   0  135.13    3.30 
  -5   1   0  128.80    2.82 
  -5   1   0  139.43    3.26 
  -5   1   0  129.23    3.20 
   5  -1   0  125.14    3.46 
   5  -1   0  109.83    3.25 
  -5   1  -1    0.35    0.40 
  -5   1  -1    0.13    0.33 
  -5   1  -1    0.23    0.39 
  -5   1  -1    0.25    0.37 
   5  -1   1    0.91    0.43 
   5  -1   1    0.19    0.37 
  -5   1  -2  128.64    3.29 
  -5   1  -2  119.76    2.88 
  -5   1  -2  131.22    3.24 
  -5   1  -2  113.56    3.13 
  -5   1  -2  103.25    3.10 
   5  -1   2  118.48    3.46 
   5  -1   2  108.21    3.18 
  -5   1  -3   36.95    1.81 
  -5   1  -3   32.95    1.56 
  -5   1  -3   33.41    1.67 
  -5   1  -3   32.71    1.73 
  -5   1  -3   32.01    1.72 
   5  -1   3   39.09    1.10 
   5  -1   3   30.04    1.77 
  -5   1  -4  106.80    3.12 
  -5   1  -4   98.92    2.80 
  -5   1  -4  111.17    3.10 
  -5   1  -4  101.53    3.12 
  -5   1  -4   98.83    2.99 
   5  -1   4  126.29    2.26 
   5  -1   4  103.89    3.34 
  -5   1  -5   68.32    2.55 
  -5   1  -5   65.33    2.36 
  -5   1  -5   67.94    2.48 
  -5   1  -5   67.27    2.61 
  -5   1  -5   60.12    2.32 
   5  -1   5   75.79    1.88 
   5  -1   5   64.14    2.67 
  -5   1  -6   23.46    1.56 
  -5   1  -6   21.64    1.43 
  -5   1  -6   24.83    1.56 
  -5   1  -6   22.16    1.56 
  -5   1  -6    4.32    0.64 
   5  -1   6   26.95    1.21 
   5  -1   6   21.32    1.59 
  -5   1  -7   45.50    2.21 
  -5   1  -7   44.66    2.11 
  -5   1  -7   47.83    2.21 
  -5   1  -7   48.28    2.35 
  -5   1  -7   47.72    2.04 
   5  -1   7   54.25    1.84 
   5  -1   7   49.38    2.45 
  -5   1  -8    3.66    0.75 
  -5   1  -8    2.46    0.62 
  -5   1  -8    2.92    0.68 
  -5   1  -8    2.65    0.69 
  -5   1  -8    2.81    0.58 
   5  -1   8    2.82    0.53 
   5  -1   8    2.72    0.68 
  -5   1  -9   66.15    2.83 
  -5   1  -9   67.42    2.79 
  -5   1  -9   63.07    2.86 
  -5   1  -9   70.39    2.44 
   5  -1   9   75.40    2.46 
   5  -1   9   62.64    2.88 
  -5   1 -10    0.39    0.49 
  -5   1 -10    0.26    0.45 
  -5   1 -10   -0.10    0.45 
   5  -1  10    0.89    0.44 
   5  -1  10    0.29    0.47 
  -5   1 -11   50.90    2.65 
  -5   1 -11   51.49    2.63 
  -5   1 -11   51.73    2.76 
   5  -1  11   53.04    2.29 
   5  -1  11   48.97    2.67 
  -5   1 -12    4.56    0.93 
  -5   1 -12    4.25    0.91 
  -5   1 -12    4.80    0.99 
   5  -1  12    4.14    0.77 
   5  -1  12    4.08    0.89 
  -5   1 -13   19.13    1.78 
  -5   1 -13   21.96    1.88 
   5  -1  13   18.73    1.77 
  -5   1 -14   15.86    1.69 
  -5   1 -14   16.65    1.72 
   5  -1  14   14.87    1.63 
  -5   0  16    0.07    0.49 
  -5   0  16    0.58    0.57 
   5   0 -16    0.39    0.55 
  -5   0  15   22.65    1.85 
  -5   0  15   24.98    1.88 
   5   0 -15   25.41    1.95 
   5   0 -15   24.27    1.79 
  -5   0  14   -0.08    0.40 
  -5   0  14    0.01    0.41 
  -5   0  14    0.08    0.45 
   5   0 -14    0.02    0.45 
   5   0 -14   -0.03    0.42 
  -5   0  13   27.65    1.89 
  -5   0  13   31.94    1.91 
  -5   0  13   29.86    1.83 
  -5   0  13   29.58    1.87 
  -5   0  13   29.72    1.83 
   5   0 -13   25.64    1.82 
   5   0 -13   27.08    1.84 
  -5   0  12    6.59    0.94 
  -5   0  12    8.63    1.00 
  -5   0  12    7.68    0.95 
  -5   0  12    6.51    0.91 
  -5   0  12    7.38    0.96 
   5   0 -12    6.90    0.98 
  -5   0  11   33.71    1.93 
  -5   0  11   33.35    1.80 
  -5   0  11   35.25    1.87 
  -5   0  11   31.17    1.75 
  -5   0  11   32.93    1.86 
   5   0 -11   18.45    1.39 
   5   0 -11   28.55    1.83 
  -5   0  10   38.62    1.99 
  -5   0  10   41.03    1.93 
  -5   0  10   40.48    1.95 
  -5   0  10   37.13    1.81 
   5   0 -10   34.38    1.75 
   5   0 -10   38.80    1.98 
   5   0 -10   31.78    1.91 
  -5   0   9   11.05    1.06 
  -5   0   9   12.62    1.06 
  -5   0   9   10.59    1.01 
  -5   0   9    9.46    0.90 
   5   0  -9   10.36    0.94 
   5   0  -9   11.36    1.09 
   5   0  -9    9.44    1.06 
  -5   0   8   56.54    2.24 
  -5   0   8   59.93    2.17 
  -5   0   8   57.20    2.23 
  -5   0   8   59.35    2.25 
   5   0  -8   50.62    1.90 
   5   0  -8   53.06    2.24 
   5   0  -8   46.10    2.22 
  -5   0   7    0.27    0.35 
  -5   0   7    0.10    0.32 
  -5   0   7    0.06    0.33 
  -5   0   7   -0.07    0.32 
   5   0  -7    0.23    0.29 
   5   0  -7   -0.07    0.32 
   5   0  -7    0.36    0.41 
  -5   0   6   89.25    2.64 
  -5   0   6   90.43    2.52 
  -5   0   6   85.61    2.54 
  -5   0   6   89.39    2.66 
   5   0  -6   73.91    2.05 
   5   0  -6   85.92    2.79 
   5   0  -6   66.26    2.59 
  -5   0   5    3.88    0.60 
  -5   0   5    3.78    0.58 
  -5   0   5    3.96    0.59 
  -5   0   5    3.03    0.58 
   5   0  -5    2.90    0.44 
   5   0  -5    2.58    0.58 
   5   0  -5    3.41    0.67 
  -5   0   4  156.91    3.36 
  -5   0   4  157.24    3.23 
  -5   0   4  165.17    3.37 
  -5   0   4  149.57    3.40 
   5   0  -4  140.75    2.56 
   5   0  -4  146.45    3.63 
   5   0  -4  116.54    3.38 
  -5   0   3   27.99    1.38 
  -5   0   3   29.58    1.38 
  -5   0   3   29.77    1.39 
  -5   0   3   27.72    1.46 
   5   0  -3   25.81    1.02 
   5   0  -3   25.01    1.50 
   5   0  -3   22.75    1.49 
  -5   0   2   71.41    2.18 
  -5   0   2   68.41    2.08 
  -5   0   2   70.60    2.10 
  -5   0   2   66.56    2.24 
   5   0  -2   67.86    1.58 
   5   0  -2   65.90    2.42 
   5   0  -2   52.33    2.21 
  -5   0   1   84.32    2.36 
  -5   0   1   82.58    2.30 
  -5   0   1   86.01    2.30 
  -5   0   1   77.38    2.44 
   5   0  -1   82.37    1.69 
   5   0  -1   71.96    2.54 
   5   0  -1   62.32    2.40 
  -5   0   0   41.42    1.66 
  -5   0   0   40.01    1.63 
  -5   0   0   44.17    1.65 
  -5   0   0   39.09    1.76 
  -5   0   0   30.91    1.68 
   5   0   0   41.22    1.18 
   5   0   0   37.77    1.85 
   5   0   0   30.94    1.68 
  -5   0  -1  168.77    3.42 
  -5   0  -1  166.94    3.41 
  -5   0  -1  173.61    3.35 
  -5   0  -1  154.05    3.57 
  -5   0  -1  133.11    3.47 
   5   0   1  184.80    2.66 
   5   0   1  152.50    3.78 
  -5   0  -2    2.43    0.52 
  -5   0  -2    2.05    0.49 
  -5   0  -2    2.38    0.51 
  -5   0  -2    2.21    0.55 
  -5   0  -2    1.50    0.47 
   5   0   2    2.77    0.38 
   5   0   2    2.41    0.57 
  -5   0  -3  103.20    2.75 
  -5   0  -3   98.96    2.73 
  -5   0  -3   99.56    2.61 
  -5   0  -3   97.53    2.94 
  -5   0  -3   84.51    2.73 
   5   0   3  116.93    2.25 
   5   0   3   91.86    2.98 
  -5   0  -4    4.06    0.64 
  -5   0  -4    3.56    0.62 
  -5   0  -4    4.99    0.67 
  -5   0  -4    4.82    0.75 
  -5   0  -4    4.19    0.68 
   5   0   4    5.08    0.53 
   5   0   4    4.35    0.73 
  -5   0  -5   81.83    2.59 
  -5   0  -5   83.29    2.67 
  -5   0  -5   82.54    2.51 
  -5   0  -5   82.37    2.84 
  -5   0  -5   77.79    2.60 
   5   0   5   96.10    2.27 
   5   0   5   78.70    2.85 
  -5   0  -6   34.48    1.74 
  -5   0  -6   36.35    1.83 
  -5   0  -6   37.76    1.77 
  -5   0  -6   33.37    1.87 
  -5   0  -6   33.58    1.71 
   5   0   6   42.39    1.59 
   5   0   6   34.44    1.92 
  -5   0  -7   50.32    2.17 
  -5   0  -7   51.81    2.25 
  -5   0  -7   53.37    2.17 
  -5   0  -7   53.40    2.42 
  -5   0  -7    7.46    0.81 
   5   0   7   58.12    1.97 
   5   0   7   52.59    2.42 
  -5   0  -8   48.79    2.21 
  -5   0  -8   48.63    2.26 
  -5   0  -8   50.55    2.42 
  -5   0  -8   50.35    2.08 
   5   0   8   55.83    2.04 
   5   0   8   49.65    2.40 
  -5   0  -9   15.37    1.32 
  -5   0  -9   13.76    1.28 
  -5   0  -9   15.26    1.41 
  -5   0  -9   14.05    1.12 
   5   0   9   18.33    1.25 
   5   0   9   14.94    1.38 
  -5   0 -10   84.95    3.13 
  -5   0 -10   84.52    3.20 
  -5   0 -10   92.13    3.48 
  -5   0 -10   94.16    2.82 
   5   0  10   99.32    3.01 
   5   0  10   88.27    3.35 
  -5   0 -11    0.67    0.54 
  -5   0 -11    1.47    0.62 
  -5   0 -11    1.29    0.61 
   5   0  11    1.31    0.51 
   5   0  11    1.19    0.56 
  -5   0 -12   52.53    2.65 
  -5   0 -12   53.89    2.74 
  -5   0 -12   53.20    2.82 
   5   0  12   59.18    2.55 
   5   0  12   54.98    2.78 
  -5   0 -13    3.85    0.86 
  -5   0 -13    4.43    0.93 
  -5   0 -13    4.13    0.92 
   5   0  13   -0.12    0.19 
   5   0  13    3.81    0.87 
  -5   0 -14   21.46    1.85 
  -5   0 -14   21.35    1.90 
   5   0  14   21.21    1.69 
   5   0  14   23.38    1.93 
  -5   0 -15    8.19    1.26 
  -5   0 -15    7.83    1.26 
   5   0  15    8.69    1.18 
   5   0  15    9.27    1.31 
  -5  -1  15    2.28    0.73 
  -5  -1  15    1.97    0.68 
  -5  -1  15    2.63    0.77 
  -5  -1  15    2.23    0.69 
   5   1 -15    2.43    0.73 
  -5  -1  14   31.14    2.05 
  -5  -1  14   32.50    2.07 
  -5  -1  14   32.25    2.11 
  -5  -1  14   32.68    2.04 
  -5  -1  14   35.32    2.04 
   5   1 -14   29.91    1.99 
  -5  -1  13   -0.11    0.39 
  -5  -1  13    0.12    0.42 
  -5  -1  13    0.09    0.43 
  -5  -1  13   -0.16    0.39 
  -5  -1  13    0.05    0.38 
   5   1 -13    0.98    0.54 
  -5  -1  12   52.98    2.47 
  -5  -1  12   50.70    2.42 
  -5  -1  12   53.27    2.48 
  -5  -1  12   50.45    2.41 
   5   1 -12   50.18    2.37 
   5   1 -12   52.73    2.47 
   5   1 -12   48.15    2.32 
  -5  -1  11    3.66    0.70 
  -5  -1  11    3.46    0.70 
  -5  -1  11    4.15    0.75 
  -5  -1  11    3.38    0.71 
   5   1 -11    0.62    0.35 
   5   1 -11    4.01    0.75 
   5   1 -11    3.13    0.69 
  -5  -1  10   36.11    1.86 
  -5  -1  10   36.60    1.93 
  -5  -1  10   40.87    2.05 
  -5  -1  10   35.72    1.95 
   5   1 -10   25.62    1.56 
   5   1 -10   36.25    1.96 
   5   1 -10   32.68    1.87 
  -5  -1   9   19.65    1.33 
  -5  -1   9   19.40    1.37 
  -5  -1   9   20.19    1.42 
   5   1  -9   18.40    1.30 
   5   1  -9   18.83    1.40 
   5   1  -9   14.94    1.27 
  -5  -1   8   20.91    1.31 
  -5  -1   8   22.18    1.42 
  -5  -1   8   24.12    1.51 
   5   1  -8   20.54    1.31 
   5   1  -8   21.04    1.45 
   5   1  -8   18.99    1.41 
  -5  -1   7   45.07    1.82 
  -5  -1   7   45.62    1.95 
  -5  -1   7   43.97    1.97 
   5   1  -7   40.61    1.74 
   5   1  -7   42.01    2.00 
   5   1  -7   35.21    1.87 
  -5  -1   6   25.21    1.32 
  -5  -1   6   26.47    1.46 
  -5  -1   6   25.29    1.31 
  -5  -1   6   26.32    1.51 
   5   1  -6   24.50    1.29 
   5   1  -6   25.45    1.55 
   5   1  -6   18.68    1.37 
  -5  -1   5  168.76    3.33 
  -5  -1   5  162.07    3.53 
  -5  -1   5  165.94    3.23 
  -5  -1   5  159.82    3.66 
   5   1  -5  152.96    3.12 
   5   1  -5  152.83    3.75 
   5   1  -5  121.35    3.40 
  -5  -1   4    0.74    0.35 
  -5  -1   4    0.24    0.36 
  -5  -1   4    0.43    0.30 
  -5  -1   4    0.62    0.40 
  -5  -1   4    0.19    0.34 
   5   1  -4    0.80    0.33 
   5   1  -4    0.81    0.43 
   5   1  -4    0.26    0.37 
  -5  -1   3  158.01    3.03 
  -5  -1   3  147.14    3.25 
  -5  -1   3  157.10    2.93 
  -5  -1   3  142.93    3.39 
  -5  -1   3  112.49    3.21 
   5   1  -3  143.62    2.79 
   5   1  -3  132.56    3.43 
  -5  -1   2   29.15    1.26 
  -5  -1   2   26.54    1.37 
  -5  -1   2   29.39    1.21 
  -5  -1   2   26.76    1.46 
  -5  -1   2   21.15    1.40 
   5   1  -2   28.37    1.19 
   5   1  -2   24.00    1.46 
  -5  -1   1  120.08    2.54 
  -5  -1   1  121.44    2.92 
  -5  -1   1  125.89    2.50 
  -5  -1   1  119.76    3.09 
  -5  -1   1   89.28    2.82 
   5   1  -1  118.51    2.39 
   5   1  -1  110.51    3.11 
  -5  -1   0   98.83    2.30 
  -5  -1   0   94.28    2.58 
  -5  -1   0   98.58    2.19 
  -5  -1   0   95.35    2.77 
  -5  -1   0   71.28    2.50 
   5   1   0  102.98    2.20 
   5   1   0   86.46    2.75 
  -5  -1  -1   56.62    1.75 
  -5  -1  -1   55.31    1.99 
  -5  -1  -1   57.86    1.68 
  -5  -1  -1   56.67    2.15 
  -5  -1  -1   47.30    2.03 
   5   1   1   62.41    1.70 
   5   1   1   54.63    2.20 
  -5  -1  -2  106.45    2.47 
  -5  -1  -2  102.46    2.76 
  -5  -1  -2  108.37    2.37 
  -5  -1  -2  102.99    2.95 
  -5  -1  -2   83.31    2.69 
   5   1   2  118.88    2.42 
   5   1   2   98.88    2.98 
  -5  -1  -3   12.09    0.88 
  -5  -1  -3   13.16    1.04 
  -5  -1  -3   12.60    0.85 
  -5  -1  -3   12.33    1.08 
  -5  -1  -3   10.88    1.00 
   5   1   3   14.54    0.88 
   5   1   3   12.45    1.10 
  -5  -1  -4  149.79    3.13 
  -5  -1  -4  153.90    3.57 
  -5  -1  -4  152.10    3.02 
  -5  -1  -4  149.07    3.70 
  -5  -1  -4  126.96    3.32 
   5   1   4  179.84    3.21 
   5   1   4  150.25    3.78 
  -5  -1  -5    2.19    0.50 
  -5  -1  -5    2.14    0.55 
  -5  -1  -5    2.42    0.48 
  -5  -1  -5    2.21    0.59 
  -5  -1  -5    1.74    0.49 
   5   1   5    2.66    0.47 
   5   1   5    2.34    0.57 
  -5  -1  -6  119.18    3.00 
  -5  -1  -6  125.54    3.40 
  -5  -1  -6  123.26    2.93 
  -5  -1  -6  129.50    3.61 
  -5  -1  -6  118.75    3.21 
   5   1   6  149.68    3.16 
   5   1   6  122.73    3.51 
  -5  -1  -7   13.36    1.07 
  -5  -1  -7   15.20    1.25 
  -5  -1  -7   13.61    1.23 
  -5  -1  -7   12.08    1.05 
   5   1   7   15.95    1.08 
   5   1   7   13.33    1.20 
  -5  -1  -8   31.18    1.66 
  -5  -1  -8   32.58    1.85 
  -5  -1  -8   29.17    1.81 
  -5  -1  -8   29.04    1.59 
   5   1   8   33.94    1.63 
   5   1   8   30.45    1.82 
  -5  -1  -9   45.12    2.07 
  -5  -1  -9   48.99    2.34 
  -5  -1  -9   46.10    2.34 
  -5  -1  -9   47.58    2.03 
   5   1   9   54.52    2.16 
   5   1   9   48.65    2.34 
  -5  -1 -10   20.76    1.49 
  -5  -1 -10   23.64    1.70 
  -5  -1 -10   22.70    1.71 
  -5  -1 -10   24.76    1.48 
   5   1  10   19.47    1.36 
   5   1  10   22.76    1.66 
  -5  -1 -11   63.68    2.67 
  -5  -1 -11   69.70    2.98 
  -5  -1 -11   71.08    3.08 
  -5  -1 -11   71.73    2.50 
   5   1  11   42.96    2.09 
   5   1  11   66.88    2.86 
  -5  -1 -12    1.45    0.59 
  -5  -1 -12    1.15    0.58 
  -5  -1 -12    1.58    0.63 
  -5  -1 -12    1.37    0.48 
   5   1  12    2.01    0.61 
   5   1  12    1.73    0.61 
  -5  -1 -13   38.23    2.25 
  -5  -1 -13   46.78    2.62 
  -5  -1 -13   46.56    2.66 
   5   1  13   47.04    2.39 
   5   1  13   45.63    2.48 
  -5  -1 -14    1.04    0.59 
  -5  -1 -14    0.75    0.59 
  -5  -1 -14    1.01    0.61 
   5   1  14    1.06    0.57 
   5   1  14    1.85    0.68 
  -5  -1 -15   25.72    2.01 
  -5  -1 -15   27.52    2.17 
   5   1  15   29.38    2.06 
   5   1  15   26.36    2.00 
  -5  -1 -16    3.97    0.95 
  -5  -1 -16    4.72    1.07 
   5   1  16    3.40    0.87 
   5   1  16    2.92    0.82 
  -5  -2  15   16.30    1.64 
  -5  -2  15   12.96    1.45 
  -5  -2  15   13.43    1.52 
  -5  -2  15   14.03    1.47 
   5   2 -15   13.42    1.41 
  -5  -2  14   10.05    1.27 
  -5  -2  14   10.06    1.27 
  -5  -2  14    9.50    1.25 
  -5  -2  14    8.98    1.17 
   5   2 -14    8.50    1.10 
   5   2 -14   10.04    1.30 
  -5  -2  13   30.54    2.05 
  -5  -2  13   33.75    2.14 
  -5  -2  13   29.25    1.96 
  -5  -2  13   31.73    1.85 
   5   2 -13    0.04    0.18 
   5   2 -13   32.30    2.11 
  -5  -2  12    1.05    0.56 
  -5  -2  12    1.08    0.54 
  -5  -2  12    0.79    0.51 
  -5  -2  12    1.49    0.53 
   5   2 -12    0.81    0.49 
   5   2 -12    1.67    0.64 
  -5  -2  11   46.40    2.35 
  -5  -2  11   43.05    2.27 
  -5  -2  11   43.76    2.28 
  -5  -2  11   47.07    2.20 
   5   2 -11   42.15    2.04 
   5   2 -11   45.61    2.31 
  -5  -2  10    3.42    0.71 
  -5  -2  10    2.83    0.65 
  -5  -2  10    2.10    0.61 
  -5  -2  10    2.68    0.61 
   5   2 -10    3.22    0.62 
   5   2 -10    2.49    0.64 
  -5  -2   9   54.93    2.12 
  -5  -2   9   51.73    2.32 
  -5  -2   9   49.05    2.28 
  -5  -2   9   49.82    2.32 
  -5  -2   9   50.83    2.24 
   5   2  -9   54.76    2.11 
   5   2  -9   49.89    2.22 
   5   2  -9   49.50    2.31 
  -5  -2   8    5.56    0.70 
  -5  -2   8    6.05    0.83 
  -5  -2   8    4.78    0.76 
  -5  -2   8    4.31    0.71 
   5   2  -8    5.05    0.67 
   5   2  -8    5.33    0.76 
   5   2  -8    5.43    0.81 
  -5  -2   7   39.04    1.62 
  -5  -2   7   37.54    1.87 
  -5  -2   7   39.09    1.94 
  -5  -2   7   31.96    1.74 
   5   2  -7   38.04    1.79 
   5   2  -7   32.64    1.81 
  -5  -2   6   60.61    1.91 
  -5  -2   6   59.14    2.27 
  -5  -2   6   56.78    2.28 
  -5  -2   6   45.64    2.06 
   5   2  -6    0.06    0.13 
   5   2  -6   50.69    2.21 
  -5  -2   5    4.80    0.56 
  -5  -2   5    3.95    0.66 
  -5  -2   5    4.99    0.57 
  -5  -2   5    3.93    0.68 
  -5  -2   5    3.16    0.62 
   5   2  -5    4.32    0.62 
   5   2  -5    4.49    0.72 
  -5  -2   4  135.87    2.63 
  -5  -2   4  130.65    3.26 
  -5  -2   4  139.87    2.60 
  -5  -2   4  132.35    3.39 
  -5  -2   4  100.23    3.01 
   5   2  -4  125.52    2.93 
   5   2  -4  114.06    3.23 
  -5  -2   3    6.07    0.56 
  -5  -2   3    5.82    0.74 
  -5  -2   3    5.97    0.54 
  -5  -2   3    5.50    0.75 
  -5  -2   3    3.79    0.64 
   5   2  -3    5.62    0.65 
   5   2  -3    5.48    0.76 
  -5  -2   2  154.47    2.60 
  -5  -2   2  141.42    3.30 
  -5  -2   2  154.64    2.49 
  -5  -2   2  137.95    3.40 
  -5  -2   2  107.26    3.08 
   5   2  -2  146.89    3.01 
   5   2  -2  129.15    3.38 
  -5  -2   1   26.02    1.02 
  -5  -2   1   24.15    1.37 
  -5  -2   1   25.54    0.95 
  -5  -2   1   23.84    1.42 
  -5  -2   1   18.53    1.28 
   5   2  -1   26.12    1.24 
   5   2  -1   22.35    1.41 
  -5  -2   0  132.65    2.34 
  -5  -2   0  122.71    3.06 
  -5  -2   0  133.43    2.18 
  -5  -2   0  123.73    3.20 
  -5  -2   0   97.17    2.90 
   5   2   0  135.09    2.80 
   5   2   0  120.01    3.23 
  -5  -2  -1   74.58    1.75 
  -5  -2  -1   72.82    2.36 
  -5  -2  -1   73.57    1.60 
  -5  -2  -1   72.71    2.46 
  -5  -2  -1   51.81    2.11 
   5   2   1   79.42    2.12 
   5   2   1   70.77    2.47 
  -5  -2  -2   98.32    2.07 
  -5  -2  -2   98.08    2.77 
  -5  -2  -2   97.19    1.91 
  -5  -2  -2   95.76    2.85 
  -5  -2  -2   78.99    2.60 
   5   2   2  110.82    2.54 
   5   2   2   93.79    2.85 
  -5  -2  -3  122.53    2.42 
  -5  -2  -3  130.15    3.25 
  -5  -2  -3  123.10    2.26 
  -5  -2  -3  127.35    3.34 
  -5  -2  -3  104.16    2.99 
   5   2   3  141.81    2.94 
   5   2   3  126.53    3.35 
  -5  -2  -4   24.91    1.14 
  -5  -2  -4   26.85    1.52 
  -5  -2  -4   24.64    1.06 
  -5  -2  -4   27.55    1.59 
  -5  -2  -4   22.32    1.40 
   5   2   4   32.66    1.43 
   5   2   4   28.18    1.60 
  -5  -2  -5  139.94    2.85 
  -5  -2  -5  153.67    3.69 
  -5  -2  -5  156.47    3.85 
  -5  -2  -5  128.30    3.35 
   5   2   5  177.35    3.48 
   5   2   5  148.43    3.70 
  -5  -2  -6    0.74    0.36 
  -5  -2  -6    0.81    0.46 
  -5  -2  -6    0.31    0.42 
  -5  -2  -6    0.61    0.39 
   5   2   6    1.79    0.45 
   5   2   6    1.09    0.46 
  -5  -2  -7  117.55    2.87 
  -5  -2  -7  138.21    3.69 
  -5  -2  -7  139.79    3.80 
  -5  -2  -7  123.75    3.31 
   5   2   7   77.98    2.43 
   5   2   7  137.13    3.66 
  -5  -2  -8    3.39    0.59 
  -5  -2  -8    3.02    0.66 
  -5  -2  -8    3.23    0.69 
  -5  -2  -8    3.38    0.64 
   5   2   8    1.13    0.36 
   5   2   8    3.17    0.64 
  -5  -2  -9   47.02    1.99 
  -5  -2  -9   51.41    2.38 
  -5  -2  -9   49.75    2.38 
  -5  -2  -9   47.00    2.05 
   5   2   9   59.41    2.30 
   5   2   9   56.24    2.42 
  -5  -2 -10   17.52    1.30 
  -5  -2 -10   19.51    1.55 
  -5  -2 -10   20.35    1.59 
  -5  -2 -10    6.14    0.76 
   5   2  10   21.15    1.45 
   5   2  10   20.92    1.52 
  -5  -2 -11   44.60    2.13 
  -5  -2 -11   51.41    2.54 
  -5  -2 -11   53.13    2.61 
  -5  -2 -11   55.45    2.25 
   5   2  11   59.96    2.50 
   5   2  11   52.35    2.43 
  -5  -2 -12   34.26    1.96 
  -5  -2 -12   42.13    2.38 
  -5  -2 -12   43.14    2.43 
  -5  -2 -12   42.17    1.97 
   5   2  12   45.00    2.26 
   5   2  12   46.51    2.35 
  -5  -2 -13    4.71    0.84 
  -5  -2 -13    4.69    0.92 
  -5  -2 -13    4.40    0.90 
  -5  -2 -13    4.95    0.75 
   5   2  13    5.36    0.90 
   5   2  13    5.04    0.87 
  -5  -2 -14   24.26    1.80 
  -5  -2 -14   26.82    2.05 
  -5  -2 -14   28.69    2.11 
   5   2  14   27.80    1.94 
   5   2  14   27.83    1.92 
  -5  -2 -15    0.29    0.52 
  -5  -2 -15   -0.06    0.50 
  -5  -2 -15    0.33    0.52 
   5   2  15    0.15    0.49 
   5   2  15    0.47    0.50 
  -5  -2 -16   27.55    2.08 
  -5  -2 -16   30.68    2.34 
   5   2  16   31.78    2.23 
   5   2  16   31.62    2.14 
  -5  -3  15   16.30    1.70 
  -5  -3  15   18.58    1.83 
  -5  -3  15   18.22    1.72 
   5   3 -15    0.19    0.29 
   5   3 -15   18.89    1.84 
  -5  -3  14   15.05    1.59 
  -5  -3  14   17.01    1.67 
  -5  -3  14   15.17    1.54 
   5   3 -14   14.68    1.41 
   5   3 -14   18.69    1.77 
  -5  -3  13   14.60    1.52 
  -5  -3  13   13.65    1.46 
  -5  -3  13   15.54    1.52 
   5   3 -13   14.23    1.32 
   5   3 -13   13.26    1.46 
  -5  -3  12   50.05    2.63 
  -5  -3  12   45.69    2.50 
  -5  -3  12   42.64    2.39 
  -5  -3  12   47.59    2.17 
   5   3 -12   42.52    2.12 
   5   3 -12   49.72    2.60 
  -5  -3  11    4.13    0.83 
  -5  -3  11    2.86    0.72 
  -5  -3  11    2.93    0.72 
  -5  -3  11    3.41    0.67 
   5   3 -11    3.12    0.64 
   5   3 -11    4.04    0.84 
  -5  -3  10   54.91    2.58 
  -5  -3  10   54.42    2.58 
  -5  -3  10   49.35    2.45 
  -5  -3  10   49.30    2.18 
   5   3 -10   51.18    2.10 
   5   3 -10   56.32    2.57 
  -5  -3   9   -0.13    0.38 
  -5  -3   9   -0.05    0.37 
  -5  -3   9   -0.10    0.35 
  -5  -3   9   -0.11    0.31 
   5   3  -9   -0.02    0.30 
   5   3  -9    0.79    0.47 
  -5  -3   8   71.71    2.77 
  -5  -3   8   69.12    2.75 
  -5  -3   8   64.71    2.67 
  -5  -3   8   63.05    2.43 
   5   3  -8   73.87    2.26 
   5   3  -8   68.05    2.63 
   5   3  -8   63.44    2.64 
  -5  -3   7   15.49    1.00 
  -5  -3   7   15.63    1.29 
  -5  -3   7   13.00    1.19 
  -5  -3   7   11.76    1.07 
   5   3  -7   14.92    0.97 
   5   3  -7   14.53    1.21 
   5   3  -7   13.06    1.20 
  -5  -3   6   51.71    1.67 
  -5  -3   6   47.24    2.14 
  -5  -3   6   47.99    2.18 
  -5  -3   6   39.21    1.89 
   5   3  -6   48.62    2.07 
   5   3  -6   42.38    2.07 
  -5  -3   5   13.87    0.82 
  -5  -3   5   12.63    1.12 
  -5  -3   5   11.68    1.09 
  -5  -3   5   10.25    0.99 
   5   3  -5   12.66    1.06 
   5   3  -5   10.29    1.04 
  -5  -3   4   59.71    1.54 
  -5  -3   4   53.70    2.18 
  -5  -3   4   57.29    1.49 
  -5  -3   4   53.28    2.21 
  -5  -3   4   42.48    1.94 
   5   3  -4   54.54    2.06 
   5   3  -4   45.00    2.07 
  -5  -3   3   81.06    1.67 
  -5  -3   3   70.94    2.46 
  -5  -3   3   81.53    1.62 
  -5  -3   3   72.43    2.54 
  -5  -3   3   52.70    2.15 
   5   3  -3   72.09    2.31 
   5   3  -3   66.99    2.48 
  -5  -3   2    4.39    0.39 
  -5  -3   2    4.16    0.67 
  -5  -3   2    4.90    0.38 
  -5  -3   2    4.47    0.70 
  -5  -3   2    3.37    0.61 
   5   3  -2    6.31    0.73 
   5   3  -2    3.57    0.65 
  -5  -3   1   94.43    1.59 
  -5  -3   1   84.52    2.63 
  -5  -3   1   92.11    1.41 
  -5  -3   1   87.27    2.74 
  -5  -3   1   63.22    2.34 
   5   3  -1   86.94    2.44 
   5   3  -1   74.56    2.56 
  -5  -3   0    2.92    0.31 
  -5  -3   0    2.36    0.55 
  -5  -3   0    3.34    0.62 
  -5  -3   0    2.12    0.51 
   5   3   0    1.65    0.40 
   5   3   0    2.41    0.55 
  -5  -3  -1  102.08    1.64 
  -5  -3  -1  105.22    2.93 
  -5  -3  -1  103.27    2.98 
  -5  -3  -1   81.06    2.65 
   5   3   1   41.17    1.64 
   5   3   1   96.89    2.89 
  -5  -3  -2   23.86    0.82 
  -5  -3  -2   25.76    1.48 
  -5  -3  -2   26.50    1.53 
  -5  -3  -2   20.08    1.34 
   5   3   2   13.56    0.95 
   5   3   2   25.63    1.49 
  -5  -3  -3   87.02    1.70 
  -5  -3  -3  106.53    3.00 
  -5  -3  -3  104.24    3.03 
  -5  -3  -3   79.98    2.64 
   5   3   3  100.71    2.62 
   5   3   3   97.92    2.90 
  -5  -3  -4   56.86    1.47 
  -5  -3  -4   70.99    2.48 
  -5  -3  -4   66.59    2.45 
  -5  -3  -4   56.69    2.23 
   5   3   4   78.04    2.34 
   5   3   4   69.59    2.45 
  -5  -3  -5   35.47    1.26 
  -5  -3  -5   45.88    2.04 
  -5  -3  -5   47.18    2.10 
  -5  -3  -5   37.86    1.83 
   5   3   5   49.76    1.91 
   5   3   5   43.39    1.95 
  -5  -3  -6   78.58    2.01 
  -5  -3  -6  105.71    3.16 
  -5  -3  -6  101.52    3.14 
  -5  -3  -6   84.82    2.75 
   5   3   6  112.66    2.96 
   5   3   6  102.83    3.04 
  -5  -3  -7    6.53    0.66 
  -5  -3  -7    7.99    0.96 
  -5  -3  -7    8.19    0.97 
  -5  -3  -7    7.66    0.88 
   5   3   7    8.28    0.87 
   5   3   7    7.98    0.90 
  -5  -3  -8   39.21    1.61 
  -5  -3  -8   50.17    2.29 
  -5  -3  -8   51.60    2.34 
  -5  -3  -8   42.10    1.97 
   5   3   8   54.41    2.18 
   5   3   8   47.97    2.12 
  -5  -3  -9    4.99    0.67 
  -5  -3  -9    4.96    0.82 
  -5  -3  -9    5.35    0.84 
  -5  -3  -9    5.31    0.77 
   5   3   9    6.37    0.83 
   5   3   9    5.98    0.82 
  -5  -3 -10   52.44    2.09 
  -5  -3 -10   66.37    2.78 
  -5  -3 -10   62.73    2.71 
  -5  -3 -10   56.68    2.32 
   5   3  10   70.82    2.67 
   5   3  10   66.41    2.58 
  -5  -3 -11   15.63    1.23 
  -5  -3 -11   21.17    1.65 
  -5  -3 -11   18.49    1.55 
  -5  -3 -11   19.77    1.40 
   5   3  11   21.24    1.54 
   5   3  11   19.62    1.46 
  -5  -3 -12   35.23    1.90 
  -5  -3 -12   37.32    2.24 
  -5  -3 -12   39.46    2.28 
  -5  -3 -12   38.02    1.93 
   5   3  12   42.05    2.22 
   5   3  12   41.49    2.13 
  -5  -3 -13   27.97    1.78 
  -5  -3 -13   32.30    2.15 
  -5  -3 -13   34.17    2.19 
  -5  -3 -13   31.31    1.77 
   5   3  13   32.87    2.04 
   5   3  13   33.67    1.97 
  -5  -3 -14   13.18    1.31 
  -5  -3 -14   14.33    1.51 
  -5  -3 -14   16.92    1.62 
  -5  -3 -14   16.29    1.31 
   5   3  14   16.01    1.52 
   5   3  14   18.01    1.49 
  -5  -3 -15   26.27    1.89 
  -5  -3 -15   29.05    2.18 
  -5  -3 -15   27.95    2.12 
   5   3  15   28.22    2.04 
   5   3  15   29.49    1.93 
  -5  -3 -16    1.21    0.64 
  -5  -3 -16    1.74    0.74 
   5   3  16    1.31    0.67 
   5   3  16    1.89    0.65 
  -5  -3 -17   26.87    2.08 
   5   3  17   31.43    2.31 
  -5  -4  14   17.65    1.77 
  -5  -4  14   14.86    1.58 
   5   4 -14   18.72    1.84 
  -5  -4  13    8.40    1.23 
  -5  -4  13    7.10    1.13 
   5   4 -13    8.00    1.22 
  -5  -4  12   15.25    1.55 
  -5  -4  12   15.57    1.56 
  -5  -4  12   13.30    1.44 
   5   4 -12   13.14    1.21 
   5   4 -12   15.01    1.53 
  -5  -4  11   30.56    2.09 
  -5  -4  11   28.07    2.00 
  -5  -4  11   27.39    1.96 
  -5  -4  11   27.53    1.62 
   5   4 -11   28.67    1.66 
   5   4 -11   28.14    1.99 
  -5  -4  10    7.61    1.07 
  -5  -4  10    8.59    1.13 
  -5  -4  10    7.22    1.04 
  -5  -4  10    8.24    0.93 
   5   4 -10    7.48    0.85 
   5   4 -10    7.42    1.05 
  -5  -4   9   56.87    2.66 
  -5  -4   9   52.13    2.56 
  -5  -4   9   51.34    2.53 
  -5  -4   9   48.13    2.11 
   5   4  -9   49.85    1.94 
   5   4  -9   55.13    2.58 
  -5  -4   8    1.09    0.52 
  -5  -4   8    1.03    0.51 
  -5  -4   8    0.89    0.48 
  -5  -4   8    0.39    0.37 
   5   4  -8    1.31    0.39 
   5   4  -8    1.03    0.52 
  -5  -4   7   69.61    2.78 
  -5  -4   7   67.24    2.75 
  -5  -4   7   59.80    2.60 
  -5  -4   7   56.35    2.26 
   5   4  -7   67.24    1.96 
   5   4  -7   68.53    2.69 
  -5  -4   6    6.14    0.87 
  -5  -4   6    5.69    0.83 
  -5  -4   6    4.40    0.76 
  -5  -4   6    4.13    0.68 
   5   4  -6    5.97    0.58 
   5   4  -6    6.55    0.87 
   5   4  -6    4.20    0.75 
  -5  -4   5   43.22    1.32 
  -5  -4   5   40.96    2.04 
  -5  -4   5   43.96    2.13 
  -5  -4   5   35.28    1.78 
   5   4  -5   43.83    2.03 
   5   4  -5   35.34    1.92 
  -5  -4   4   56.70    1.35 
  -5  -4   4   53.20    2.27 
  -5  -4   4   50.43    2.23 
  -5  -4   4   40.28    1.89 
   5   4  -4   49.69    2.10 
   5   4  -4   45.66    2.14 
  -5  -4   3   95.29    1.53 
  -5  -4   3   86.21    2.84 
  -5  -4   3   94.05    1.53 
  -5  -4   3   83.16    2.82 
  -5  -4   3   64.52    2.39 
   5   4  -3   87.88    2.73 
   5   4  -3   75.00    2.69 
  -5  -4   2   43.87    2.00 
  -5  -4   2   42.04    1.98 
  -5  -4   2   32.41    1.70 
   5   4  -2   44.82    1.91 
   5   4  -2   39.35    1.92 
  -5  -4   1   12.81    1.10 
  -5  -4   1   11.10    1.04 
  -5  -4   1    8.16    0.88 
   5   4  -1   10.42    0.94 
   5   4  -1    9.85    0.98 
  -5  -4   0   39.28    1.86 
  -5  -4   0   36.56    1.82 
  -5  -4   0   30.69    1.65 
   5   4   0   40.82    1.78 
   5   4   0   34.12    1.74 
  -5  -4  -1    5.96    0.79 
  -5  -4  -1    7.08    0.85 
  -5  -4  -1    4.71    0.70 
   5   4   1    6.69    0.77 
   5   4   1    8.08    0.88 
  -5  -4  -2  100.69    2.98 
  -5  -4  -2  105.88    3.08 
  -5  -4  -2   80.57    2.68 
   5   4   2  111.51    2.92 
   5   4   2   90.01    2.79 
  -5  -4  -3   11.02    1.04 
  -5  -4  -3    9.10    0.96 
  -5  -4  -3    9.06    0.95 
   5   4   3   10.96    0.96 
   5   4   3    9.34    0.93 
  -5  -4  -4   78.97    1.39 
  -5  -4  -4  101.74    3.04 
  -5  -4  -4   98.95    3.01 
  -5  -4  -4   79.12    2.68 
   5   4   4  104.75    2.88 
   5   4   4   94.84    2.85 
  -5  -4  -5   39.23    1.12 
  -5  -4  -5   48.13    2.12 
  -5  -4  -5   47.92    2.13 
  -5  -4  -5   42.90    1.99 
   5   4   5   56.32    2.14 
   5   4   5   44.91    1.96 
  -5  -4  -6   48.62    1.40 
  -5  -4  -6   63.97    2.49 
  -5  -4  -6   64.86    2.51 
  -5  -4  -6   51.49    2.19 
   5   4   6   70.92    2.45 
   5   4   6   67.78    2.42 
  -5  -4  -7   93.08    2.14 
  -5  -4  -7  117.22    3.45 
  -5  -4  -7  121.89    3.51 
  -5  -4  -7  100.91    3.10 
   5   4   7  130.83    3.43 
   5   4   7  122.01    3.29 
  -5  -4  -8   15.92    0.97 
  -5  -4  -8   18.78    1.44 
  -5  -4  -8   18.47    1.42 
  -5  -4  -8   16.95    1.31 
   5   4   8   22.86    1.48 
   5   4   8   20.70    1.38 
  -5  -4  -9   48.58    1.79 
  -5  -4  -9   59.40    2.57 
  -5  -4  -9   61.96    2.60 
  -5  -4  -9   51.21    2.24 
   5   4   9   63.76    2.52 
   5   4   9   64.33    2.43 
  -5  -4 -10    0.45    0.35 
  -5  -4 -10    1.17    0.57 
  -5  -4 -10    1.83    0.60 
  -5  -4 -10    0.81    0.45 
   5   4  10    1.25    0.53 
   5   4  10    0.82    0.43 
  -5  -4 -11   64.97    2.33 
  -5  -4 -11   74.50    3.04 
  -5  -4 -11   76.99    3.05 
  -5  -4 -11   66.76    2.62 
   5   4  11   81.26    3.02 
   5   4  11   77.77    2.76 
  -5  -4 -12    5.00    0.77 
  -5  -4 -12    7.00    1.05 
  -5  -4 -12    7.17    1.03 
  -5  -4 -12    5.03    0.81 
   5   4  12    5.72    0.92 
   5   4  12    6.50    0.88 
  -5  -4 -13   43.08    2.12 
  -5  -4 -13   49.82    2.64 
  -5  -4 -13   49.51    2.59 
   5   4  13   52.94    2.61 
   5   4  13   53.26    2.37 
  -5  -4 -14   17.21    1.44 
  -5  -4 -14   19.67    1.75 
  -5  -4 -14   20.17    1.73 
  -5  -4 -14   16.52    1.38 
   5   4  14   17.64    1.60 
   5   4  14   19.85    1.50 
  -5  -4 -15   13.04    1.33 
  -5  -4 -15   15.76    1.62 
  -5  -4 -15   15.10    1.56 
  -5  -4 -15   13.10    1.25 
   5   4  15   15.95    1.59 
   5   4  15   14.14    1.32 
  -5  -4 -16   31.60    2.09 
  -5  -4 -16   31.97    2.34 
  -5  -4 -16   32.88    2.32 
   5   4  16   33.33    2.31 
  -5  -4 -17    4.00    0.91 
  -5  -4 -17    4.97    1.07 
   5   4  17    4.47    1.01 
  -5  -5  13   15.38    1.67 
  -5  -5  13   12.10    1.47 
   5   5 -13   17.22    1.77 
  -5  -5  12    4.29    0.96 
  -5  -5  12    4.31    0.93 
   5   5 -12    4.24    0.95 
  -5  -5  11   21.02    1.82 
  -5  -5  11   17.99    1.69 
  -5  -5  11   17.10    1.63 
   5   5 -11   22.04    1.85 
  -5  -5  10   17.75    1.63 
  -5  -5  10   15.66    1.53 
  -5  -5  10   13.65    1.44 
   5   5 -10   13.11    1.41 
  -5  -5   9   20.48    1.69 
  -5  -5   9   21.40    1.74 
  -5  -5   9   18.65    1.61 
  -5  -5   9   21.59    1.42 
   5   5  -9   20.98    1.70 
  -5  -5   8   62.48    2.83 
  -5  -5   8   61.35    2.81 
  -5  -5   8   59.10    2.75 
  -5  -5   8   54.96    2.24 
   5   5  -8   67.76    2.90 
  -5  -5   7    0.96    0.52 
  -5  -5   7    1.99    0.61 
  -5  -5   7    0.91    0.50 
  -5  -5   7    1.59    0.49 
   5   5  -7    0.95    0.53 
  -5  -5   6   60.23    2.64 
  -5  -5   6   56.60    2.57 
  -5  -5   6   50.16    2.42 
  -5  -5   6   48.64    2.11 
   5   5  -6   56.96    2.52 
  -5  -5   5    0.25    0.41 
  -5  -5   5    0.51    0.43 
  -5  -5   5    0.38    0.39 
  -5  -5   5    0.08    0.33 
   5   5  -5   -0.18    0.39 
   5   5  -5    0.36    0.40 
  -5  -5   4   68.19    2.69 
  -5  -5   4   64.72    2.63 
  -5  -5   4   57.38    2.47 
  -5  -5   4   52.39    2.18 
   5   5  -4   66.86    2.59 
   5   5  -4   60.49    2.54 
  -5  -5   3   11.85    1.14 
  -5  -5   3   10.68    1.08 
  -5  -5   3    8.24    0.91 
   5   5  -3   11.28    1.09 
   5   5  -3    8.91    1.00 
  -5  -5   2   52.86    2.29 
  -5  -5   2   49.31    2.22 
  -5  -5   2   38.01    1.86 
   5   5  -2   54.08    2.24 
   5   5  -2   47.18    2.16 
  -5  -5   1   72.34    2.64 
  -5  -5   1   64.96    2.51 
  -5  -5   1   54.18    2.22 
   5   5  -1   75.02    2.60 
   5   5  -1   60.97    2.42 
  -5  -5   0   27.65    1.64 
  -5  -5   0   26.46    1.60 
  -5  -5   0   21.57    1.42 
   5   5   0   28.46    1.60 
   5   5   0   25.10    1.54 
  -5  -5  -1   87.15    2.86 
  -5  -5  -1   83.25    2.80 
  -5  -5  -1   62.74    2.40 
   5   5   1   90.01    2.79 
   5   5   1   75.96    2.62 
  -5  -5  -2    2.22    0.60 
  -5  -5  -2    4.44    0.74 
  -5  -5  -2    2.40    0.57 
   5   5   2    2.51    0.59 
   5   5   2    2.24    0.54 
  -5  -5  -3  144.63    3.71 
  -5  -5  -3  146.05    3.71 
  -5  -5  -3  107.11    3.18 
   5   5   3  147.24    3.59 
   5   5   3  127.48    3.35 
  -5  -5  -4    2.26    0.63 
  -5  -5  -4    1.44    0.53 
  -5  -5  -4    1.51    0.50 
   5   5   4    1.90    0.55 
   5   5   4    1.48    0.47 
  -5  -5  -5  100.93    3.15 
  -5  -5  -5  101.46    3.12 
  -5  -5  -5   75.90    2.71 
   5   5   5  110.88    3.16 
   5   5   5   98.34    2.91 
  -5  -5  -6   34.08    1.00 
  -5  -5  -6   34.37    1.88 
  -5  -5  -6   34.26    1.85 
  -5  -5  -6   29.00    1.71 
   5   5   6   35.74    1.83 
   5   5   6   31.80    1.65 
  -5  -5  -7   82.30    1.82 
  -5  -5  -7   88.73    3.04 
  -5  -5  -7   93.21    3.07 
  -5  -5  -7   69.33    2.63 
   5   5   7   93.51    3.01 
   5   5   7   91.47    2.81 
  -5  -5  -8   46.61    1.52 
  -5  -5  -8   52.11    2.38 
  -5  -5  -8   50.32    2.30 
  -5  -5  -8   38.86    2.00 
   5   5   8   53.49    2.33 
   5   5   8   50.32    2.09 
  -5  -5  -9   33.49    1.40 
  -5  -5  -9   37.79    2.08 
  -5  -5  -9   40.41    2.10 
  -5  -5  -9   30.36    1.79 
   5   5   9   38.75    2.04 
   5   5   9   39.18    1.86 
  -5  -5 -10   85.74    2.41 
  -5  -5 -10   96.30    3.39 
  -5  -5 -10   98.46    3.34 
  -5  -5 -10   82.38    2.97 
   5   5  10  102.69    3.39 
   5   5  10   97.44    2.96 
  -5  -5 -11    4.49    0.67 
  -5  -5 -11    7.13    1.03 
  -5  -5 -11    5.37    0.89 
  -5  -5 -11    5.14    0.82 
   5   5  11    6.53    0.97 
   5   5  11    6.17    0.81 
  -5  -5 -12   92.90    2.85 
  -5  -5 -12  100.86    3.65 
  -5  -5 -12  103.41    3.59 
  -5  -5 -12   90.35    3.18 
   5   5  12  108.16    3.69 
   5   5  12  107.67    3.19 
  -5  -5 -13    1.51    0.53 
  -5  -5 -13    2.16    0.74 
  -5  -5 -13    1.75    0.66 
  -5  -5 -13    1.92    0.62 
   5   5  13    1.82    0.68 
   5   5  13    1.46    0.52 
  -5  -5 -14   56.06    2.45 
  -5  -5 -14   62.51    3.04 
  -5  -5 -14   67.00    3.05 
  -5  -5 -14   54.67    2.54 
   5   5  14   64.20    3.02 
   5   5  14   64.63    2.55 
  -5  -5 -15    7.01    0.99 
  -5  -5 -15    7.46    1.17 
  -5  -5 -15    7.83    1.15 
  -5  -5 -15    1.52    0.50 
   5   5  15    7.82    1.18 
  -5  -5 -16   18.42    1.59 
  -5  -5 -16   18.21    1.79 
  -5  -5 -16   19.54    1.78 
  -5  -5 -16   16.83    1.48 
   5   5  16   16.85    1.69 
  -5  -5 -17   15.70    1.54 
  -5  -5 -17   14.83    1.68 
   5   5  17   16.62    1.75 
  -5  -6  12   19.55    1.89 
  -5  -6  12   18.44    1.81 
   5   6 -12   20.42    1.93 
  -5  -6  11    0.95    0.64 
  -5  -6  11    0.70    0.58 
   5   6 -11    0.76    0.64 
  -5  -6  10   32.72    2.28 
  -5  -6  10   32.26    2.26 
  -5  -6  10   27.84    2.09 
   5   6 -10   30.49    2.19 
  -5  -6   9   13.42    1.46 
  -5  -6   9   12.11    1.38 
  -5  -6   9   11.12    1.33 
   5   6  -9   11.88    1.37 
  -5  -6   8   19.46    1.69 
  -5  -6   8   16.86    1.57 
  -5  -6   8   16.40    1.54 
  -5  -6   8   16.35    1.26 
   5   6  -8   20.52    1.71 
  -5  -6   7   39.15    2.29 
  -5  -6   7   36.70    2.22 
  -5  -6   7   33.16    2.11 
  -5  -6   7   34.36    1.80 
   5   6  -7   39.36    2.27 
  -5  -6   6   16.41    1.48 
  -5  -6   6   14.20    1.38 
  -5  -6   6   13.67    1.35 
  -5  -6   6   13.70    1.17 
   5   6  -6   17.52    1.51 
  -5  -6   5   68.01    2.87 
  -5  -6   5   57.53    2.64 
  -5  -6   5   52.38    2.51 
  -5  -6   5   49.01    2.14 
   5   6  -5   62.27    2.71 
  -5  -6   4    3.60    0.77 
  -5  -6   4    2.45    0.64 
  -5  -6   4    2.15    0.60 
  -5  -6   4    2.58    0.60 
   5   6  -4    3.45    0.75 
  -5  -6   3  200.62    4.77 
  -5  -6   3  188.36    4.61 
  -5  -6   3  164.00    4.28 
  -5  -6   3  152.03    3.82 
   5   6  -3  202.32    4.71 
   5   6  -3  170.02    4.36 
  -5  -6   2    3.84    0.75 
  -5  -6   2    3.80    0.73 
  -5  -6   2    3.76    0.71 
  -5  -6   2    4.28    0.71 
   5   6  -2    4.40    0.79 
   5   6  -2    4.58    0.77 
  -5  -6   1  113.60    3.45 
  -5  -6   1  114.49    3.46 
  -5  -6   1   82.04    2.80 
   5   6  -1  115.01    3.42 
   5   6  -1   93.20    3.09 
  -5  -6   0   27.00    1.68 
  -5  -6   0   27.48    1.69 
  -5  -6   0   19.99    1.41 
   5   6   0   27.38    1.67 
   5   6   0   25.18    1.59 
  -5  -6  -1   27.53    1.69 
  -5  -6  -1   26.81    1.65 
  -5  -6  -1   20.91    1.45 
   5   6   1   28.90    1.69 
   5   6   1   24.96    1.55 
  -5  -6  -2   46.79    2.18 
  -5  -6  -2   49.16    2.20 
  -5  -6  -2   35.01    1.86 
   5   6   2   49.78    2.19 
   5   6   2   39.53    1.92 
  -5  -6  -3   15.20    1.29 
  -5  -6  -3   16.14    1.29 
  -5  -6  -3   10.65    1.07 
   5   6   3   15.34    1.26 
   5   6   3   11.90    1.07 
  -5  -6  -4   81.32    2.87 
  -5  -6  -4   76.44    2.74 
  -5  -6  -4   58.72    2.44 
   5   6   4   82.80    2.84 
   5   6   4   71.28    2.51 
  -5  -6  -5    0.08    0.45 
  -5  -6  -5    0.01    0.39 
  -5  -6  -5    0.06    0.37 
   5   6   5   -0.02    0.39 
   5   6   5    0.16    0.34 
  -5  -6  -6   76.85    2.85 
  -5  -6  -6   79.60    2.82 
  -5  -6  -6   54.70    2.39 
   5   6   6   81.83    2.89 
   5   6   6   70.47    2.46 
  -5  -6  -7    1.85    0.61 
  -5  -6  -7    3.02    0.66 
  -5  -6  -7    1.78    0.56 
   5   6   7    1.16    0.53 
   5   6   7    1.88    0.51 
  -5  -6  -8   98.26    3.32 
  -5  -6  -8  100.50    3.26 
  -5  -6  -8   71.28    2.79 
   5   6   8   98.62    3.28 
   5   6   8   94.45    2.84 
  -5  -6  -9   40.73    2.19 
  -5  -6  -9   41.27    2.13 
  -5  -6  -9   29.55    1.84 
   5   6   9   41.63    2.19 
   5   6   9   37.04    1.79 
  -5  -6 -10   18.08    1.08 
  -5  -6 -10   19.38    1.57 
  -5  -6 -10   21.00    1.56 
  -5  -6 -10   14.79    1.33 
   5   6  10   20.99    1.61 
   5   6  10   21.48    1.37 
  -5  -6 -11   42.90    1.76 
  -5  -6 -11   45.60    2.42 
  -5  -6 -11   46.40    2.35 
  -5  -6 -11   35.70    2.06 
   5   6  11   47.41    2.44 
   5   6  11   44.46    1.97 
  -5  -6 -12    9.42    0.93 
  -5  -6 -12   10.19    1.25 
  -5  -6 -12   10.35    1.19 
  -5  -6 -12    7.57    1.03 
   5   6  12    9.43    1.19 
   5   6  12    8.40    0.92 
  -5  -6 -13   60.92    2.37 
  -5  -6 -13   67.84    3.09 
  -5  -6 -13   66.95    2.94 
  -5  -6 -13   56.88    2.66 
   5   6  13   64.99    3.01 
   5   6  13   65.73    2.43 
  -5  -6 -14   -0.04    0.39 
  -5  -6 -14   -0.07    0.49 
  -5  -6 -14    0.26    0.49 
  -5  -6 -14   -0.17    0.42 
   5   6  14    0.13    0.52 
  -5  -6 -15   33.69    1.96 
  -5  -6 -15   34.94    2.36 
  -5  -6 -15   33.88    2.22 
  -5  -6 -15   29.30    1.98 
   5   6  15   34.73    2.35 
  -5  -6 -16    3.39    0.78 
  -5  -6 -16    4.34    0.99 
  -5  -6 -16    3.41    0.85 
  -5  -6 -16    2.66    0.75 
   5   6  16    4.54    0.99 
  -5  -6 -17   22.80    1.79 
  -5  -6 -17   19.83    1.92 
   5   6  17   22.71    2.04 
  -5  -7  11   24.88    2.14 
  -5  -7  11   18.74    1.87 
   5   7 -11   24.26    2.12 
  -5  -7  10    0.29    0.55 
  -5  -7  10   -0.10    0.46 
   5   7 -10    0.11    0.55 
  -5  -7   9   24.86    2.03 
  -5  -7   9   23.72    1.98 
  -5  -7   9   21.43    1.88 
   5   7  -9   27.66    2.13 
  -5  -7   8    5.89    1.05 
  -5  -7   8    6.28    1.05 
  -5  -7   8    5.37    0.99 
   5   7  -8    6.40    1.09 
  -5  -7   7   35.93    2.29 
  -5  -7   7   32.64    2.18 
  -5  -7   7   28.47    2.04 
  -5  -7   7   31.50    1.74 
   5   7  -7   35.89    2.29 
  -5  -7   6   16.36    1.54 
  -5  -7   6   16.69    1.54 
  -5  -7   6   13.86    1.42 
  -5  -7   6   13.91    1.20 
   5   7  -6   18.36    1.62 
  -5  -7   5   20.24    1.67 
  -5  -7   5   21.98    1.73 
  -5  -7   5   18.79    1.59 
  -5  -7   5   16.44    1.29 
   5   7  -5   22.04    1.73 
  -5  -7   4   76.90    3.12 
  -5  -7   4   74.00    3.04 
  -5  -7   4   58.53    2.71 
  -5  -7   4   53.64    2.30 
   5   7  -4   76.13    3.09 
  -5  -7   3    4.35    0.82 
  -5  -7   3    3.49    0.75 
  -5  -7   3    1.99    0.61 
  -5  -7   3    2.89    0.63 
   5   7  -3    4.41    0.85 
  -5  -7   2  105.61    3.53 
  -5  -7   2   99.49    3.40 
  -5  -7   2   81.53    3.05 
  -5  -7   2   75.74    2.76 
   5   7  -2  106.61    3.53 
  -5  -7   1    4.91    0.84 
  -5  -7   1    6.66    0.94 
  -5  -7   1    4.85    0.80 
  -5  -7   1    3.63    0.70 
   5   7  -1    6.00    0.93 
  -5  -7   0   98.38    3.31 
  -5  -7   0   89.34    3.12 
  -5  -7   0   72.46    2.76 
  -5  -7   0   62.08    2.53 
   5   7   0   98.10    3.30 
   5   7   0   71.09    2.74 
  -5  -7  -1    7.11    0.96 
  -5  -7  -1    8.32    1.00 
  -5  -7  -1    6.63    0.87 
  -5  -7  -1    5.86    0.85 
   5   7   1    8.15    1.02 
   5   7   1    7.32    0.91 
  -5  -7  -2   67.73    2.71 
  -5  -7  -2   70.36    2.71 
  -5  -7  -2   46.04    2.20 
   5   7   2   69.96    2.75 
   5   7   2   54.51    2.31 
  -5  -7  -3   50.12    2.34 
  -5  -7  -3   51.06    2.30 
  -5  -7  -3   36.35    1.98 
   5   7   3   51.81    2.37 
   5   7   3   42.87    2.02 
  -5  -7  -4   29.31    1.81 
  -5  -7  -4   28.53    1.73 
  -5  -7  -4   19.06    1.47 
   5   7   4   29.80    1.82 
   5   7   4   26.71    1.58 
  -5  -7  -5   49.49    2.33 
  -5  -7  -5   51.07    2.29 
  -5  -7  -5   37.80    2.06 
   5   7   5   52.14    2.40 
   5   7   5   46.37    2.05 
  -5  -7  -6    2.94    0.71 
  -5  -7  -6    2.68    0.64 
  -5  -7  -6    2.33    0.64 
   5   7   6    3.14    0.73 
   5   7   6    2.89    0.59 
  -5  -7  -7   74.50    2.91 
  -5  -7  -7   75.76    2.82 
  -5  -7  -7   49.62    2.40 
   5   7   7   80.38    3.03 
   5   7   7   68.94    2.45 
  -5  -7  -8    5.36    0.89 
  -5  -7  -8    6.08    0.89 
  -5  -7  -8    4.10    0.79 
   5   7   8    5.23    0.88 
   5   7   8    5.29    0.74 
  -5  -7  -9   39.76    2.20 
  -5  -7  -9   40.33    2.12 
  -5  -7  -9   27.89    1.86 
   5   7   9   37.53    2.16 
   5   7   9   38.39    1.81 
  -5  -7 -10    6.07    0.96 
  -5  -7 -10    6.28    0.93 
  -5  -7 -10    3.92    0.80 
   5   7  10    5.93    0.96 
   5   7  10    6.02    0.77 
  -5  -7 -11   18.12    1.57 
  -5  -7 -11   16.84    1.45 
  -5  -7 -11   13.04    1.33 
   5   7  11   17.89    1.59 
   5   7  11   15.82    1.18 
  -5  -7 -12   19.48    1.68 
  -5  -7 -12   19.72    1.59 
  -5  -7 -12   13.91    1.40 
   5   7  12   18.65    1.65 
  -5  -7 -13   15.66    1.56 
  -5  -7 -13   16.81    1.51 
  -5  -7 -13   12.88    1.36 
   5   7  13   17.75    1.66 
  -5  -7 -14   49.30    2.73 
  -5  -7 -14   51.40    2.63 
  -5  -7 -14   41.76    2.41 
   5   7  14   52.92    2.87 
  -5  -7 -15    1.90    0.74 
  -5  -7 -15    2.24    0.73 
  -5  -7 -15    2.05    0.71 
   5   7  15    1.50    0.74 
  -5  -7 -16   28.58    2.21 
  -5  -7 -16   26.73    2.01 
  -5  -7 -16   24.15    1.91 
   5   7  16   27.91    2.22 
  -5  -7 -17    0.88    0.67 
  -5  -7 -17    1.20    0.66 
  -5  -7 -17    0.31    0.55 
   5   7  17    0.34    0.63 
  -5  -8  10   15.06    1.72 
   5   8 -10   17.52    1.85 
  -5  -8   9    0.35    0.57 
  -5  -8   9   -0.10    0.47 
   5   8  -9   -0.25    0.52 
  -5  -8   8   19.64    1.85 
  -5  -8   8   13.20    1.54 
   5   8  -8   18.25    1.79 
  -5  -8   7    2.92    0.82 
  -5  -8   7    1.96    0.69 
  -5  -8   7    1.40    0.64 
   5   8  -7    2.86    0.83 
  -5  -8   6   25.02    1.96 
  -5  -8   6   21.11    1.80 
  -5  -8   6   17.29    1.64 
  -5  -8   6   19.10    1.41 
   5   8  -6   26.17    2.02 
  -5  -8   5   16.63    1.59 
  -5  -8   5   17.30    1.61 
  -5  -8   5   12.01    1.35 
  -5  -8   5   12.37    1.17 
   5   8  -5   15.57    1.56 
  -5  -8   4   11.52    1.32 
  -5  -8   4   10.48    1.25 
  -5  -8   4    8.00    1.11 
  -5  -8   4    8.26    0.98 
   5   8  -4   10.32    1.27 
  -5  -8   3   23.14    1.78 
  -5  -8   3   25.47    1.85 
  -5  -8   3   19.05    1.60 
  -5  -8   3   19.25    1.45 
   5   8  -3   23.91    1.83 
  -5  -8   2   11.94    1.28 
  -5  -8   2   12.63    1.30 
  -5  -8   2    8.89    1.10 
  -5  -8   2    8.00    0.98 
   5   8  -2   11.53    1.30 
  -5  -8   1   71.01    2.97 
  -5  -8   1   67.65    2.86 
  -5  -8   1   53.18    2.52 
  -5  -8   1   47.55    2.28 
   5   8  -1   73.36    3.05 
  -5  -8   0    0.49    0.49 
  -5  -8   0    0.48    0.47 
  -5  -8   0    0.53    0.43 
  -5  -8   0    0.39    0.42 
   5   8   0    0.62    0.56 
  -5  -8  -1   72.83    2.94 
  -5  -8  -1   67.80    2.78 
  -5  -8  -1   48.31    2.30 
  -5  -8  -1   44.68    2.24 
   5   8   1   71.07    2.94 
  -5  -8  -2    5.81    0.92 
  -5  -8  -2    6.31    0.92 
  -5  -8  -2    4.05    0.72 
  -5  -8  -2    3.09    0.70 
   5   8   2    5.64    0.93 
  -5  -8  -3   70.39    2.86 
  -5  -8  -3   69.27    2.76 
  -5  -8  -3   52.45    2.31 
  -5  -8  -3   42.93    2.24 
   5   8   3   67.77    2.85 
   5   8   3   55.02    2.37 
  -5  -8  -4   41.06    2.20 
  -5  -8  -4   45.30    2.23 
  -5  -8  -4   35.09    1.86 
  -5  -8  -4   28.65    1.85 
   5   8   4   47.43    2.40 
   5   8   4   35.76    1.88 
  -5  -8  -5   24.83    1.74 
  -5  -8  -5   23.63    1.63 
  -5  -8  -5   15.14    1.39 
   5   8   5   23.36    1.71 
   5   8   5   21.74    1.45 
  -5  -8  -6   56.69    2.59 
  -5  -8  -6   57.96    2.51 
  -5  -8  -6   35.26    2.09 
   5   8   6   58.92    2.70 
   5   8   6   43.69    2.01 
  -5  -8  -7    5.84    0.95 
  -5  -8  -7    6.34    0.92 
  -5  -8  -7    4.24    0.82 
   5   8   7    6.22    0.99 
   5   8   7    4.96    0.72 
  -5  -8  -8   58.04    2.67 
  -5  -8  -8   62.35    2.63 
  -5  -8  -8   40.37    2.28 
   5   8   8   59.33    2.76 
   5   8   8   47.84    2.04 
  -5  -8  -9    0.25    0.49 
  -5  -8  -9    0.48    0.49 
  -5  -8  -9    0.36    0.47 
   5   8   9    0.82    0.58 
   5   8   9    0.67    0.39 
  -5  -8 -10   29.84    1.98 
  -5  -8 -10   32.58    1.95 
  -5  -8 -10   22.09    1.75 
   5   8  10   32.92    2.14 
   5   8  10   28.70    1.56 
  -5  -8 -11    3.73    0.84 
  -5  -8 -11    3.97    0.80 
  -5  -8 -11    2.33    0.71 
   5   8  11    3.46    0.86 
  -5  -8 -12   47.18    2.59 
  -5  -8 -12   48.42    2.45 
  -5  -8 -12   38.83    2.36 
   5   8  12   49.45    2.72 
  -5  -8 -13   17.88    1.67 
  -5  -8 -13   18.92    1.59 
  -5  -8 -13   13.84    1.47 
   5   8  13   20.13    1.81 
  -5  -8 -14   20.81    1.83 
  -5  -8 -14   19.74    1.66 
  -5  -8 -14   14.13    1.52 
   5   8  14   20.10    1.86 
  -5  -8 -15   27.40    2.13 
  -5  -8 -15   24.54    1.88 
  -5  -8 -15   19.66    1.78 
   5   8  15   23.55    2.05 
  -5  -8 -16    4.95    1.06 
  -5  -8 -16    3.94    0.91 
  -5  -8 -16    3.06    0.85 
   5   8  16    4.66    1.07 
  -5  -9   8    1.15    0.70 
   5   9  -8    0.81    0.69 
  -5  -9   7   22.77    2.02 
  -5  -9   7   18.38    1.82 
   5   9  -7   23.95    2.08 
  -5  -9   6    0.21    0.55 
  -5  -9   6    0.27    0.50 
   5   9  -6   -0.10    0.54 
  -5  -9   5   15.27    1.60 
  -5  -9   5   14.60    1.55 
  -5  -9   5   11.66    1.40 
  -5  -9   5   12.71    1.22 
   5   9  -5   16.29    1.67 
  -5  -9   4    4.51    0.94 
  -5  -9   4    2.91    0.78 
  -5  -9   4    2.22    0.71 
  -5  -9   4    2.08    0.63 
   5   9  -4    3.11    0.84 
  -5  -9   3   25.96    1.96 
  -5  -9   3   25.63    1.93 
  -5  -9   3   18.81    1.67 
  -5  -9   3   19.89    1.53 
   5   9  -3   25.56    1.99 
  -5  -9   2   27.27    1.97 
  -5  -9   2   26.19    1.92 
  -5  -9   2   17.44    1.57 
  -5  -9   2   18.36    1.48 
   5   9  -2   25.93    1.97 
  -5  -9   1   20.15    1.69 
  -5  -9   1   19.77    1.64 
  -5  -9   1   15.26    1.44 
  -5  -9   1   14.45    1.34 
   5   9  -1   18.46    1.67 
  -5  -9   0   43.11    2.40 
  -5  -9   0   47.73    2.47 
  -5  -9   0   33.03    2.03 
  -5  -9   0   28.72    1.87 
   5   9   0   44.66    2.49 
  -5  -9  -1    5.15    0.92 
  -5  -9  -1    6.08    0.96 
  -5  -9  -1    4.48    0.81 
  -5  -9  -1    3.60    0.76 
   5   9   1    4.39    0.95 
  -5  -9  -2   65.09    2.88 
  -5  -9  -2   68.82    2.87 
  -5  -9  -2   43.76    2.24 
  -5  -9  -2   40.41    2.24 
   5   9   2   62.89    2.91 
  -5  -9  -3    0.83    0.58 
  -5  -9  -3    1.25    0.57 
  -5  -9  -3    0.61    0.44 
  -5  -9  -3    0.12    0.43 
   5   9   3    0.23    0.54 
  -5  -9  -4   74.32    3.05 
  -5  -9  -4   76.71    2.98 
  -5  -9  -4   50.74    2.31 
  -5  -9  -4   47.66    2.48 
   5   9   4   69.06    3.03 
  -5  -9  -5    8.56    1.13 
  -5  -9  -5   10.36    1.16 
  -5  -9  -5    1.30    0.42 
  -5  -9  -5    6.00    0.96 
   5   9   5    9.13    1.20 
  -5  -9  -6   53.23    2.59 
  -5  -9  -6   53.98    2.48 
  -5  -9  -6   39.81    1.97 
  -5  -9  -6   38.13    2.27 
   5   9   6   54.93    2.73 
  -5  -9  -7   38.07    2.22 
  -5  -9  -7   35.41    2.02 
  -5  -9  -7   25.77    1.56 
  -5  -9  -7   24.75    1.86 
   5   9   7   36.38    2.25 
  -5  -9  -8   19.37    1.63 
  -5  -9  -8   19.69    1.54 
  -5  -9  -8   15.99    1.22 
  -5  -9  -8   13.52    1.43 
   5   9   8   22.29    1.81 
   5   9   8   16.01    1.23 
  -5  -9  -9   53.03    2.65 
  -5  -9  -9   55.47    2.53 
  -5  -9  -9   34.37    2.23 
   5   9   9   51.98    2.73 
  -5  -9 -10    1.63    0.66 
  -5  -9 -10    1.66    0.64 
  -5  -9 -10    1.47    0.64 
   5   9  10    2.24    0.75 
  -5  -9 -11   30.14    2.08 
  -5  -9 -11   31.57    1.96 
  -5  -9 -11   20.42    1.79 
   5   9  11   28.28    2.11 
  -5  -9 -12    2.04    0.75 
  -5  -9 -12    2.23    0.68 
  -5  -9 -12    1.64    0.70 
   5   9  12    1.68    0.72 
  -5  -9 -13   26.00    2.02 
  -5  -9 -13   26.80    1.87 
  -5  -9 -13   19.85    1.81 
   5   9  13   26.89    2.14 
  -5  -9 -14   18.52    1.77 
  -5  -9 -14   13.93    1.56 
   5   9  14   19.85    1.90 
  -5  -9 -15   23.15    2.00 
  -5  -9 -15   18.33    1.80 
   5   9  15   23.75    2.11 
  -5 -10   6   21.17    1.99 
   5  10  -6   21.38    2.04 
  -5 -10   5    0.28    0.58 
  -5 -10   5    0.02    0.49 
   5  10  -5   -0.57    0.48 
  -5 -10   4   26.90    2.13 
  -5 -10   4   26.49    2.10 
  -5 -10   4   19.95    1.84 
   5  10  -4   28.43    2.23 
  -5 -10   3    2.88    0.82 
  -5 -10   3    2.41    0.76 
  -5 -10   3    1.37    0.64 
  -5 -10   3    1.93    0.64 
   5  10  -3    3.20    0.91 
  -5 -10   2   21.51    1.85 
  -5 -10   2   21.69    1.83 
  -5 -10   2   15.45    1.56 
  -5 -10   2   15.09    1.41 
   5  10  -2   23.96    2.00 
  -5 -10   1   17.13    1.64 
  -5 -10   1   17.47    1.62 
  -5 -10   1   13.44    1.43 
  -5 -10   1   11.53    1.27 
   5  10  -1   15.56    1.63 
  -5 -10   0   26.88    2.00 
  -5 -10   0   26.41    1.93 
  -5 -10   0   15.37    1.48 
  -5 -10   0   13.68    1.38 
   5  10   0   23.98    1.96 
  -5 -10  -1   47.11    2.58 
  -5 -10  -1   46.66    2.50 
  -5 -10  -1   30.50    2.01 
  -5 -10  -1   31.22    2.05 
   5  10   1   46.85    2.67 
  -5 -10  -2    9.59    1.22 
  -5 -10  -2   10.93    1.25 
  -5 -10  -2    7.07    1.00 
  -5 -10  -2    6.95    1.04 
   5  10   2    9.35    1.28 
  -5 -10  -3   39.42    2.33 
  -5 -10  -3   40.36    2.27 
  -5 -10  -3   25.09    1.75 
  -5 -10  -3   22.94    1.80 
   5  10   3   37.27    2.37 
  -5 -10  -4    0.68    0.59 
  -5 -10  -4    0.90    0.58 
  -5 -10  -4    0.53    0.43 
  -5 -10  -4    0.79    0.54 
   5  10   4    0.30    0.58 
  -5 -10  -5   68.55    3.03 
  -5 -10  -5   70.17    2.91 
  -5 -10  -5   47.18    2.27 
  -5 -10  -5   42.29    2.46 
   5  10   5   68.37    3.18 
  -5 -10  -6    4.10    0.93 
  -5 -10  -6    5.43    0.91 
  -5 -10  -6    3.23    0.66 
  -5 -10  -6    2.74    0.76 
   5  10   6    4.48    0.97 
  -5 -10  -7   60.50    2.87 
  -5 -10  -7   61.18    2.70 
  -5 -10  -7   42.23    2.05 
  -5 -10  -7   35.98    2.33 
   5  10   7   61.82    3.05 
  -5 -10  -8   29.27    2.03 
  -5 -10  -8   30.36    1.92 
  -5 -10  -8   17.76    1.68 
   5  10   8   26.60    2.06 
  -5 -10  -9   26.75    1.96 
  -5 -10  -9   29.38    1.89 
  -5 -10  -9   18.12    1.72 
   5  10   9   26.53    2.08 
  -5 -10 -10   37.50    2.33 
  -5 -10 -10   38.88    2.18 
  -5 -10 -10   26.60    2.08 
   5  10  10   35.03    2.39 
  -5 -10 -11    4.48    0.96 
  -5 -10 -11    2.77    0.82 
   5  10  11    5.40    1.09 
  -5 -10 -12   38.09    2.41 
  -5 -10 -12   26.88    2.15 
   5  10  12   41.60    2.67 
  -5 -10 -13   -0.18    0.54 
  -5 -10 -13   -0.13    0.51 
   5  10  13    0.43    0.64 
  -5 -10 -14   32.42    2.31 
  -5 -10 -14   21.76    2.00 
   5  10  14   28.80    2.32 
  -5 -11   3   18.82    1.86 
  -5 -11   3   15.24    1.67 
   5  11  -3   16.45    1.80 
  -5 -11   2   -0.17    0.52 
  -5 -11   2    0.43    0.56 
  -5 -11   2    0.05    0.48 
   5  11  -2    0.24    0.64 
  -5 -11   1   35.86    2.42 
  -5 -11   1   35.75    2.36 
  -5 -11   1   24.49    1.99 
  -5 -11   1   21.89    1.78 
   5  11  -1   33.39    2.43 
  -5 -11   0   11.13    1.40 
  -5 -11   0   11.68    1.39 
  -5 -11   0    7.27    1.11 
  -5 -11   0    6.42    1.06 
   5  11   0    8.43    1.31 
  -5 -11  -1   13.16    1.49 
  -5 -11  -1   14.52    1.51 
  -5 -11  -1    8.87    1.18 
  -5 -11  -1    8.66    1.20 
   5  11   1   10.50    1.43 
  -5 -11  -2   21.60    1.83 
  -5 -11  -2   25.25    1.90 
  -5 -11  -2   16.05    1.52 
  -5 -11  -2   15.54    1.55 
   5  11   2   19.64    1.86 
  -5 -11  -3    3.42    0.87 
  -5 -11  -3    2.72    0.76 
  -5 -11  -3    2.31    0.68 
  -5 -11  -3    1.76    0.69 
   5  11   3    2.25    0.84 
  -5 -11  -4   40.50    2.45 
  -5 -11  -4   39.57    2.30 
  -5 -11  -4    0.06    0.21 
  -5 -11  -4   23.23    1.92 
   5  11   4   38.29    2.52 
  -5 -11  -5    3.23    0.87 
  -5 -11  -5    3.51    0.83 
  -5 -11  -5    1.81    0.59 
  -5 -11  -5    2.51    0.78 
   5  11   5    2.83    0.88 
  -5 -11  -6   49.33    2.68 
  -5 -11  -6   54.53    2.63 
  -5 -11  -6   30.19    2.21 
   5  11   6   52.93    2.95 
  -5 -11  -7    0.94    0.66 
  -5 -11  -7    0.84    0.63 
   5  11   7    0.44    0.68 
  -5 -11  -8   45.97    2.60 
  -5 -11  -8   27.34    2.16 
   5  11   8   43.18    2.71 
  -5 -11  -9    7.89    1.20 
  -5 -11  -9    6.91    1.17 
   5  11   9   10.80    1.48 
  -5 -11 -10   26.27    2.02 
  -5 -11 -10   19.74    1.89 
   5  11  10   29.24    2.29 
  -5 -11 -11   22.62    1.91 
  -5 -11 -11   14.31    1.66 
   5  11  11   21.76    2.02 
  -5 -11 -12    6.24    1.13 
  -5 -11 -12    4.04    0.99 
   5  11  12    7.10    1.26 
  -5 -12  -3    2.45    0.83 
  -5 -12  -3    1.24    0.65 
   5  12   3    1.30    0.78 
  -5 -12  -4   12.10    1.46 
  -5 -12  -4    6.38    1.12 
   5  12   4   10.58    1.48 
  -5 -12  -5   18.46    1.75 
  -5 -12  -5   11.45    1.46 
   5  12   5   20.86    1.99 
  -5 -12  -6    1.67    0.79 
  -5 -12  -6    1.20    0.66 
   5  12   6    1.23    0.78 
  -5 -12  -7   29.17    2.15 
  -5 -12  -7   17.47    1.81 
   5  12   7   26.21    2.22 
  -6   5   8   30.90    2.33 
  -6   5   8   28.16    2.20 
   6  -5  -8   21.19    2.00 
  -6   5   7    9.69    1.39 
  -6   5   7   10.34    1.40 
   6  -5  -7    7.40    1.23 
  -6   5   6   35.54    2.45 
  -6   5   6   35.51    2.41 
   6  -5  -6   27.97    2.23 
  -6   5   5    0.85    0.68 
  -6   5   5    1.81    0.79 
   6  -5  -5    1.33    0.58 
   6  -5  -5    1.51    0.68 
  -6   5   4   39.88    2.56 
  -6   5   4   41.15    2.56 
   6  -5  -4   42.90    2.44 
   6  -5  -4   32.29    2.33 
  -6   5   3    5.45    1.09 
  -6   5   3    4.59    1.00 
   6  -5  -3    5.05    0.95 
   6  -5  -3    3.41    0.86 
  -6   5   2   32.49    2.33 
  -6   5   2   30.70    2.23 
   6  -5  -2   29.17    2.09 
   6  -5  -2   23.53    1.97 
  -6   5   1   18.78    1.82 
  -6   5   1   16.20    1.68 
   6  -5  -1   17.65    1.66 
   6  -5  -1   13.68    1.52 
  -6   5   0   17.85    1.79 
  -6   5   0   18.20    1.78 
   6  -5   0   17.32    1.68 
   6  -5   0   16.05    1.62 
  -6   5  -1   26.00    2.13 
  -6   5  -1   27.34    2.14 
   6  -5   1   25.35    2.04 
   6  -5   1   22.64    1.89 
  -6   5  -2    3.24    0.94 
  -6   5  -2    4.84    1.06 
   6  -5   2    4.09    0.95 
   6  -5   2    4.04    0.91 
  -6   5  -3   30.47    2.34 
  -6   5  -3   34.21    2.43 
   6  -5   3   30.00    2.29 
   6  -5   3   29.67    2.10 
  -6   4  10   27.37    2.15 
  -6   4  10   27.97    2.14 
   6  -4 -10   22.12    2.01 
  -6   4   9   13.64    1.53 
  -6   4   9   14.54    1.57 
   6  -4  -9    9.19    1.33 
  -6   4   8   27.16    2.08 
  -6   4   8   27.52    2.06 
   6  -4  -8   20.39    1.89 
  -6   4   7   33.21    2.26 
  -6   4   7   36.67    2.34 
   6  -4  -7   36.69    2.13 
  -6   4   6   17.23    1.65 
  -6   4   6   17.13    1.62 
   6  -4  -6    7.23    0.97 
   6  -4  -6   13.85    1.54 
  -6   4   5   36.51    2.32 
  -6   4   5   39.14    2.36 
   6  -4  -5   42.80    2.33 
   6  -4  -5   30.17    2.20 
  -6   4   4    4.53    0.94 
  -6   4   4    4.11    0.90 
   6  -4  -4    4.17    0.84 
   6  -4  -4    3.02    0.80 
  -6   4   3   36.89    2.32 
  -6   4   3   42.37    2.43 
   6  -4  -3   45.11    2.45 
   6  -4  -3   32.01    2.22 
  -6   4   2    1.23    0.68 
  -6   4   2    1.43    0.67 
   6  -4  -2    1.76    0.63 
   6  -4  -2    1.40    0.63 
  -6   4   1   48.94    2.67 
  -6   4   1   50.70    2.66 
   6  -4  -1   49.87    2.64 
   6  -4  -1   43.76    2.54 
  -6   4   0   11.47    1.38 
  -6   4   0   13.14    1.43 
   6  -4   0   11.90    1.36 
   6  -4   0   13.89    1.46 
  -6   4  -1   32.43    2.22 
  -6   4  -1   36.68    2.31 
   6  -4   1   33.39    2.24 
   6  -4   1   30.91    2.11 
  -6   4  -2   30.15    2.17 
  -6   4  -2   32.72    2.21 
   6  -4   2   30.32    2.18 
   6  -4   2   33.42    2.17 
  -6   4  -3   10.94    1.39 
  -6   4  -3   11.82    1.41 
  -6   4  -3   10.06    1.24 
   6  -4   3    9.65    1.30 
   6  -4   3   10.64    1.27 
  -6   4  -4   34.09    2.35 
  -6   4  -4   35.35    2.35 
  -6   4  -4   32.09    2.09 
   6  -4   4   30.05    2.25 
  -6   4  -5    0.92    0.69 
  -6   4  -5    1.27    0.69 
  -6   4  -5    0.94    0.55 
   6  -4   5    0.84    0.60 
  -6   4  -6   33.42    2.40 
  -6   4  -6   33.64    2.37 
  -6   4  -6   29.95    2.11 
   6  -4   6   32.55    2.42 
  -6   3  12    2.77    0.84 
  -6   3  12    3.09    0.87 
   6  -3 -12    2.93    0.86 
  -6   3  11   23.28    1.93 
  -6   3  11   26.21    2.02 
   6  -3 -11   18.58    1.82 
  -6   3  10   -0.05    0.49 
  -6   3  10    0.48    0.55 
   6  -3 -10    0.14    0.50 
  -6   3   9   30.26    2.11 
  -6   3   9   28.35    2.02 
   6  -3  -9   23.16    1.96 
  -6   3   8    7.71    1.12 
  -6   3   8    7.14    1.07 
   6  -3  -8    8.12    1.03 
   6  -3  -8    4.89    0.98 
  -6   3   7   49.44    2.59 
  -6   3   7   50.45    2.58 
   6  -3  -7   21.40    1.59 
   6  -3  -7   32.55    2.24 
  -6   3   6   25.59    1.87 
  -6   3   6   27.04    1.88 
   6  -3  -6   26.19    1.79 
   6  -3  -6   19.15    1.73 
  -6   3   5   16.45    1.52 
  -6   3   5   15.78    1.46 
   6  -3  -5   17.57    1.49 
   6  -3  -5   14.82    1.51 
  -6   3   4   77.69    3.14 
  -6   3   4   73.67    3.00 
   6  -3  -4   72.49    2.98 
   6  -3  -4   55.16    2.82 
  -6   3   3    8.86    1.15 
  -6   3   3    9.08    1.14 
   6  -3  -3    8.85    1.11 
   6  -3  -3    6.43    1.03 
  -6   3   2   78.72    3.15 
  -6   3   2   77.65    3.07 
   6  -3  -2   71.93    3.03 
   6  -3  -2   54.84    2.76 
  -6   3   1    1.26    0.65 
  -6   3   1    0.26    0.54 
   6  -3  -1    1.15    0.55 
   6  -3  -1    1.56    0.62 
  -6   3   0   85.77    3.31 
  -6   3   0   87.12    3.27 
  -6   3   0   82.03    2.84 
   6  -3   0   82.09    3.32 
   6  -3   0   69.62    3.05 
  -6   3  -1    9.87    1.24 
  -6   3  -1   10.35    1.23 
  -6   3  -1    7.97    0.98 
   6  -3   1    8.36    1.13 
   6  -3   1    7.89    1.09 
  -6   3  -2   62.05    2.87 
  -6   3  -2   67.97    2.94 
  -6   3  -2   56.88    2.51 
   6  -3   2   60.90    2.94 
   6  -3   2   56.29    2.71 
  -6   3  -3   22.69    1.80 
  -6   3  -3   24.75    1.84 
  -6   3  -3   22.65    1.66 
  -6   3  -3   22.13    1.72 
   6  -3   3   24.96    1.94 
  -6   3  -4   40.60    2.40 
  -6   3  -4   34.42    2.18 
  -6   3  -4   33.27    2.04 
  -6   3  -4   34.48    2.10 
   6  -3   4   34.44    2.30 
  -6   3  -5   40.82    2.45 
  -6   3  -5   40.76    2.39 
  -6   3  -5   39.21    2.28 
  -6   3  -5   38.61    2.19 
   6  -3   5   37.65    2.45 
  -6   3  -6    3.40    0.89 
  -6   3  -6    3.02    0.83 
  -6   3  -6    2.29    0.73 
  -6   3  -6    3.18    0.75 
   6  -3   6    2.96    0.81 
  -6   3  -7   47.05    2.73 
  -6   3  -7   48.82    2.72 
  -6   3  -7   46.55    2.63 
   6  -3   7   45.19    2.78 
  -6   3  -8    1.10    0.68 
  -6   3  -8    1.47    0.71 
  -6   3  -8    1.13    0.67 
   6  -3   8    0.32    0.55 
  -6   2  13   21.42    1.87 
  -6   2  13   21.16    1.85 
   6  -2 -13   19.45    1.85 
  -6   2  12   14.26    1.51 
  -6   2  12   16.59    1.61 
   6  -2 -12   11.29    1.43 
  -6   2  11   15.09    1.52 
  -6   2  11   14.77    1.48 
   6  -2 -11   12.33    1.46 
  -6   2  10   28.97    2.00 
  -6   2  10   30.89    2.04 
   6  -2 -10   32.47    1.95 
   6  -2 -10   23.15    1.93 
  -6   2   9    3.80    0.83 
  -6   2   9    2.55    0.71 
   6  -2  -9    3.04    0.68 
   6  -2  -9    3.25    0.82 
  -6   2   8   63.76    2.82 
  -6   2   8   65.05    2.81 
   6  -2  -8   65.33    2.74 
   6  -2  -8   51.13    2.75 
  -6   2   7    1.19    0.57 
  -6   2   7    1.32    0.57 
   6  -2  -7    1.33    0.54 
   6  -2  -7    1.09    0.58 
  -6   2   6   71.59    2.89 
  -6   2   6   73.76    2.88 
   6  -2  -6   73.18    2.91 
   6  -2  -6   54.12    2.76 
  -6   2   5    9.82    1.13 
  -6   2   5   10.35    1.13 
   6  -2  -5   10.00    1.13 
   6  -2  -5    8.37    1.14 
  -6   2   4   45.44    2.26 
  -6   2   4   42.37    2.14 
  -6   2   4   41.35    1.89 
   6  -2  -4   40.99    2.20 
   6  -2  -4   33.25    2.13 
  -6   2   3   26.69    1.75 
  -6   2   3   25.15    1.66 
  -6   2   3   23.33    1.45 
   6  -2  -3   25.80    1.77 
   6  -2  -3   20.31    1.67 
  -6   2   2   25.97    1.72 
  -6   2   2   25.43    1.66 
  -6   2   2   22.50    1.46 
   6  -2  -2   22.56    1.68 
   6  -2  -2   18.43    1.58 
  -6   2   1   94.92    3.24 
  -6   2   1   97.52    3.20 
  -6   2   1   86.99    2.86 
   6  -2  -1   87.19    3.27 
   6  -2  -1   78.17    3.16 
  -6   2   0    4.21    0.83 
  -6   2   0    4.80    0.84 
  -6   2   0    3.83    0.72 
   6  -2   0    4.41    0.83 
   6  -2   0    3.43    0.76 
  -6   2  -1   83.50    3.08 
  -6   2  -1   84.33    3.01 
  -6   2  -1   76.30    2.80 
   6  -2   1   76.50    3.14 
   6  -2   1   68.55    2.92 
  -6   2  -2    0.28    0.51 
  -6   2  -2    0.00    0.46 
  -6   2  -2    0.31    0.44 
  -6   2  -2    0.39    0.44 
   6  -2   2    0.46    0.47 
  -6   2  -3   68.06    2.85 
  -6   2  -3   70.85    2.83 
  -6   2  -3   62.97    2.67 
  -6   2  -3   58.83    2.67 
   6  -2   3   59.60    2.85 
  -6   2  -4   20.02    1.61 
  -6   2  -4   17.67    1.30 
  -6   2  -4   20.20    1.57 
  -6   2  -4   18.51    1.52 
  -6   2  -4   17.92    1.49 
   6  -2   4   18.92    1.66 
  -6   2  -5   26.36    1.87 
  -6   2  -5   22.50    1.52 
  -6   2  -5   25.01    1.77 
  -6   2  -5   25.07    1.80 
  -6   2  -5   24.07    1.70 
   6  -2   5   22.55    1.83 
  -6   2  -6   28.09    1.96 
  -6   2  -6   26.91    1.71 
  -6   2  -6   29.75    1.97 
  -6   2  -6   26.64    1.91 
  -6   2  -6   13.76    1.28 
   6  -2   6   25.36    1.98 
  -6   2  -7    8.61    1.18 
  -6   2  -7    8.42    1.04 
  -6   2  -7    9.37    1.19 
  -6   2  -7    8.40    1.16 
  -6   2  -7   11.52    1.19 
   6  -2   7    8.56    1.22 
  -6   2  -8   42.60    2.50 
  -6   2  -8   41.26    2.27 
  -6   2  -8   39.31    2.36 
  -6   2  -8   38.87    2.42 
   6  -2   8   40.52    2.58 
  -6   2  -9    1.64    0.70 
  -6   2  -9    1.48    0.65 
  -6   2  -9    0.78    0.63 
   6  -2   9    1.11    0.66 
  -6   2 -10   42.97    2.65 
  -6   2 -10   41.96    2.46 
   6  -2  10   36.90    2.57 
  -6   1  13    2.44    0.76 
  -6   1  13    2.63    0.77 
   6  -1 -13    1.83    0.71 
  -6   1  12   30.03    2.05 
  -6   1  12   29.44    2.02 
   6  -1 -12   25.17    1.99 
  -6   1  11    9.65    1.18 
  -6   1  11    8.88    1.14 
   6  -1 -11    8.69    1.09 
   6  -1 -11    8.97    1.22 
  -6   1  10   20.10    1.61 
  -6   1  10   20.08    1.59 
   6  -1 -10    5.09    0.80 
   6  -1 -10   16.37    1.58 
  -6   1   9   28.71    1.85 
  -6   1   9   31.42    1.91 
   6  -1  -9   30.22    1.89 
   6  -1  -9   22.26    1.80 
  -6   1   8    4.96    0.83 
  -6   1   8    5.99    0.88 
   6  -1  -8    4.50    0.82 
   6  -1  -8    3.63    0.81 
  -6   1   7   48.39    2.28 
  -6   1   7   52.66    2.34 
  -6   1   7   52.54    2.19 
   6  -1  -7   49.86    2.39 
   6  -1  -7   36.21    2.22 
  -6   1   6    2.83    0.65 
  -6   1   6    3.89    0.71 
  -6   1   6    3.05    0.64 
   6  -1  -6    2.72    0.66 
   6  -1  -6    2.81    0.72 
  -6   1   5   70.05    2.65 
  -6   1   5   70.73    2.60 
  -6   1   5   69.91    2.50 
   6  -1  -5   65.72    2.73 
   6  -1  -5   48.18    2.50 
  -6   1   4   10.50    1.07 
  -6   1   4    8.76    0.84 
  -6   1   4   10.29    1.04 
  -6   1   4   10.16    1.02 
   6  -1  -4    9.57    1.09 
   6  -1  -4    6.74    0.99 
  -6   1   3   72.22    2.63 
  -6   1   3   71.57    2.22 
  -6   1   3   76.13    2.63 
  -6   1   3   69.25    2.51 
   6  -1  -3   67.21    2.77 
   6  -1  -3   56.44    2.66 
  -6   1   2   49.82    2.18 
  -6   1   2   49.21    1.86 
  -6   1   2   51.72    2.16 
  -6   1   2   46.74    2.08 
   6  -1  -2   44.13    2.26 
   6  -1  -2   38.54    2.18 
  -6   1   1   30.82    1.73 
  -6   1   1   28.26    1.44 
  -6   1   1   28.64    1.62 
  -6   1   1   25.71    1.58 
   6  -1  -1   28.77    1.85 
   6  -1  -1   24.67    1.75 
  -6   1   0   64.59    2.50 
  -6   1   0   60.57    2.13 
  -6   1   0   64.34    2.41 
  -6   1   0   60.98    2.44 
  -6   1   0   48.25    2.40 
   6  -1   0   58.24    2.63 
   6  -1   0   52.08    2.50 
  -6   1  -1    4.00    0.75 
  -6   1  -1    4.54    0.68 
  -6   1  -1    4.02    0.71 
  -6   1  -1    4.04    0.74 
  -6   1  -1    3.93    0.77 
   6  -1   1    3.78    0.76 
  -6   1  -2   87.49    2.96 
  -6   1  -2   82.26    2.61 
  -6   1  -2   82.33    2.78 
  -6   1  -2   78.69    2.88 
  -6   1  -2   72.83    2.91 
   6  -1   2   77.77    3.10 
  -6   1  -3   -0.29    0.41 
  -6   1  -3    0.13    0.39 
  -6   1  -3    0.06    0.41 
  -6   1  -3    0.72    0.48 
  -6   1  -3    0.13    0.42 
   6  -1   3    0.09    0.40 
  -6   1  -4   74.48    2.82 
  -6   1  -4   69.55    2.55 
  -6   1  -4   73.34    2.72 
  -6   1  -4   71.50    2.87 
  -6   1  -4   62.78    2.67 
   6  -1   4   68.25    2.99 
  -6   1  -5    3.17    0.73 
  -6   1  -5    3.86    0.72 
  -6   1  -5    3.26    0.71 
  -6   1  -5    2.73    0.70 
  -6   1  -5    2.89    0.68 
   6  -1   5    3.77    0.80 
  -6   1  -6   24.97    1.74 
  -6   1  -6   26.97    1.71 
  -6   1  -6   26.63    1.73 
  -6   1  -6   25.17    1.81 
  -6   1  -6   24.52    1.67 
   6  -1   6   24.28    1.87 
  -6   1  -7   22.52    1.69 
  -6   1  -7   21.35    1.59 
  -6   1  -7   23.11    1.67 
  -6   1  -7   23.46    1.81 
   6  -1   7   20.36    1.75 
  -6   1  -8   18.56    1.59 
  -6   1  -8   19.79    1.59 
  -6   1  -8   19.16    1.57 
  -6   1  -8   16.73    1.59 
  -6   1  -8   20.64    1.53 
   6  -1   8   19.47    1.74 
  -6   1  -9   44.96    2.49 
  -6   1  -9   43.40    2.39 
  -6   1  -9   41.67    2.52 
  -6   1  -9   45.35    2.22 
   6  -1   9   41.06    2.55 
  -6   1 -10    1.13    0.63 
  -6   1 -10    0.39    0.53 
  -6   1 -10    0.69    0.59 
   6  -1  10    1.12    0.62 
  -6   1 -11   28.82    2.13 
  -6   1 -11   29.80    2.14 
   6  -1  11   32.60    2.38 
  -6   1 -12    0.31    0.59 
  -6   1 -12    1.04    0.65 
  -6   0  14    0.32    0.51 
   6   0 -14    0.22    0.52 
  -6   0  13   16.68    1.55 
   6   0 -13   15.29    1.56 
  -6   0  12    1.70    0.64 
  -6   0  12    2.16    0.67 
  -6   0  12    1.89    0.66 
   6   0 -12    1.63    0.67 
  -6   0  11   33.07    2.01 
  -6   0  11   33.83    2.02 
   6   0 -11   34.84    2.09 
   6   0 -11   28.42    2.02 
  -6   0  10    6.70    0.94 
  -6   0  10    7.40    0.98 
  -6   0  10    6.16    0.89 
   6   0 -10    5.27    0.88 
   6   0 -10    4.45    0.88 
  -6   0   9   17.48    1.40 
  -6   0   9   18.23    1.34 
  -6   0   9   19.39    1.45 
  -6   0   9   19.13    1.44 
   6   0  -9   17.41    1.47 
   6   0  -9   15.96    1.50 
  -6   0   8   14.83    1.26 
  -6   0   8   14.23    1.16 
  -6   0   8   15.86    1.28 
  -6   0   8   15.10    1.27 
   6   0  -8   12.84    1.26 
   6   0  -8    9.89    1.19 
  -6   0   7   14.73    1.22 
  -6   0   7   15.91    1.19 
  -6   0   7   13.96    1.17 
  -6   0   7   13.82    1.20 
   6   0  -7   12.21    1.22 
   6   0  -7   10.44    1.20 
  -6   0   6   68.67    2.50 
  -6   0   6   73.57    2.46 
  -6   0   6   74.01    2.54 
  -6   0   6   74.13    2.66 
   6   0  -6   61.87    2.64 
   6   0  -6   50.78    2.53 
  -6   0   5    1.80    0.54 
  -6   0   5    2.24    0.54 
  -6   0   5    1.78    0.51 
  -6   0   5    1.50    0.52 
   6   0  -5    1.25    0.52 
   6   0  -5    2.25    0.65 
  -6   0   4   69.89    2.43 
  -6   0   4   73.44    2.39 
  -6   0   4   75.43    2.45 
  -6   0   4   69.73    2.56 
   6   0  -4   65.31    2.69 
   6   0  -4   53.90    2.55 
  -6   0   3   11.70    1.03 
  -6   0   3   12.62    1.03 
  -6   0   3   12.05    1.00 
  -6   0   3   12.18    1.11 
   6   0  -3    9.41    1.07 
   6   0  -3    9.31    1.10 
  -6   0   2   43.40    1.88 
  -6   0   2   42.66    1.83 
  -6   0   2   46.86    1.88 
  -6   0   2   40.64    1.97 
  -6   0   2   31.40    1.92 
   6   0  -2   36.94    2.04 
   6   0  -2   29.86    1.88 
  -6   0   1   39.94    1.80 
  -6   0   1   40.25    1.78 
  -6   0   1   39.00    1.71 
  -6   0   1   35.88    1.87 
  -6   0   1   28.36    1.82 
   6   0  -1   34.82    1.99 
  -6   0   0   45.59    1.93 
  -6   0   0   41.86    1.84 
  -6   0   0   41.77    1.78 
  -6   0   0   43.14    2.07 
  -6   0   0   33.95    1.98 
   6   0   0   37.03    2.05 
  -6   0  -1   60.45    2.24 
  -6   0  -1   60.53    2.24 
  -6   0  -1   65.71    2.24 
  -6   0  -1   61.50    2.49 
  -6   0  -1   47.18    2.31 
   6   0   1   54.54    2.51 
  -6   0  -2   25.53    1.50 
  -6   0  -2   23.75    1.45 
  -6   0  -2   27.11    1.48 
  -6   0  -2   24.60    1.63 
  -6   0  -2   21.09    1.56 
   6   0   2   23.06    1.66 
  -6   0  -3  101.27    2.99 
  -6   0  -3   96.76    2.97 
  -6   0  -3  101.26    2.88 
  -6   0  -3   99.61    3.28 
  -6   0  -3   85.84    3.09 
   6   0   3   90.87    3.30 
  -6   0  -4    0.76    0.46 
  -6   0  -4    0.38    0.43 
  -6   0  -4    0.82    0.44 
  -6   0  -4    0.95    0.54 
  -6   0  -4    0.22    0.40 
   6   0   4    0.94    0.51 
  -6   0  -5  105.88    3.20 
  -6   0  -5  100.02    3.18 
  -6   0  -5  102.53    3.03 
  -6   0  -5  104.16    3.51 
  -6   0  -5   89.44    3.13 
   6   0   5   97.15    3.51 
  -6   0  -6    3.59    0.72 
  -6   0  -6    3.88    0.75 
  -6   0  -6    3.52    0.68 
  -6   0  -6    3.70    0.79 
  -6   0  -6    3.88    0.74 
   6   0   6    3.89    0.80 
  -6   0  -7   53.19    2.40 
  -6   0  -7   54.97    2.50 
  -6   0  -7   57.81    2.41 
  -6   0  -7   55.64    2.69 
  -6   0  -7   54.75    2.44 
   6   0   7   54.64    2.72 
  -6   0  -8   18.92    1.51 
  -6   0  -8   18.32    1.52 
  -6   0  -8   20.58    1.71 
   6   0   8   18.68    1.65 
  -6   0  -9   36.14    2.11 
  -6   0  -9   38.38    2.23 
  -6   0  -9   38.22    2.36 
  -6   0  -9   36.23    1.98 
   6   0   9   36.70    2.32 
  -6   0 -10   24.51    1.81 
  -6   0 -10   24.82    1.87 
  -6   0 -10   25.40    2.00 
  -6   0 -10   28.96    1.79 
   6   0  10   26.29    2.01 
  -6   0 -11   12.45    1.38 
  -6   0 -11   12.61    1.42 
  -6   0 -11   13.57    1.54 
   6   0  11   13.07    1.48 
  -6   0 -12   22.42    1.86 
  -6   0 -12   23.05    1.94 
   6   0  12   23.65    2.00 
  -6   0 -13    0.86    0.65 
  -6   0 -13    1.00    0.68 
   6   0  13    0.31    0.54 
  -6  -1  14   20.16    1.71 
  -6  -1  14   20.03    1.72 
  -6  -1  14   20.18    1.73 
  -6  -1  13    4.30    0.86 
  -6  -1  13    4.86    0.91 
  -6  -1  13    4.24    0.86 
  -6  -1  13    5.68    0.99 
  -6  -1  13    4.33    0.88 
  -6  -1  12   35.04    2.08 
  -6  -1  12   39.30    2.23 
  -6  -1  12   36.37    2.18 
  -6  -1  12   34.61    2.06 
  -6  -1  12   36.16    2.21 
  -6  -1  12   30.85    2.07 
   6   1 -12   34.13    2.05 
  -6  -1  11    0.41    0.46 
  -6  -1  11    0.37    0.46 
  -6  -1  11    0.14    0.45 
  -6  -1  11    0.40    0.44 
  -6  -1  11    0.56    0.50 
  -6  -1  11    0.33    0.45 
   6   1 -11    0.11    0.44 
   6   1 -11    0.05    0.44 
  -6  -1  10   40.10    2.05 
  -6  -1  10   42.52    2.18 
  -6  -1  10   40.82    2.06 
  -6  -1  10   42.40    2.23 
  -6  -1  10   34.93    2.15 
   6   1 -10   36.22    1.94 
   6   1 -10   41.64    2.29 
  -6  -1   9    6.66    0.87 
  -6  -1   9    6.34    0.89 
  -6  -1   9    6.01    0.83 
  -6  -1   9    5.12    0.84 
  -6  -1   9    4.55    0.84 
   6   1  -9    4.86    0.77 
   6   1  -9    5.85    0.91 
  -6  -1   8   51.37    2.16 
  -6  -1   8   55.34    2.36 
  -6  -1   8   51.40    2.13 
  -6  -1   8   49.98    2.33 
  -6  -1   8   38.41    2.20 
   6   1  -8   44.98    1.97 
   6   1  -8   49.66    2.43 
  -6  -1   7   31.08    1.63 
  -6  -1   7   30.13    1.71 
  -6  -1   7   31.26    1.61 
  -6  -1   7   27.05    1.70 
  -6  -1   7   21.89    1.66 
   6   1  -7   25.29    1.43 
   6   1  -7   25.15    1.73 
  -6  -1   6   34.47    1.66 
  -6  -1   6   33.42    1.76 
  -6  -1   6   34.06    1.62 
  -6  -1   6   32.19    1.82 
  -6  -1   6   23.03    1.68 
   6   1  -6   27.96    1.43 
   6   1  -6   30.33    1.87 
  -6  -1   5   32.02    1.56 
  -6  -1   5   33.55    1.73 
  -6  -1   5   31.64    1.50 
  -6  -1   5   30.77    1.76 
  -6  -1   5   22.79    1.66 
   6   1  -5   29.23    1.40 
   6   1  -5   29.19    1.82 
  -6  -1   4   11.31    0.94 
  -6  -1   4   10.55    1.00 
  -6  -1   4   10.84    0.89 
  -6  -1   4   11.50    1.11 
  -6  -1   4    7.97    1.01 
   6   1  -4   10.52    0.83 
   6   1  -4    9.40    1.06 
  -6  -1   3   51.74    1.89 
  -6  -1   3   49.62    2.05 
  -6  -1   3   51.93    1.82 
  -6  -1   3   48.28    2.18 
  -6  -1   3   36.79    2.06 
   6   1  -3   47.22    1.65 
   6   1  -3   44.26    2.21 
  -6  -1   2    0.34    0.34 
  -6  -1   2    0.23    0.39 
  -6  -1   2    0.43    0.33 
  -6  -1   2    0.29    0.41 
  -6  -1   2    0.43    0.44 
   6   1  -2    0.19    0.29 
   6   1  -2    0.55    0.43 
  -6  -1   1   71.68    2.18 
  -6  -1   1   65.53    2.36 
  -6  -1   1   68.90    2.03 
  -6  -1   1   67.11    2.56 
  -6  -1   1   53.80    2.45 
   6   1  -1   68.30    1.90 
   6   1  -1   60.52    2.57 
  -6  -1   0    7.40    0.76 
  -6  -1   0    6.79    0.84 
  -6  -1   0    7.34    0.71 
  -6  -1   0    6.85    0.90 
  -6  -1   0    5.87    0.86 
   6   1   0    8.16    0.70 
   6   1   0    6.06    0.88 
  -6  -1  -1  100.29    2.62 
  -6  -1  -1  100.33    2.96 
  -6  -1  -1  100.18    2.48 
  -6  -1  -1   97.77    3.15 
  -6  -1  -1   73.26    2.83 
   6   1   1  104.78    2.35 
   6   1   1   88.94    3.14 
  -6  -1  -2   54.80    1.97 
  -6  -1  -2   53.03    2.19 
  -6  -1  -2   55.80    1.88 
  -6  -1  -2   52.15    2.33 
  -6  -1  -2   42.89    2.16 
   6   1   2   61.98    1.83 
   6   1   2   53.58    2.46 
  -6  -1  -3   39.79    1.72 
  -6  -1  -3   43.31    2.02 
  -6  -1  -3   41.44    1.66 
  -6  -1  -3   40.07    2.08 
  -6  -1  -3   34.72    1.95 
   6   1   3   46.81    1.63 
   6   1   3   40.03    2.15 
  -6  -1  -4   93.87    2.70 
  -6  -1  -4   96.32    3.07 
  -6  -1  -4   90.75    2.52 
  -6  -1  -4   92.16    3.20 
  -6  -1  -4   77.75    2.90 
   6   1   4  113.43    2.63 
   6   1   4   85.20    3.15 
  -6  -1  -5   12.39    1.06 
  -6  -1  -5   12.49    1.18 
  -6  -1  -5   12.89    1.01 
  -6  -1  -5   12.01    1.23 
  -6  -1  -5    9.69    1.07 
   6   1   5   15.30    1.02 
   6   1   5   12.42    1.26 
  -6  -1  -6   54.07    2.18 
  -6  -1  -6   56.15    2.46 
  -6  -1  -6   55.37    2.11 
  -6  -1  -6   56.00    2.60 
  -6  -1  -6   50.66    2.34 
   6   1   6   65.64    2.15 
   6   1   6   57.90    2.67 
  -6  -1  -7    1.70    0.55 
  -6  -1  -7    1.52    0.59 
  -6  -1  -7    1.30    0.57 
  -6  -1  -7    1.39    0.53 
   6   1   7    1.71    0.48 
   6   1   7    0.98    0.53 
  -6  -1  -8   49.31    2.23 
  -6  -1  -8   52.35    2.51 
  -6  -1  -8   51.06    2.60 
  -6  -1  -8   53.07    2.40 
   6   1   8   62.15    2.28 
   6   1   8   52.54    2.63 
  -6  -1  -9    5.98    0.89 
  -6  -1  -9    6.91    1.02 
  -6  -1  -9    6.50    1.05 
  -6  -1  -9    5.12    0.81 
   6   1   9    7.16    0.88 
   6   1   9    5.57    0.95 
  -6  -1 -10   49.43    2.40 
  -6  -1 -10   53.09    2.68 
  -6  -1 -10   53.45    2.81 
  -6  -1 -10   52.21    2.39 
   6   1  10   60.52    2.45 
   6   1  10   52.89    2.74 
  -6  -1 -11   29.76    1.95 
  -6  -1 -11   32.88    2.20 
  -6  -1 -11   32.77    2.28 
  -6  -1 -11   35.82    1.99 
   6   1  11   35.30    1.96 
   6   1  11   36.08    2.32 
  -6  -1 -12   21.26    1.73 
  -6  -1 -12   21.32    1.85 
   6   1  12   22.48    1.65 
   6   1  12   24.51    1.96 
  -6  -1 -13   27.92    2.03 
  -6  -1 -13   30.52    2.26 
   6   1  13   30.99    2.00 
   6   1  13   28.39    2.15 
  -6  -1 -14    3.50    0.89 
  -6  -1 -14    3.65    0.96 
   6   1  14    3.60    0.81 
   6   1  14    3.36    0.88 
  -6  -2  13   16.90    1.61 
  -6  -2  13   13.94    1.48 
  -6  -2  13   18.41    1.67 
  -6  -2  13   16.84    1.62 
  -6  -2  13   13.87    1.40 
   6   2 -13   16.62    1.59 
  -6  -2  12    8.57    1.15 
  -6  -2  12    7.19    1.09 
  -6  -2  12    5.84    1.00 
  -6  -2  12    6.38    0.99 
   6   2 -12    7.26    1.07 
  -6  -2  11   43.89    2.39 
  -6  -2  11   44.01    2.43 
  -6  -2  11   43.40    2.44 
  -6  -2  11   37.23    2.19 
   6   2 -11   43.10    2.31 
  -6  -2  10    1.41    0.54 
  -6  -2  10    1.48    0.61 
  -6  -2  10    1.74    0.63 
  -6  -2  10    0.97    0.55 
  -6  -2  10    1.07    0.53 
   6   2 -10    0.33    0.29 
   6   2 -10    1.38    0.59 
  -6  -2   9   63.65    2.38 
  -6  -2   9   64.96    2.74 
  -6  -2   9   60.29    2.70 
  -6  -2   9   52.74    2.54 
   6   2  -9   49.33    2.28 
   6   2  -9   55.33    2.65 
  -6  -2   8    4.80    0.71 
  -6  -2   8    3.46    0.73 
  -6  -2   8    4.05    0.66 
  -6  -2   8    5.47    0.88 
  -6  -2   8    4.03    0.78 
   6   2  -8    4.24    0.73 
   6   2  -8    3.73    0.77 
  -6  -2   7   35.97    1.65 
  -6  -2   7   34.87    1.93 
  -6  -2   7   34.07    1.59 
  -6  -2   7   34.07    1.97 
  -6  -2   7   26.75    1.79 
   6   2  -7   31.44    1.70 
   6   2  -7   29.27    1.88 
  -6  -2   6   19.39    1.18 
  -6  -2   6   19.29    1.42 
  -6  -2   6   19.25    1.15 
  -6  -2   6   18.81    1.46 
  -6  -2   6   14.82    1.34 
   6   2  -6   18.65    1.28 
   6   2  -6   15.45    1.37 
  -6  -2   5   90.80    2.41 
  -6  -2   5   87.13    2.91 
  -6  -2   5   89.87    2.33 
  -6  -2   5   83.27    2.97 
  -6  -2   5   64.44    2.72 
   6   2  -5   82.16    2.56 
   6   2  -5   75.67    2.94 
  -6  -2   4   47.79    1.68 
  -6  -2   4   43.39    2.03 
  -6  -2   4   49.99    1.66 
  -6  -2   4   45.89    2.19 
  -6  -2   4   34.44    1.98 
   6   2  -4   44.70    1.83 
   6   2  -4   40.61    2.14 
  -6  -2   3   40.82    1.51 
  -6  -2   3   40.59    1.95 
  -6  -2   3   41.76    1.45 
  -6  -2   3   38.09    1.98 
  -6  -2   3   27.43    1.76 
   6   2  -3   39.34    1.67 
   6   2  -3   36.89    2.02 
  -6  -2   2   63.34    1.84 
  -6  -2   2   59.71    2.33 
  -6  -2   2   66.17    1.77 
  -6  -2   2   59.62    2.45 
  -6  -2   2   44.66    2.22 
   6   2  -2   62.58    2.06 
   6   2  -2   56.72    2.49 
  -6  -2   1    8.47    0.71 
  -6  -2   1    7.82    0.91 
  -6  -2   1    8.28    0.65 
  -6  -2   1    6.80    0.90 
  -6  -2   1    6.20    0.88 
   6   2  -1    7.66    0.76 
   6   2  -1    7.57    0.95 
  -6  -2   0   87.31    2.14 
  -6  -2   0   83.52    2.76 
  -6  -2   0   90.69    2.01 
  -6  -2   0   83.22    2.90 
  -6  -2   0   62.68    2.60 
   6   2   0   93.69    2.46 
   6   2   0   76.45    2.87 
  -6  -2  -1    1.07    0.37 
  -6  -2  -1    0.52    0.45 
  -6  -2  -1    0.72    0.32 
  -6  -2  -1    1.04    0.51 
  -6  -2  -1    1.37    0.51 
   6   2   1    1.03    0.39 
   6   2   1    0.88    0.47 
  -6  -2  -2   78.64    2.09 
  -6  -2  -2   77.77    2.71 
  -6  -2  -2   76.81    1.90 
  -6  -2  -2   76.77    2.83 
  -6  -2  -2   59.10    2.52 
   6   2   2   83.15    2.33 
   6   2   2   72.96    2.82 
  -6  -2  -3   34.55    1.43 
  -6  -2  -3   34.60    1.84 
  -6  -2  -3   32.64    1.28 
  -6  -2  -3   36.58    1.99 
  -6  -2  -3   29.84    1.80 
   6   2   3   39.18    1.62 
   6   2   3   31.24    1.86 
  -6  -2  -4   49.27    1.76 
  -6  -2  -4   49.38    2.23 
  -6  -2  -4   48.79    1.63 
  -6  -2  -4   53.65    2.43 
  -6  -2  -4   41.96    2.12 
   6   2   4   58.21    2.02 
   6   2   4   52.13    2.42 
  -6  -2  -5   58.70    2.00 
  -6  -2  -5   66.15    2.63 
  -6  -2  -5   63.24    2.68 
  -6  -2  -5   56.53    2.46 
   6   2   5   76.31    2.37 
   6   2   5   60.39    2.62 
  -6  -2  -6   24.01    1.35 
  -6  -2  -6   26.84    1.73 
  -6  -2  -6   27.69    1.83 
  -6  -2  -6   22.83    1.59 
   6   2   6   30.03    1.55 
   6   2   6   22.97    1.66 
  -6  -2  -7   71.25    2.39 
  -6  -2  -7   76.62    2.96 
  -6  -2  -7   70.45    2.95 
  -6  -2  -7   66.81    2.69 
   6   2   7   86.19    2.69 
   6   2   7   70.15    2.90 
  -6  -2  -8    2.86    0.60 
  -6  -2  -8    3.11    0.75 
  -6  -2  -8    2.86    0.73 
  -6  -2  -8    2.85    0.67 
   6   2   8    3.84    0.68 
   6   2   8    2.36    0.66 
  -6  -2  -9   68.87    2.56 
  -6  -2  -9   81.76    3.23 
  -6  -2  -9   76.17    3.20 
  -6  -2  -9   76.66    2.90 
   6   2   9   92.90    3.00 
   6   2   9   78.29    3.16 
  -6  -2 -10    2.67    0.65 
  -6  -2 -10    2.49    0.73 
  -6  -2 -10    3.36    0.82 
  -6  -2 -10    2.94    0.70 
   6   2  10    3.65    0.73 
   6   2  10    3.72    0.81 
  -6  -2 -11   47.95    2.32 
  -6  -2 -11   53.51    2.77 
  -6  -2 -11   47.06    2.66 
  -6  -2 -11   51.89    2.40 
   6   2  11   12.27    1.18 
   6   2  11   57.01    2.79 
  -6  -2 -12   10.15    1.17 
  -6  -2 -12   11.22    1.37 
  -6  -2 -12   11.54    1.42 
  -6  -2 -12   12.49    1.24 
   6   2  12    9.20    1.10 
   6   2  12   12.97    1.41 
  -6  -2 -13    9.41    1.19 
  -6  -2 -13   10.83    1.40 
   6   2  13   12.07    1.31 
   6   2  13   11.94    1.39 
  -6  -2 -14   26.70    1.97 
  -6  -2 -14   28.15    2.22 
   6   2  14   29.61    2.06 
   6   2  14   30.10    2.18 
  -6  -3  13   19.14    1.78 
  -6  -3  13   18.31    1.74 
  -6  -3  13   19.21    1.77 
   6   3 -13   19.87    1.79 
  -6  -3  12    9.34    1.25 
  -6  -3  12    8.63    1.22 
  -6  -3  12    9.43    1.15 
   6   3 -12    8.37    1.19 
  -6  -3  11   16.58    1.57 
  -6  -3  11   14.52    1.48 
  -6  -3  11   14.86    1.52 
  -6  -3  11   15.35    1.41 
   6   3 -11   14.73    1.46 
  -6  -3  10   36.17    2.21 
  -6  -3  10   36.29    2.23 
  -6  -3  10   37.28    2.28 
  -6  -3  10   32.55    2.00 
   6   3 -10   35.65    2.13 
  -6  -3   9    4.55    0.87 
  -6  -3   9    3.65    0.80 
  -6  -3   9    4.20    0.85 
  -6  -3   9    4.41    0.81 
   6   3  -9    6.10    0.94 
   6   3  -9    4.03    0.84 
  -6  -3   8   46.83    2.38 
  -6  -3   8   44.13    2.35 
  -6  -3   8   43.68    2.37 
  -6  -3   8   36.92    2.08 
   6   3  -8   47.25    2.28 
   6   3  -8   41.32    2.31 
  -6  -3   7    0.17    0.45 
  -6  -3   7    0.20    0.44 
  -6  -3   7    0.29    0.40 
   6   3  -7   -0.43    0.34 
   6   3  -7    0.13    0.42 
  -6  -3   6   86.68    3.09 
  -6  -3   6   87.43    3.18 
  -6  -3   6   71.59    2.85 
   6   3  -6   80.89    2.79 
   6   3  -6   75.16    3.01 
  -6  -3   5    7.90    0.99 
  -6  -3   5    6.63    0.93 
  -6  -3   5    5.67    0.86 
   6   3  -5    0.09    0.15 
   6   3  -5    6.53    0.94 
  -6  -3   4   68.19    2.65 
  -6  -3   4   66.49    2.69 
  -6  -3   4   54.54    2.46 
   6   3  -4   61.39    2.30 
   6   3  -4   58.41    2.58 
  -6  -3   3   59.76    2.45 
  -6  -3   3   59.43    2.52 
  -6  -3   3   44.49    2.21 
   6   3  -3   60.40    2.23 
   6   3  -3   57.03    2.53 
  -6  -3   2   17.83    1.35 
  -6  -3   2   16.98    1.37 
  -6  -3   2   11.91    1.17 
   6   3  -2   16.56    1.18 
   6   3  -2   15.57    1.34 
  -6  -3   1   45.77    2.11 
  -6  -3   1   45.34    2.18 
  -6  -3   1   31.45    1.85 
   6   3  -1   45.57    1.88 
   6   3  -1   41.05    2.12 
  -6  -3   0    7.19    0.91 
  -6  -3   0    8.11    0.99 
  -6  -3   0    4.84    0.78 
   6   3   0    7.76    0.83 
   6   3   0    6.84    0.91 
  -6  -3  -1  117.38    3.39 
  -6  -3  -1  113.64    3.46 
  -6  -3  -1   85.20    3.02 
   6   3   1  127.37    3.11 
   6   3   1  113.06    3.49 
  -6  -3  -2    0.12    0.42 
  -6  -3  -2    0.18    0.43 
  -6  -3  -2    0.02    0.35 
   6   3   2   -0.06    0.33 
   6   3   2    0.16    0.36 
  -6  -3  -3   59.89    1.60 
  -6  -3  -3   65.24    2.57 
  -6  -3  -3   66.52    2.68 
  -6  -3  -3   51.21    2.35 
   6   3   3   74.67    2.40 
   6   3   3   60.18    2.55 
  -6  -3  -4    8.58    0.67 
  -6  -3  -4    9.52    1.05 
  -6  -3  -4    9.14    1.07 
  -6  -3  -4    7.23    0.94 
   6   3   4   10.76    0.96 
   6   3   4    9.25    1.04 
  -6  -3  -5   72.35    1.97 
  -6  -3  -5   81.97    2.96 
  -6  -3  -5   81.95    3.05 
  -6  -3  -5   70.82    2.77 
   6   3   5   92.67    2.76 
   6   3   5   77.88    2.93 
  -6  -3  -6   38.81    1.53 
  -6  -3  -6   47.94    2.32 
  -6  -3  -6   45.05    2.31 
  -6  -3  -6   41.42    2.13 
   6   3   6   52.96    2.14 
   6   3   6   43.39    2.21 
  -6  -3  -7   16.65    1.08 
  -6  -3  -7   22.97    1.66 
  -6  -3  -7   21.38    1.64 
  -6  -3  -7   17.63    1.43 
   6   3   7   19.00    1.50 
  -6  -3  -8   54.14    2.01 
  -6  -3  -8   67.43    2.86 
  -6  -3  -8   67.00    2.91 
  -6  -3  -8   56.71    2.51 
   6   3   8   35.13    1.83 
   6   3   8   68.60    2.84 
  -6  -3  -9    2.99    0.59 
  -6  -3  -9    3.03    0.77 
  -6  -3  -9    2.79    0.74 
  -6  -3  -9    2.17    0.65 
   6   3   9    3.41    0.69 
   6   3   9    3.36    0.73 
  -6  -3 -10   61.31    2.37 
  -6  -3 -10   74.69    3.17 
  -6  -3 -10   73.44    3.18 
  -6  -3 -10   68.41    2.79 
   6   3  10   87.87    3.10 
   6   3  10   70.56    2.96 
  -6  -3 -11    0.08    0.40 
  -6  -3 -11    0.54    0.56 
  -6  -3 -11    0.53    0.55 
  -6  -3 -11    0.48    0.49 
   6   3  11    0.77    0.51 
   6   3  11    0.39    0.46 
  -6  -3 -12   52.55    2.40 
  -6  -3 -12   65.79    3.14 
  -6  -3 -12   62.27    3.08 
   6   3  12   70.05    2.95 
   6   3  12   65.25    2.94 
  -6  -3 -13    4.12    0.82 
  -6  -3 -13    4.33    0.96 
  -6  -3 -13    3.77    0.92 
  -6  -3 -13    5.42    0.90 
   6   3  13    5.24    0.94 
   6   3  13    5.52    0.95 
  -6  -3 -14   16.97    1.53 
  -6  -3 -14   20.55    1.90 
   6   3  14   24.30    1.89 
   6   3  14   22.41    1.82 
  -6  -3 -15    8.79    1.21 
  -6  -3 -15    8.98    1.37 
   6   3  15   10.83    1.36 
   6   3  15   10.89    1.35 
  -6  -4  13   -0.03    0.53 
  -6  -4  13    0.05    0.54 
   6   4 -13    0.35    0.61 
  -6  -4  12   25.12    2.04 
  -6  -4  12   22.86    1.94 
   6   4 -12   28.24    2.13 
  -6  -4  11    6.37    1.08 
  -6  -4  11    5.50    1.02 
  -6  -4  11    6.74    1.11 
  -6  -4  11    4.79    0.85 
   6   4 -11    6.11    1.05 
  -6  -4  10   22.75    1.84 
  -6  -4  10   19.64    1.73 
  -6  -4  10   17.94    1.66 
  -6  -4  10   21.49    1.61 
   6   4 -10   21.29    1.75 
  -6  -4   9   25.84    1.91 
  -6  -4   9   26.30    1.93 
  -6  -4   9   22.78    1.82 
  -6  -4   9   23.13    1.66 
   6   4  -9   24.02    1.79 
  -6  -4   8    8.76    1.14 
  -6  -4   8    8.91    1.16 
  -6  -4   8    7.52    1.07 
  -6  -4   8    5.79    0.89 
   6   4  -8    8.43    1.09 
  -6  -4   7   47.11    2.43 
  -6  -4   7   45.20    2.41 
  -6  -4   7   42.37    2.36 
  -6  -4   7   39.07    2.11 
   6   4  -7   49.40    2.39 
   6   4  -7   41.65    2.34 
  -6  -4   6    1.02    0.57 
  -6  -4   6    0.80    0.52 
  -6  -4   6    0.53    0.43 
   6   4  -6    0.76    0.50 
   6   4  -6    0.76    0.49 
  -6  -4   5  113.40    3.62 
  -6  -4   5  107.70    3.59 
  -6  -4   5   87.55    3.12 
   6   4  -5  116.55    3.47 
   6   4  -5  102.55    3.54 
  -6  -4   4    5.78    0.89 
  -6  -4   4    6.86    0.96 
  -6  -4   4    5.11    0.82 
   6   4  -4    6.70    0.89 
   6   4  -4    5.09    0.85 
  -6  -4   3   92.78    3.17 
  -6  -4   3   92.29    3.23 
  -6  -4   3   70.23    2.78 
   6   4  -3   92.38    2.95 
   6   4  -3   80.22    3.04 
  -6  -4   2    9.99    1.09 
  -6  -4   2   11.34    1.17 
  -6  -4   2    6.61    0.91 
   6   4  -2    9.92    1.00 
   6   4  -2    9.52    1.08 
  -6  -4   1   49.66    2.28 
  -6  -4   1   51.05    2.37 
  -6  -4   1   38.98    2.06 
   6   4  -1   54.53    2.20 
   6   4  -1   48.83    2.33 
  -6  -4   0   43.52    2.13 
  -6  -4   0   44.77    2.21 
  -6  -4   0   31.82    1.87 
   6   4   0   46.71    2.02 
   6   4   0   41.09    2.12 
  -6  -4  -1   13.97    1.25 
  -6  -4  -1   14.95    1.31 
  -6  -4  -1   10.53    1.12 
   6   4   1   14.33    1.15 
   6   4   1   13.12    1.22 
  -6  -4  -2   39.40    2.04 
  -6  -4  -2   40.04    2.09 
  -6  -4  -2   29.11    1.79 
   6   4   2   47.73    2.03 
   6   4   2   37.29    2.00 
  -6  -4  -3   -0.15    0.39 
  -6  -4  -3    0.41    0.44 
  -6  -4  -3    0.31    0.41 
   6   4   3   -0.06    0.34 
   6   4   3   -0.31    0.31 
  -6  -4  -4   69.17    2.73 
  -6  -4  -4   74.64    2.88 
  -6  -4  -4   60.69    2.58 
   6   4   4   82.37    2.70 
   6   4   4   67.92    2.69 
  -6  -4  -5    1.93    0.61 
  -6  -4  -5    1.64    0.60 
  -6  -4  -5    1.83    0.58 
   6   4   5    2.47    0.59 
   6   4   5    1.98    0.57 
  -6  -4  -6   57.91    2.58 
  -6  -4  -6   58.95    2.63 
  -6  -4  -6   45.67    2.27 
   6   4   6   59.19    2.36 
   6   4   6   54.63    2.43 
  -6  -4  -7   16.23    1.43 
  -6  -4  -7   16.59    1.45 
  -6  -4  -7   14.55    1.32 
   6   4   7   18.14    1.36 
   6   4   7   15.29    1.33 
  -6  -4  -8   18.06    1.53 
  -6  -4  -8   19.28    1.59 
  -6  -4  -8   17.52    1.45 
   6   4   8   20.32    1.48 
   6   4   8   19.05    1.49 
  -6  -4  -9   30.55    2.01 
  -6  -4  -9   27.39    1.91 
  -6  -4  -9   22.76    1.65 
   6   4   9   32.11    1.88 
   6   4   9   26.58    1.76 
  -6  -4 -10    9.17    0.91 
  -6  -4 -10    9.86    1.23 
  -6  -4 -10   10.64    1.27 
  -6  -4 -10    8.83    1.09 
   6   4  10   11.08    1.18 
   6   4  10    9.45    1.11 
  -6  -4 -11   53.83    2.20 
  -6  -4 -11   63.02    3.00 
  -6  -4 -11   61.73    2.96 
  -6  -4 -11   55.98    2.59 
   6   4  11   68.80    2.90 
   6   4  11   64.00    2.78 
  -6  -4 -12    0.14    0.42 
  -6  -4 -12    0.16    0.52 
  -6  -4 -12    0.60    0.57 
  -6  -4 -12    0.75    0.52 
   6   4  12    0.48    0.51 
   6   4  12    0.90    0.53 
  -6  -4 -13   31.50    1.87 
  -6  -4 -13   33.24    2.31 
  -6  -4 -13   34.57    2.34 
  -6  -4 -13   31.39    1.99 
   6   4  13   37.40    2.29 
   6   4  13   35.73    2.16 
  -6  -4 -14    4.08    0.82 
  -6  -4 -14    4.10    0.96 
  -6  -4 -14    3.17    0.70 
   6   4  14    6.91    1.10 
   6   4  14    6.30    1.00 
  -6  -4 -15   22.68    1.75 
  -6  -4 -15   26.24    2.19 
   6   4  15   27.21    2.09 
   6   4  15   30.53    2.07 
  -6  -5  12    0.15    0.55 
  -6  -5  12    0.16    0.54 
   6   5 -12    0.14    0.57 
  -6  -5  11   15.32    1.64 
  -6  -5  11   14.66    1.60 
   6   5 -11   16.92    1.69 
  -6  -5  10    7.33    1.15 
  -6  -5  10    4.80    0.97 
  -6  -5  10    5.04    0.99 
  -6  -5  10    5.24    0.87 
   6   5 -10    5.66    1.03 
  -6  -5   9   23.56    1.90 
  -6  -5   9   23.95    1.92 
  -6  -5   9   20.64    1.79 
  -6  -5   9   21.71    1.60 
   6   5  -9   21.90    1.79 
  -6  -5   8    6.62    1.05 
  -6  -5   8    6.31    1.03 
  -6  -5   8    6.14    1.02 
  -6  -5   8    6.01    0.90 
   6   5  -8    7.26    1.07 
  -6  -5   7   14.29    1.44 
  -6  -5   7   13.37    1.40 
  -6  -5   7   10.27    1.24 
  -6  -5   7   12.05    1.21 
   6   5  -7   14.05    1.38 
  -6  -5   6   37.46    2.22 
  -6  -5   6   34.85    2.16 
  -6  -5   6   32.51    2.09 
  -6  -5   6   28.18    1.80 
   6   5  -6   38.31    2.16 
   6   5  -6   29.06    1.99 
  -6  -5   5    5.01    0.89 
  -6  -5   5    5.57    0.92 
  -6  -5   5    3.14    0.74 
  -6  -5   5    4.02    0.77 
   6   5  -5    6.79    0.96 
   6   5  -5    3.80    0.80 
  -6  -5   4   74.96    3.00 
  -6  -5   4   74.11    3.02 
  -6  -5   4   53.92    2.46 
   6   5  -4   75.02    2.88 
   6   5  -4   63.53    2.81 
  -6  -5   3    1.11    0.56 
  -6  -5   3    1.09    0.53 
  -6  -5   3    0.71    0.47 
   6   5  -3    1.70    0.60 
   6   5  -3    1.21    0.53 
  -6  -5   2   98.99    3.37 
  -6  -5   2   95.27    3.34 
  -6  -5   2   71.40    2.82 
   6   5  -2  104.60    3.28 
   6   5  -2   90.91    3.27 
  -6  -5   1   21.73    1.59 
  -6  -5   1   20.85    1.58 
  -6  -5   1   16.13    1.37 
   6   5  -1   20.07    1.45 
   6   5  -1   19.37    1.51 
  -6  -5   0   45.74    2.26 
  -6  -5   0   46.62    2.31 
  -6  -5   0   36.71    2.03 
   6   5   0   50.49    2.23 
   6   5   0   43.69    2.22 
  -6  -5  -1   44.30    2.22 
  -6  -5  -1   45.25    2.26 
  -6  -5  -1   32.11    1.90 
   6   5   1   45.89    2.11 
   6   5   1   36.41    2.01 
  -6  -5  -2   53.51    2.44 
  -6  -5  -2   49.73    2.37 
  -6  -5  -2   36.47    2.03 
   6   5   2   52.69    2.26 
   6   5   2   49.34    2.32 
  -6  -5  -3   45.16    2.25 
  -6  -5  -3   47.98    2.33 
  -6  -5  -3   35.67    2.01 
   6   5   3   50.04    2.20 
   6   5   3   44.57    2.19 
  -6  -5  -4    9.29    1.09 
  -6  -5  -4    9.24    1.09 
  -6  -5  -4    5.98    0.89 
   6   5   4    9.58    1.03 
   6   5   4    7.46    0.95 
  -6  -5  -5   48.82    2.38 
  -6  -5  -5   50.81    2.43 
  -6  -5  -5   39.78    2.14 
   6   5   5   57.57    2.40 
   6   5   5   47.88    2.26 
  -6  -5  -6    0.30    0.48 
  -6  -5  -6    0.50    0.49 
  -6  -5  -6    0.34    0.43 
   6   5   6    0.97    0.50 
   6   5   6    0.13    0.38 
  -6  -5  -7   56.93    2.63 
  -6  -5  -7   57.98    2.66 
  -6  -5  -7   44.44    2.29 
   6   5   7   63.45    2.61 
   6   5   7   56.02    2.46 
  -6  -5  -8    8.26    1.10 
  -6  -5  -8    8.83    1.12 
  -6  -5  -8    6.91    0.98 
   6   5   8    8.01    1.01 
   6   5   8    8.30    1.00 
  -6  -5  -9   20.67    1.69 
  -6  -5  -9   23.89    1.79 
  -6  -5  -9   19.39    1.57 
   6   5   9   24.98    1.73 
   6   5   9   22.76    1.61 
  -6  -5 -10   18.63    1.65 
  -6  -5 -10   20.97    1.72 
  -6  -5 -10   16.42    1.46 
   6   5  10   21.80    1.66 
   6   5  10   18.77    1.48 
  -6  -5 -11   19.98    1.73 
  -6  -5 -11   20.20    1.73 
  -6  -5 -11   16.94    1.50 
   6   5  11   20.48    1.67 
   6   5  11   19.81    1.54 
  -6  -5 -12   54.75    2.88 
  -6  -5 -12   53.09    2.79 
  -6  -5 -12   43.86    2.38 
   6   5  12   53.12    2.69 
   6   5  12   52.45    2.49 
  -6  -5 -13    4.19    0.95 
  -6  -5 -13    4.77    0.97 
  -6  -5 -13    4.18    0.86 
   6   5  13    5.07    0.97 
   6   5  13    3.85    0.80 
  -6  -5 -14   33.38    2.38 
  -6  -5 -14   31.97    2.29 
  -6  -5 -14   30.11    2.02 
   6   5  14   37.07    2.39 
   6   5  14   35.04    2.10 
  -6  -5 -15    0.08    0.55 
  -6  -5 -15    0.07    0.47 
   6   5  15   -0.08    0.54 
  -6  -6  11    0.88    0.67 
  -6  -6  11    1.27    0.70 
   6   6 -11    1.40    0.75 
  -6  -6  10   13.32    1.56 
  -6  -6  10   15.74    1.68 
   6   6 -10   15.45    1.65 
  -6  -6   9   -0.24    0.45 
  -6  -6   9    0.46    0.55 
  -6  -6   9    0.04    0.46 
  -6  -6   9    0.27    0.45 
   6   6  -9    0.66    0.60 
  -6  -6   8   17.70    1.69 
  -6  -6   8   16.38    1.64 
  -6  -6   8   13.57    1.49 
  -6  -6   8   14.85    1.34 
   6   6  -8   18.26    1.69 
  -6  -6   7   12.20    1.40 
  -6  -6   7    9.74    1.26 
  -6  -6   7    8.70    1.19 
  -6  -6   7    8.60    1.05 
   6   6  -7   12.37    1.38 
  -6  -6   6   21.07    1.76 
  -6  -6   6   20.06    1.72 
  -6  -6   6   18.12    1.64 
  -6  -6   6   16.71    1.42 
   6   6  -6   21.57    1.74 
  -6  -6   5   25.38    1.88 
  -6  -6   5   25.79    1.90 
  -6  -6   5   21.04    1.72 
  -6  -6   5   18.41    1.48 
   6   6  -5   27.46    1.90 
  -6  -6   4    7.49    1.06 
  -6  -6   4    7.46    1.06 
  -6  -6   4    5.87    0.95 
  -6  -6   4    6.63    0.94 
   6   6  -4    9.16    1.13 
   6   6  -4    7.60    1.07 
  -6  -6   3   61.04    2.78 
  -6  -6   3   59.98    2.77 
  -6  -6   3   46.12    2.30 
   6   6  -3   63.80    2.75 
   6   6  -3   50.08    2.53 
  -6  -6   2    1.10    0.57 
  -6  -6   2    1.59    0.61 
  -6  -6   2    1.26    0.54 
   6   6  -2    1.91    0.65 
   6   6  -2    1.65    0.59 
  -6  -6   1   59.92    2.69 
  -6  -6   1   62.85    2.77 
  -6  -6   1   43.69    2.24 
   6   6  -1   65.03    2.70 
   6   6  -1   51.93    2.50 
  -6  -6   0    3.42    0.77 
  -6  -6   0    2.88    0.72 
  -6  -6   0    2.42    0.64 
   6   6   0    3.35    0.75 
   6   6   0    2.72    0.67 
  -6  -6  -1   86.55    3.20 
  -6  -6  -1   77.16    3.02 
  -6  -6  -1   62.22    2.68 
   6   6   1   89.41    3.12 
   6   6   1   77.89    2.98 
  -6  -6  -2   34.19    2.03 
  -6  -6  -2   34.50    2.03 
  -6  -6  -2   24.98    1.73 
   6   6   2   36.24    1.99 
   6   6   2   33.76    1.95 
  -6  -6  -3   48.46    2.40 
  -6  -6  -3   46.93    2.35 
  -6  -6  -3   33.94    2.01 
   6   6   3   51.63    2.37 
   6   6   3   42.41    2.17 
  -6  -6  -4   84.11    3.16 
  -6  -6  -4   88.79    3.23 
  -6  -6  -4   66.53    2.81 
   6   6   4  100.47    3.31 
   6   6   4   84.45    3.03 
  -6  -6  -5   24.26    1.75 
  -6  -6  -5   23.38    1.70 
  -6  -6  -5   18.82    1.53 
   6   6   5   23.92    1.66 
   6   6   5   19.00    1.46 
  -6  -6  -6   90.35    3.33 
  -6  -6  -6   90.76    3.31 
  -6  -6  -6   69.70    2.91 
   6   6   6   98.50    3.34 
   6   6   6   86.53    3.05 
  -6  -6  -7    0.36    0.53 
  -6  -6  -7   -0.05    0.46 
  -6  -6  -7    0.07    0.43 
   6   6   7   -0.20    0.41 
   6   6   7   -0.11    0.36 
  -6  -6  -8   42.81    2.37 
  -6  -6  -8   43.86    2.37 
  -6  -6  -8   32.75    2.04 
   6   6   8   46.62    2.37 
   6   6   8   42.13    2.13 
  -6  -6  -9    3.50    0.82 
  -6  -6  -9    3.31    0.79 
  -6  -6  -9    2.48    0.69 
   6   6   9    4.55    0.85 
   6   6   9    3.78    0.73 
  -6  -6 -10   43.67    2.49 
  -6  -6 -10   42.17    2.39 
  -6  -6 -10   34.84    2.15 
   6   6  10   49.82    2.55 
   6   6  10   42.99    2.17 
  -6  -6 -11   15.67    1.58 
  -6  -6 -11   16.91    1.59 
  -6  -6 -11   13.03    1.37 
   6   6  11   14.67    1.47 
   6   6  11   15.19    1.33 
  -6  -6 -12   42.57    2.57 
  -6  -6 -12   41.09    2.46 
  -6  -6 -12   32.68    2.13 
   6   6  12   44.77    2.54 
   6   6  12   40.22    2.14 
  -6  -6 -13   32.25    2.30 
  -6  -6 -13   33.25    2.27 
  -6  -6 -13   28.89    2.03 
   6   6  13   34.88    2.32 
   6   6  13   33.06    1.96 
  -6  -6 -14    6.28    1.15 
  -6  -6 -14    5.68    1.07 
  -6  -6 -14    4.76    0.92 
   6   6  14    6.97    1.16 
  -6  -6 -15   33.07    2.44 
  -6  -6 -15   28.84    2.07 
   6   6  15   34.56    2.43 
  -6  -7  10    1.61    0.76 
   6   7 -10    1.58    0.77 
  -6  -7   9   33.59    2.44 
  -6  -7   9   25.88    2.14 
   6   7  -9   31.05    2.32 
  -6  -7   8    0.78    0.65 
  -6  -7   8    0.78    0.58 
   6   7  -8    1.14    0.68 
  -6  -7   7   27.75    2.13 
  -6  -7   7   25.95    2.06 
  -6  -7   7   24.12    1.98 
  -6  -7   7   23.50    1.68 
   6   7  -7   28.67    2.14 
  -6  -7   6    5.93    1.05 
  -6  -7   6    5.31    1.00 
  -6  -7   6    4.43    0.91 
  -6  -7   6    3.99    0.78 
   6   7  -6    6.15    1.06 
  -6  -7   5   13.04    1.44 
  -6  -7   5   12.39    1.40 
  -6  -7   5   11.02    1.32 
  -6  -7   5   10.65    1.17 
   6   7  -5   12.71    1.41 
  -6  -7   4   13.51    1.43 
  -6  -7   4   14.28    1.46 
  -6  -7   4   10.90    1.29 
  -6  -7   4    9.83    1.13 
   6   7  -4   14.70    1.48 
  -6  -7   3   36.37    2.25 
  -6  -7   3   35.37    2.22 
  -6  -7   3   30.01    2.03 
  -6  -7   3   27.76    1.83 
   6   7  -3   36.06    2.20 
  -6  -7   2   52.41    2.65 
  -6  -7   2   50.66    2.60 
  -6  -7   2   37.38    2.22 
  -6  -7   2   38.42    2.15 
   6   7  -2   54.36    2.64 
   6   7  -2   44.84    2.43 
  -6  -7   1   10.82    1.26 
  -6  -7   1   12.06    1.30 
  -6  -7   1    8.44    1.09 
  -6  -7   1    7.50    1.01 
   6   7  -1   10.81    1.24 
   6   7  -1    8.99    1.12 
  -6  -7   0   75.45    3.11 
  -6  -7   0   72.84    3.04 
  -6  -7   0   51.53    2.49 
   6   7   0   74.17    3.02 
   6   7   0   63.31    2.79 
  -6  -7  -1    0.33    0.50 
  -6  -7  -1    0.25    0.48 
  -6  -7  -1    0.67    0.47 
   6   7   1    0.54    0.55 
   6   7   1    0.08    0.39 
  -6  -7  -2   96.54    3.48 
  -6  -7  -2  106.57    3.63 
  -6  -7  -2   73.97    3.01 
   6   7   2  107.58    3.59 
   6   7   2   92.36    3.29 
  -6  -7  -3   11.40    1.29 
  -6  -7  -3   12.79    1.32 
  -6  -7  -3    8.78    1.11 
   6   7   3   10.29    1.18 
   6   7   3    9.80    1.11 
  -6  -7  -4   71.04    3.00 
  -6  -7  -4   66.68    2.86 
  -6  -7  -4   46.90    2.43 
   6   7   4   66.89    2.83 
   6   7   4   58.96    2.57 
  -6  -7  -5   33.74    2.10 
  -6  -7  -5   35.22    2.10 
  -6  -7  -5   22.55    1.72 
   6   7   5   35.68    2.11 
   6   7   5   33.45    1.93 
  -6  -7  -6   27.62    1.93 
  -6  -7  -6   27.67    1.88 
  -6  -7  -6   19.55    1.62 
   6   7   6   30.41    1.96 
   6   7   6   24.85    1.66 
  -6  -7  -7   61.84    2.86 
  -6  -7  -7   69.85    2.97 
  -6  -7  -7   48.04    2.52 
   6   7   7   66.02    2.89 
   6   7   7   61.91    2.58 
  -6  -7  -8    7.57    1.12 
  -6  -7  -8    6.58    1.02 
  -6  -7  -8    6.13    0.99 
   6   7   8    7.66    1.09 
   6   7   8    6.44    0.90 
  -6  -7  -9   37.37    2.29 
  -6  -7  -9   39.96    2.31 
  -6  -7  -9   29.68    2.03 
   6   7   9   37.96    2.27 
   6   7   9   36.05    1.97 
  -6  -7 -10   -0.14    0.50 
  -6  -7 -10   -0.26    0.44 
  -6  -7 -10    0.16    0.48 
   6   7  10   -0.08    0.44 
   6   7  10    0.20    0.41 
  -6  -7 -11   37.30    2.38 
  -6  -7 -11   39.24    2.35 
  -6  -7 -11   32.87    2.18 
   6   7  11   41.55    2.47 
   6   7  11   38.38    2.04 
  -6  -7 -12   20.87    1.85 
  -6  -7 -12   23.11    1.87 
  -6  -7 -12   19.39    1.72 
   6   7  12   22.09    1.87 
  -6  -7 -13   22.90    1.98 
  -6  -7 -13   21.18    1.83 
  -6  -7 -13   17.99    1.68 
   6   7  13   18.99    1.78 
  -6  -7 -14   15.98    1.72 
  -6  -7 -14   15.06    1.60 
  -6  -7 -14   11.51    1.40 
   6   7  14   15.47    1.67 
  -6  -7 -15    7.21    1.25 
  -6  -7 -15    6.02    1.08 
   6   7  15    6.88    1.22 
  -6  -8   8   20.29    1.97 
   6   8  -8   21.58    2.00 
  -6  -8   7    0.13    0.55 
  -6  -8   7    0.12    0.50 
   6   8  -7    0.01    0.55 
  -6  -8   6   29.68    2.24 
  -6  -8   6   22.14    1.94 
  -6  -8   6   22.53    1.68 
   6   8  -6   26.81    2.12 
  -6  -8   5    0.09    0.52 
  -6  -8   5   -0.08    0.46 
  -6  -8   5    0.05    0.46 
  -6  -8   5    0.29    0.45 
   6   8  -5    0.52    0.61 
  -6  -8   4   34.02    2.30 
  -6  -8   4   37.82    2.41 
  -6  -8   4   29.59    2.13 
  -6  -8   4   27.81    1.87 
   6   8  -4   40.61    2.49 
  -6  -8   3   14.56    1.53 
  -6  -8   3   15.97    1.58 
  -6  -8   3    8.98    1.20 
  -6  -8   3   10.93    1.22 
   6   8  -3   13.29    1.46 
  -6  -8   2   26.99    2.00 
  -6  -8   2   24.70    1.90 
  -6  -8   2   20.11    1.71 
  -6  -8   2   16.32    1.46 
   6   8  -2   25.81    1.95 
  -6  -8   1   47.93    2.60 
  -6  -8   1   50.11    2.64 
  -6  -8   1   36.82    2.24 
  -6  -8   1   33.52    2.07 
   6   8  -1   49.79    2.64 
  -6  -8   0    6.27    1.03 
  -6  -8   0    6.35    1.02 
  -6  -8   0    4.13    0.82 
  -6  -8   0    5.03    0.89 
   6   8   0    6.67    1.07 
  -6  -8  -1   36.29    2.24 
  -6  -8  -1   34.82    2.16 
  -6  -8  -1   25.09    1.80 
  -6  -8  -1   22.74    1.74 
   6   8   1   35.32    2.19 
   6   8   1   27.99    1.90 
  -6  -8  -2    1.12    0.63 
  -6  -8  -2    1.85    0.66 
  -6  -8  -2    1.24    0.58 
   6   8   2    0.67    0.59 
   6   8   2    0.89    0.52 
  -6  -8  -3   57.25    2.78 
  -6  -8  -3   58.80    2.76 
  -6  -8  -3   37.21    2.22 
   6   8   3   57.45    2.76 
   6   8   3   45.91    2.35 
  -6  -8  -4    2.48    0.77 
  -6  -8  -4    3.03    0.77 
  -6  -8  -4    1.98    0.66 
   6   8   4    3.05    0.79 
   6   8   4    2.55    0.67 
  -6  -8  -5   73.14    3.14 
  -6  -8  -5   70.14    3.00 
  -6  -8  -5   49.33    2.59 
   6   8   5   75.11    3.16 
   6   8   5   60.60    2.63 
  -6  -8  -6   19.61    1.69 
  -6  -8  -6   20.14    1.66 
  -6  -8  -6   13.27    1.40 
   6   8   6   18.82    1.64 
   6   8   6   18.04    1.45 
  -6  -8  -7   39.17    2.35 
  -6  -8  -7   44.46    2.41 
  -6  -8  -7   30.16    2.07 
   6   8   7   43.56    2.47 
   6   8   7   36.84    2.02 
  -6  -8  -8   41.05    2.43 
  -6  -8  -8   41.97    2.36 
  -6  -8  -8   28.44    2.04 
   6   8   8   35.86    2.27 
   6   8   8   32.72    1.89 
  -6  -8  -9    8.51    1.21 
  -6  -8  -9    9.68    1.23 
  -6  -8  -9    7.12    1.09 
   6   8   9    7.69    1.14 
   6   8   9    7.44    0.96 
  -6  -8 -10   44.29    2.58 
  -6  -8 -10   48.54    2.59 
  -6  -8 -10   35.02    2.30 
   6   8  10   44.99    2.59 
   6   8  10   44.12    2.17 
  -6  -8 -11   -0.04    0.54 
  -6  -8 -11    0.01    0.49 
  -6  -8 -11   -0.10    0.45 
   6   8  11    0.41    0.58 
  -6  -8 -12   28.19    2.15 
  -6  -8 -12   27.27    2.02 
  -6  -8 -12   22.94    1.92 
   6   8  12   29.18    2.20 
  -6  -8 -13    0.71    0.67 
  -6  -8 -13    1.64    0.71 
  -6  -8 -13    0.73    0.61 
   6   8  13    1.67    0.74 
  -6  -8 -14   13.26    1.59 
  -6  -8 -14   15.05    1.60 
  -6  -8 -14    9.61    1.34 
   6   8  14   14.68    1.67 
  -6  -9   6    2.86    0.89 
  -6  -9   6    1.19    0.67 
   6   9  -6    2.20    0.84 
  -6  -9   5   17.70    1.79 
  -6  -9   5   14.30    1.61 
  -6  -9   5   14.86    1.43 
   6   9  -5   20.00    1.90 
  -6  -9   4    1.07    0.65 
  -6  -9   4    0.30    0.53 
  -6  -9   4    0.30    0.47 
   6   9  -4    1.19    0.71 
  -6  -9   3   30.82    2.25 
  -6  -9   3   32.19    2.28 
  -6  -9   3   23.06    1.93 
  -6  -9   3   22.33    1.74 
   6   9  -3   34.67    2.39 
  -6  -9   2    7.27    1.15 
  -6  -9   2    6.84    1.11 
  -6  -9   2    5.32    0.98 
  -6  -9   2    4.63    0.88 
   6   9  -2    6.25    1.11 
  -6  -9   1   14.48    1.54 
  -6  -9   1   13.46    1.47 
  -6  -9   1    8.88    1.19 
  -6  -9   1    9.13    1.17 
   6   9  -1   12.66    1.46 
  -6  -9   0    9.18    1.24 
  -6  -9   0    9.59    1.24 
  -6  -9   0    8.30    1.14 
  -6  -9   0    5.36    0.94 
   6   9   0    8.19    1.20 
  -6  -9  -1    2.77    0.79 
  -6  -9  -1    4.70    0.93 
  -6  -9  -1    2.29    0.67 
  -6  -9  -1    2.08    0.66 
   6   9   1    2.61    0.81 
  -6  -9  -2   30.00    2.11 
  -6  -9  -2   29.73    2.05 
  -6  -9  -2   21.94    1.72 
  -6  -9  -2   19.65    1.68 
   6   9   2   30.80    2.15 
  -6  -9  -3    4.39    0.94 
  -6  -9  -3    4.48    0.92 
  -6  -9  -3    2.18    0.64 
  -6  -9  -3    2.76    0.76 
   6   9   3    4.50    0.93 
  -6  -9  -4   52.11    2.74 
  -6  -9  -4   53.67    2.70 
  -6  -9  -4   39.76    2.22 
  -6  -9  -4   33.96    2.21 
   6   9   4   48.92    2.68 
   6   9   4   42.23    2.29 
  -6  -9  -5    1.09    0.68 
  -6  -9  -5    0.73    0.57 
  -6  -9  -5    0.95    0.50 
  -6  -9  -5    1.08    0.60 
   6   9   5    1.10    0.66 
   6   9   5    1.00    0.52 
  -6  -9  -6   51.53    2.74 
  -6  -9  -6   50.83    2.62 
  -6  -9  -6   29.87    2.11 
   6   9   6   47.37    2.65 
   6   9   6   41.11    2.20 
  -6  -9  -7    9.09    1.26 
  -6  -9  -7   10.60    1.28 
  -6  -9  -7    7.07    1.12 
   6   9   7    9.45    1.29 
   6   9   7    9.74    1.10 
  -6  -9  -8   39.06    2.43 
  -6  -9  -8   40.39    2.36 
  -6  -9  -8   23.08    1.91 
   6   9   8   39.85    2.49 
   6   9   8   31.93    1.90 
  -6  -9  -9   26.10    2.02 
  -6  -9  -9   30.69    2.08 
  -6  -9  -9   19.96    1.81 
   6   9   9   25.34    2.03 
  -6  -9 -10   10.54    1.36 
  -6  -9 -10   10.48    1.30 
  -6  -9 -10    7.98    1.21 
   6   9  10    9.90    1.35 
  -6  -9 -11   23.05    1.96 
  -6  -9 -11   22.57    1.84 
  -6  -9 -11   15.65    1.65 
   6   9  11   24.44    2.05 
  -6  -9 -12    1.79    0.77 
  -6  -9 -12    2.19    0.77 
  -6  -9 -12    0.89    0.66 
   6   9  12    2.34    0.82 
  -6  -9 -13   48.06    2.88 
  -6  -9 -13   51.51    2.80 
  -6  -9 -13   35.56    2.49 
   6   9  13   49.30    2.96 
  -6 -10   4   14.30    1.67 
  -6 -10   4   12.96    1.39 
   6  10  -4   17.16    1.83 
  -6 -10   3    0.12    0.57 
  -6 -10   3    0.46    0.55 
  -6 -10   3    0.23    0.52 
   6  10  -3    1.20    0.74 
  -6 -10   2   28.50    2.22 
  -6 -10   2   20.33    1.86 
  -6 -10   2   19.07    1.68 
   6  10  -2   29.03    2.28 
  -6 -10   1    2.60    0.82 
  -6 -10   1    2.17    0.77 
  -6 -10   1    1.91    0.70 
  -6 -10   1    1.36    0.64 
   6  10  -1    1.39    0.76 
  -6 -10   0   34.07    2.36 
  -6 -10   0   35.42    2.36 
  -6 -10   0   25.28    1.97 
  -6 -10   0   25.49    1.95 
   6  10   0   35.98    2.47 
  -6 -10  -1    6.06    1.08 
  -6 -10  -1    5.01    1.00 
  -6 -10  -1    3.28    0.80 
  -6 -10  -1    2.43    0.75 
   6  10   1    5.68    1.12 
  -6 -10  -2   18.78    1.75 
  -6 -10  -2   16.54    1.62 
  -6 -10  -2   11.97    1.35 
  -6 -10  -2   11.70    1.38 
   6  10   2   17.53    1.75 
  -6 -10  -3   16.01    1.63 
  -6 -10  -3   16.90    1.62 
  -6 -10  -3   12.02    1.32 
  -6 -10  -3   10.53    1.32 
   6  10   3   15.13    1.63 
  -6 -10  -4    3.30    0.90 
  -6 -10  -4    3.28    0.83 
  -6 -10  -4    3.01    0.73 
  -6 -10  -4    2.69    0.78 
   6  10   4    3.23    0.88 
  -6 -10  -5   37.23    2.41 
  -6 -10  -5   38.25    2.34 
  -6 -10  -5   26.08    1.84 
  -6 -10  -5   22.99    1.93 
   6  10   5   35.93    2.42 
  -6 -10  -6    0.11    0.61 
  -6 -10  -6   -0.28    0.48 
  -6 -10  -6   -0.09    0.20 
  -6 -10  -6    0.27    0.54 
   6  10   6   -0.11    0.52 
  -6 -10  -7   39.64    2.50 
  -6 -10  -7   36.76    2.29 
  -6 -10  -7   27.58    1.83 
  -6 -10  -7   23.82    1.99 
   6  10   7   41.73    2.63 
  -6 -10  -8    2.01    0.81 
  -6 -10  -8    2.69    0.81 
  -6 -10  -8    1.67    0.72 
   6  10   8    2.56    0.89 
  -6 -10  -9   36.10    2.43 
  -6 -10  -9   41.52    2.44 
  -6 -10  -9   26.55    2.14 
   6  10   9   37.99    2.56 
  -6 -10 -10    7.55    1.24 
  -6 -10 -10    9.25    1.25 
  -6 -10 -10    6.05    1.12 
   6  10  10    8.83    1.35 
  -6 -10 -11   23.90    2.05 
  -6 -10 -11   21.83    1.83 
  -6 -10 -11   13.71    1.62 
   6  10  11   21.59    2.01 
  -6 -10 -12   20.59    1.94 
  -6 -10 -12   22.17    1.86 
  -6 -10 -12   18.18    1.86 
   6  10  12   23.57    2.12 
  -6 -11   0    0.12    0.57 
  -6 -11   0    0.53    0.55 
  -6 -11   0    0.10    0.52 
   6  11   0    0.12    0.65 
  -6 -11  -1   19.27    1.86 
  -6 -11  -1   12.54    1.46 
  -6 -11  -1   11.91    1.44 
   6  11   1   18.10    1.87 
  -6 -11  -2    5.39    1.10 
  -6 -11  -2    7.14    1.17 
  -6 -11  -2    3.89    0.88 
  -6 -11  -2    4.93    1.01 
   6  11   2    5.15    1.12 
  -6 -11  -3   30.51    2.28 
  -6 -11  -3   29.46    2.16 
  -6 -11  -3   21.14    1.78 
  -6 -11  -3   19.87    1.84 
   6  11   3   31.10    2.38 
  -6 -11  -4   21.10    1.93 
  -6 -11  -4   23.02    1.92 
  -6 -11  -4   16.20    1.54 
  -6 -11  -4   12.53    1.51 
   6  11   4   20.64    1.97 
  -6 -11  -5    8.61    1.32 
  -6 -11  -5   10.59    1.33 
  -6 -11  -5    6.18    0.99 
  -6 -11  -5    6.65    1.16 
   6  11   5    8.22    1.33 
  -6 -11  -6   25.76    2.10 
  -6 -11  -6   24.26    1.94 
  -6 -11  -6   14.21    1.62 
   6  11   6   20.61    1.97 
  -6 -11  -7    3.21    0.95 
  -6 -11  -7    3.43    0.89 
  -6 -11  -7    3.20    0.91 
   6  11   7    5.68    1.16 
  -6 -11  -8   38.82    2.57 
  -6 -11  -8   38.56    2.40 
  -6 -11  -8   23.50    2.08 
   6  11   8   36.09    2.57 
  -6 -11  -9    0.11    0.64 
  -6 -11  -9    0.60    0.64 
   6  11   9    0.61    0.70 
  -7   3   7   32.68    2.27 
  -7   3   7   34.51    2.29 
   7  -3  -7   35.10    2.27 
   7  -3  -7   26.08    2.21 
  -7   3   6    4.29    0.97 
  -7   3   6    4.11    0.92 
   7  -3  -6    4.25    0.89 
   7  -3  -6    4.39    1.01 
  -7   3   5   22.09    1.87 
  -7   3   5   23.35    1.87 
   7  -3  -5   24.99    1.95 
   7  -3  -5   16.01    1.72 
  -7   3   4   15.14    1.57 
  -7   3   4   15.37    1.54 
   7  -3  -4   14.56    1.53 
   7  -3  -4   11.07    1.45 
  -7   3   3   18.12    1.69 
  -7   3   3   19.54    1.71 
   7  -3  -3   18.66    1.72 
   7  -3  -3   15.38    1.67 
  -7   3   2   24.03    1.93 
  -7   3   2   25.13    1.92 
   7  -3  -2   23.57    1.94 
   7  -3  -2   22.98    1.99 
  -7   3   1    5.61    1.07 
  -7   3   1    5.22    1.00 
   7  -3  -1    5.50    1.04 
   7  -3  -1    4.86    1.00 
  -7   3   0   44.74    2.60 
  -7   3   0   45.02    2.54 
  -7   3   0   38.72    2.52 
   7  -3   0   42.98    2.65 
   7  -3   0   37.00    2.47 
  -7   3  -1    0.06    0.59 
  -7   3  -1   -0.40    0.54 
  -7   3  -1    0.24    0.53 
   7  -3   1    0.36    0.52 
  -7   3  -2   46.74    2.70 
  -7   3  -2   47.12    2.64 
  -7   3  -2   39.41    2.50 
   7  -3   2   44.02    2.75 
  -7   3  -3    3.44    0.92 
  -7   3  -3    2.20    0.80 
  -7   3  -3    3.13    0.86 
   7  -3   3    3.31    0.88 
  -7   2   9    8.66    1.22 
  -7   2   9    9.78    1.26 
   7  -2  -9    5.40    1.09 
  -7   2   8   25.19    1.93 
  -7   2   8   22.80    1.81 
   7  -2  -8   26.85    1.98 
   7  -2  -8   17.39    1.78 
  -7   2   7    4.17    0.90 
  -7   2   7    4.68    0.92 
   7  -2  -7    4.41    0.90 
   7  -2  -7    3.40    0.90 
  -7   2   6   35.54    2.21 
  -7   2   6   37.72    2.23 
   7  -2  -6   37.18    2.31 
   7  -2  -6   24.35    2.06 
  -7   2   5    0.66    0.56 
  -7   2   5    0.03    0.48 
   7  -2  -5    0.64    0.53 
   7  -2  -5    0.37    0.52 
  -7   2   4   31.72    2.06 
  -7   2   4   33.34    2.06 
   7  -2  -4   33.90    2.23 
   7  -2  -4   25.30    2.05 
  -7   2   3   14.56    1.44 
  -7   2   3   13.76    1.37 
   7  -2  -3   15.08    1.53 
   7  -2  -3    9.87    1.33 
  -7   2   2   33.92    2.13 
  -7   2   2   31.17    1.98 
   7  -2  -2   30.62    2.14 
   7  -2  -2   27.28    2.10 
  -7   2   1   30.13    2.01 
  -7   2   1   31.36    1.99 
  -7   2   1   26.04    2.03 
   7  -2  -1   29.64    2.13 
   7  -2  -1   26.74    2.06 
  -7   2   0   17.86    1.59 
  -7   2   0   18.76    1.58 
  -7   2   0   13.53    1.50 
   7  -2   0   17.61    1.68 
  -7   2  -1   54.92    2.71 
  -7   2  -1   59.48    2.73 
  -7   2  -1   50.30    2.50 
  -7   2  -1   44.64    2.60 
   7  -2   1   51.09    2.83 
  -7   2  -2    2.79    0.83 
  -7   2  -2    2.57    0.78 
  -7   2  -2    3.75    0.83 
  -7   2  -2    2.97    0.82 
   7  -2   2    3.06    0.82 
  -7   2  -3   59.49    2.88 
  -7   2  -3   63.36    2.88 
  -7   2  -3   62.13    2.89 
  -7   2  -3   52.53    2.79 
   7  -2   3   53.32    2.96 
  -7   2  -4    0.52    0.60 
  -7   2  -4    0.87    0.61 
  -7   2  -4    0.66    0.58 
  -7   2  -4    0.37    0.52 
   7  -2   4    1.24    0.66 
  -7   2  -5   43.98    2.56 
  -7   2  -5   43.83    2.49 
  -7   2  -5   43.93    2.57 
  -7   2  -5   42.12    2.48 
   7  -2   5   41.77    2.70 
  -7   2  -6    7.76    1.19 
  -7   2  -6    7.25    1.13 
  -7   2  -6    9.04    1.29 
  -7   2  -6    7.67    1.13 
  -7   1  10   24.62    1.89 
   7  -1 -10   27.46    2.00 
   7  -1 -10   19.55    1.88 
  -7   1   9   10.73    1.27 
  -7   1   9   10.18    1.21 
   7  -1  -9    8.74    1.18 
   7  -1  -9    6.75    1.17 
  -7   1   8   33.86    2.10 
  -7   1   8   32.61    2.03 
   7  -1  -8   31.83    2.13 
   7  -1  -8   24.12    2.04 
  -7   1   7   26.75    1.85 
  -7   1   7   29.16    1.89 
   7  -1  -7   25.84    1.92 
   7  -1  -7   20.31    1.85 
  -7   1   6   16.88    1.48 
  -7   1   6   18.52    1.49 
   7  -1  -6   18.04    1.63 
   7  -1  -6   13.50    1.52 
  -7   1   5   41.67    2.22 
  -7   1   5   44.75    2.24 
   7  -1  -5   36.48    2.26 
   7  -1  -5   29.88    2.19 
  -7   1   4    0.86    0.55 
  -7   1   4    1.49    0.59 
   7  -1  -4    0.91    0.55 
   7  -1  -4    1.12    0.61 
  -7   1   3   35.32    2.01 
  -7   1   3   35.06    1.95 
  -7   1   3   37.07    2.05 
  -7   1   3   27.54    2.07 
   7  -1  -3   35.28    2.25 
   7  -1  -3   25.30    1.98 
  -7   1   2    0.73    0.52 
  -7   1   2    1.18    0.56 
  -7   1   2    0.65    0.54 
  -7   1   2    0.80    0.55 
   7  -1  -2    1.11    0.59 
  -7   1   1   46.61    2.30 
  -7   1   1   50.83    2.32 
  -7   1   1   47.28    2.35 
  -7   1   1   37.54    2.36 
   7  -1  -1   43.43    2.50 
  -7   1   0   15.72    1.40 
  -7   1   0   16.74    1.39 
  -7   1   0   13.55    1.33 
  -7   1   0   11.58    1.36 
   7  -1   0   15.08    1.52 
  -7   1  -1   32.54    1.97 
  -7   1  -1   36.02    1.99 
  -7   1  -1   32.69    2.03 
  -7   1  -1   24.30    1.90 
   7  -1   1   31.66    2.18 
  -7   1  -2   46.92    2.37 
  -7   1  -2   50.44    2.36 
  -7   1  -2   42.87    2.35 
  -7   1  -2   39.55    2.39 
   7  -1   2   48.18    2.70 
  -7   1  -3   10.36    1.20 
  -7   1  -3    9.32    1.11 
  -7   1  -3    8.35    1.13 
  -7   1  -3    8.72    1.18 
   7  -1   3    8.99    1.25 
  -7   1  -4   45.04    2.38 
  -7   1  -4   44.02    2.27 
  -7   1  -4   38.22    2.31 
  -7   1  -4   37.76    2.31 
   7  -1   4   38.06    2.47 
  -7   1  -5    0.00    0.49 
  -7   1  -5    0.18    0.47 
  -7   1  -5    0.07    0.50 
  -7   1  -5    0.25    0.49 
   7  -1   5    0.33    0.49 
  -7   1  -6   38.53    2.30 
  -7   1  -6   47.82    2.46 
  -7   1  -6   41.22    2.50 
  -7   1  -6   39.82    2.36 
   7  -1   6   39.92    2.60 
  -7   1  -7    4.20    0.90 
  -7   1  -7    4.40    0.89 
  -7   1  -7    5.20    1.04 
  -7   1  -7    5.79    0.99 
   7  -1   7    4.85    1.02 
  -7   1  -8   24.37    1.93 
  -7   1  -8    3.71    0.75 
  -7   0  11   25.92    2.12 
   7   0 -11   29.22    2.10 
  -7   0  10    0.43    0.52 
   7   0 -10    0.53    0.54 
   7   0 -10    0.54    0.59 
  -7   0   9   28.31    2.16 
   7   0  -9   33.22    2.19 
   7   0  -9   23.83    1.99 
  -7   0   8   13.92    1.31 
  -7   0   8    8.43    1.22 
   7   0  -8   12.78    1.40 
   7   0  -8    9.09    1.27 
  -7   0   7   37.04    2.03 
  -7   0   7   26.64    2.06 
   7   0  -7   34.00    2.19 
  -7   0   6   29.11    1.77 
  -7   0   6   29.26    1.86 
  -7   0   6   23.31    1.91 
   7   0  -6   26.33    1.93 
  -7   0   5   18.08    1.40 
  -7   0   5   20.43    1.57 
  -7   0   5   14.48    1.51 
   7   0  -5   18.22    1.62 
  -7   0   4   36.38    1.91 
  -7   0   4   31.90    1.93 
  -7   0   4   21.50    1.80 
   7   0  -4   33.34    2.15 
  -7   0   3    9.38    1.02 
  -7   0   3    7.28    1.01 
  -7   0   3    6.14    1.02 
   7   0  -3    8.52    1.14 
  -7   0   2   53.58    2.29 
  -7   0   2   53.64    2.50 
  -7   0   2   39.04    2.38 
   7   0  -2   53.65    2.72 
  -7   0   1    0.42    0.48 
  -7   0   1    0.09    0.43 
  -7   0   1    0.12    0.43 
  -7   0   1    0.56    0.52 
  -7   0   1    0.46    0.50 
   7   0  -1    0.17    0.44 
  -7   0   0   48.60    2.19 
  -7   0   0   45.14    2.09 
  -7   0   0   49.35    2.11 
  -7   0   0   45.76    2.35 
  -7   0   0   35.57    2.24 
   7   0   0   43.60    2.48 
  -7   0  -1   18.40    1.40 
  -7   0  -1   17.30    1.35 
  -7   0  -1   17.35    1.30 
  -7   0  -1   17.44    1.51 
  -7   0  -1   13.48    1.40 
   7   0   1   18.32    1.64 
  -7   0  -2   27.15    1.69 
  -7   0  -2   26.39    1.68 
  -7   0  -2   25.56    1.57 
  -7   0  -2   26.45    1.86 
  -7   0  -2   21.38    1.74 
   7   0   2   25.55    1.94 
  -7   0  -3   27.79    1.73 
  -7   0  -3   27.66    1.74 
  -7   0  -3   28.77    1.68 
  -7   0  -3   25.40    1.86 
  -7   0  -3   24.13    1.84 
   7   0   3   28.13    2.05 
  -7   0  -4   11.23    1.17 
  -7   0  -4   10.48    1.15 
  -7   0  -4   11.69    1.13 
  -7   0  -4   12.34    1.35 
  -7   0  -4   10.13    1.23 
   7   0   4    9.95    1.27 
  -7   0  -5   41.31    2.17 
  -7   0  -5   43.15    2.27 
  -7   0  -5   45.20    2.17 
  -7   0  -5   41.35    2.42 
  -7   0  -5   38.04    2.27 
   7   0   5   43.64    2.59 
  -7   0  -6   -0.02    0.43 
  -7   0  -6    0.50    0.52 
  -7   0  -6    0.30    0.49 
  -7   0  -6    0.42    0.55 
  -7   0  -6    0.04    0.45 
   7   0   6   -0.07    0.42 
  -7   0  -7   37.09    2.16 
  -7   0  -7   37.26    2.23 
  -7   0  -7   36.76    2.39 
  -7   0  -7   38.84    2.29 
   7   0   7   38.74    2.52 
  -7   0  -8    0.52    0.53 
  -7   0  -8    0.75    0.58 
  -7   0  -8    0.08    0.53 
  -7   0  -8    0.88    0.58 
   7   0   8    0.51    0.55 
  -7   0  -9   45.55    2.52 
  -7   0  -9   46.94    2.64 
   7   0   9   44.68    2.79 
  -7   0 -10    5.69    1.03 
  -7   0 -10    7.01    1.15 
  -7  -1  11    2.24    0.75 
  -7  -1  11    1.67    0.70 
   7   1 -11    1.28    0.64 
  -7  -1  10   17.02    1.68 
   7   1 -10   23.43    1.90 
  -7  -1   9    0.40    0.50 
  -7  -1   9    0.32    0.51 
   7   1  -9    0.45    0.53 
  -7  -1   8   35.41    2.13 
  -7  -1   8   27.06    2.05 
   7   1  -8   35.10    2.25 
  -7  -1   7    3.94    0.77 
  -7  -1   7    4.41    0.85 
  -7  -1   7    3.19    0.80 
   7   1  -7    4.13    0.86 
  -7  -1   6   38.34    2.03 
  -7  -1   6   39.23    2.19 
  -7  -1   6   29.12    2.08 
   7   1  -6   36.57    2.26 
  -7  -1   5   20.93    1.50 
  -7  -1   5   20.77    1.61 
  -7  -1   5   14.23    1.47 
   7   1  -5   17.40    1.58 
  -7  -1   4   24.46    1.61 
  -7  -1   4   23.15    1.69 
  -7  -1   4   16.35    1.56 
   7   1  -4   20.85    1.71 
  -7  -1   3   40.00    2.02 
  -7  -1   3   41.48    2.22 
  -7  -1   3   31.22    2.10 
   7   1  -3   38.54    2.29 
  -7  -1   2    0.88    0.54 
  -7  -1   2    1.37    0.60 
  -7  -1   2    0.82    0.52 
   7   1  -2    1.56    0.61 
  -7  -1   1   66.44    2.60 
  -7  -1   1   65.99    2.81 
  -7  -1   1   49.89    2.62 
   7   1  -1   64.88    2.95 
  -7  -1   0    0.12    0.41 
  -7  -1   0    0.09    0.44 
  -7  -1   0    0.12    0.47 
  -7  -1   0    0.22    0.44 
   7   1   0    0.36    0.46 
  -7  -1  -1   48.19    2.00 
  -7  -1  -1   44.14    2.16 
  -7  -1  -1   42.52    2.30 
  -7  -1  -1   35.37    2.19 
   7   1   1   37.54    2.27 
  -7  -1  -2    2.53    0.60 
  -7  -1  -2    1.82    0.62 
  -7  -1  -2    2.94    0.76 
  -7  -1  -2    2.08    0.68 
   7   1   2    2.36    0.70 
  -7  -1  -3   43.69    1.97 
  -7  -1  -3   41.86    2.17 
  -7  -1  -3   41.66    2.34 
  -7  -1  -3   33.98    2.14 
   7   1   3   38.00    2.31 
  -7  -1  -4   17.27    1.29 
  -7  -1  -4   17.25    1.46 
  -7  -1  -4   19.55    1.66 
  -7  -1  -4   15.54    1.48 
   7   1   4   19.32    1.69 
  -7  -1  -5   17.80    1.34 
  -7  -1  -5   19.64    1.58 
  -7  -1  -5   21.05    1.74 
  -7  -1  -5   15.90    1.49 
   7   1   5   19.03    1.70 
  -7  -1  -6   36.56    1.94 
  -7  -1  -6   34.64    2.11 
  -7  -1  -6   36.40    2.31 
  -7  -1  -6   32.00    2.07 
   7   1   6   35.10    2.30 
  -7  -1  -7    3.36    0.73 
  -7  -1  -7    3.23    0.81 
  -7  -1  -7    4.02    0.90 
  -7  -1  -7    4.27    0.85 
   7   1   7    3.52    0.85 
  -7  -1  -8   52.89    2.47 
  -7  -1  -8   57.05    2.82 
  -7  -1  -8   56.55    2.97 
  -7  -1  -8   53.98    2.68 
   7   1   8   56.83    3.00 
  -7  -1  -9    0.18    0.50 
  -7  -1  -9    0.12    0.52 
  -7  -1  -9    0.04    0.48 
   7   1   9    0.91    0.60 
  -7  -1 -10   46.91    2.48 
  -7  -1 -10   50.66    2.80 
  -7  -1 -10    0.07    0.26 
   7   1  10   50.03    2.90 
  -7  -1 -11    4.87    0.95 
  -7  -1 -11    6.47    1.15 
   7   1  11    4.68    1.01 
  -7  -2  11    7.51    1.12 
  -7  -2  11    6.55    1.10 
  -7  -2  11    7.17    1.16 
  -7  -2  11    5.48    1.01 
  -7  -2  10    7.60    1.11 
  -7  -2  10    7.17    1.11 
  -7  -2  10    8.64    1.24 
  -7  -2  10    5.22    0.97 
   7   2 -10    6.27    1.08 
  -7  -2   9   24.69    1.82 
  -7  -2   9   25.98    1.92 
  -7  -2   9   22.14    1.85 
   7   2  -9   22.86    1.88 
  -7  -2   8    1.69    0.64 
  -7  -2   8    2.66    0.75 
  -7  -2   8    0.91    0.55 
   7   2  -8    1.40    0.64 
  -7  -2   7   57.45    2.63 
  -7  -2   7   55.17    2.69 
  -7  -2   7   41.05    2.44 
   7   2  -7   48.54    2.64 
  -7  -2   6    1.56    0.63 
  -7  -2   6    1.80    0.66 
  -7  -2   6    1.22    0.59 
   7   2  -6    1.76    0.66 
  -7  -2   5   75.34    2.91 
  -7  -2   5   78.03    3.13 
  -7  -2   5   60.79    2.92 
   7   2  -5   71.61    3.14 
  -7  -2   4   19.04    1.49 
  -7  -2   4   19.98    1.61 
  -7  -2   4   12.75    1.37 
   7   2  -4   17.35    1.57 
  -7  -2   3   27.74    1.77 
  -7  -2   3   26.13    1.82 
  -7  -2   3   22.45    1.77 
   7   2  -3   25.95    1.89 
  -7  -2   2   30.22    1.83 
  -7  -2   2   29.24    1.91 
  -7  -2   2   19.28    1.64 
   7   2  -2   25.12    1.85 
  -7  -2   1   25.83    1.70 
  -7  -2   1   22.23    1.68 
  -7  -2   1   16.98    1.54 
   7   2  -1   23.02    1.76 
  -7  -2   0   27.88    1.77 
  -7  -2   0   28.24    1.90 
  -7  -2   0   22.13    1.74 
   7   2   0   24.98    1.84 
  -7  -2  -1    2.61    0.70 
  -7  -2  -1    1.89    0.67 
  -7  -2  -1    1.93    0.64 
   7   2   1    2.07    0.66 
  -7  -2  -2   59.86    2.59 
  -7  -2  -2   57.57    2.70 
  -7  -2  -2   46.48    2.48 
   7   2   2   54.99    2.71 
  -7  -2  -3   -0.07    0.43 
  -7  -2  -3    0.42    0.53 
  -7  -2  -3    0.63    0.49 
   7   2   3    0.35    0.45 
  -7  -2  -4   64.91    2.78 
  -7  -2  -4   65.35    2.95 
  -7  -2  -4   51.93    2.61 
   7   2   4   61.63    2.91 
  -7  -2  -5   11.61    1.26 
  -7  -2  -5   10.80    1.29 
  -7  -2  -5    9.19    1.16 
   7   2   5   10.93    1.28 
  -7  -2  -6   24.03    1.79 
  -7  -2  -6   24.09    1.88 
  -7  -2  -6   20.17    1.66 
   7   2   6   21.82    1.79 
  -7  -2  -7   21.85    1.75 
  -7  -2  -7   19.51    1.74 
  -7  -2  -7   19.19    1.63 
   7   2   7   20.29    1.75 
  -7  -2  -8   10.00    1.27 
  -7  -2  -8    9.85    1.30 
  -7  -2  -8    8.77    1.15 
   7   2   8    9.21    1.24 
  -7  -2  -9   45.82    2.60 
  -7  -2  -9   44.33    2.66 
  -7  -2  -9   41.23    2.36 
   7   2   9   47.65    2.71 
  -7  -2 -10    3.41    0.89 
  -7  -2 -10    3.39    0.82 
   7   2  10    3.26    0.85 
  -7  -2 -11   32.56    2.32 
  -7  -2 -11   28.64    1.98 
   7   2  11   32.40    2.32 
  -7  -2 -12    3.21    0.91 
   7   2  12    2.47    0.81 
  -7  -3  11   22.77    1.92 
  -7  -3  11   25.43    2.08 
  -7  -3  11   21.65    1.83 
   7   3 -11   23.09    1.85 
  -7  -3  10    7.00    1.11 
  -7  -3  10    7.69    1.18 
  -7  -3  10    7.23    1.17 
  -7  -3  10    7.13    1.11 
   7   3 -10    0.61    0.37 
  -7  -3   9   15.50    1.53 
  -7  -3   9   15.97    1.58 
  -7  -3   9   14.85    1.57 
  -7  -3   9   10.82    1.31 
   7   3  -9   12.86    1.31 
   7   3  -9   12.26    1.44 
  -7  -3   8   22.62    1.79 
  -7  -3   8   23.13    1.85 
  -7  -3   8   16.48    1.57 
   7   3  -8   23.17    1.68 
   7   3  -8   19.49    1.75 
  -7  -3   7    6.30    1.00 
  -7  -3   7    5.48    0.98 
  -7  -3   7    4.51    0.89 
   7   3  -7    5.62    0.87 
   7   3  -7    4.41    0.92 
  -7  -3   6   52.61    2.57 
  -7  -3   6   53.95    2.70 
  -7  -3   6   41.00    2.39 
   7   3  -6   54.06    2.38 
   7   3  -6   46.30    2.58 
  -7  -3   5   -0.08    0.46 
  -7  -3   5    0.58    0.54 
  -7  -3   5   -0.12    0.41 
   7   3  -5   -0.05    0.37 
   7   3  -5    0.21    0.48 
  -7  -3   4   54.37    2.55 
  -7  -3   4   57.31    2.73 
  -7  -3   4   38.35    2.29 
   7   3  -4   54.17    2.27 
   7   3  -4   50.44    2.64 
  -7  -3   3    3.23    0.75 
  -7  -3   3    3.96    0.84 
  -7  -3   3    4.18    0.85 
   7   3  -3    4.20    0.72 
   7   3  -3    4.95    0.92 
  -7  -3   2   61.44    2.67 
  -7  -3   2   61.74    2.80 
  -7  -3   2   42.52    2.38 
   7   3  -2   62.92    2.35 
   7   3  -2   56.01    2.74 
  -7  -3   1   43.95    2.27 
  -7  -3   1   41.32    2.29 
  -7  -3   1   32.16    2.08 
   7   3  -1   46.44    2.01 
   7   3  -1   39.57    2.30 
  -7  -3   0   54.48    2.52 
  -7  -3   0   48.55    2.48 
  -7  -3   0   37.19    2.22 
   7   3   0   53.00    2.12 
   7   3   0   48.18    2.52 
  -7  -3  -1   57.65    2.59 
  -7  -3  -1   59.61    2.75 
  -7  -3  -1   41.15    2.33 
   7   3   1   61.67    2.28 
   7   3   1   56.61    2.73 
  -7  -3  -2   25.55    1.77 
  -7  -3  -2   26.68    1.88 
  -7  -3  -2   19.83    1.64 
   7   3   2   26.29    1.51 
   7   3   2   23.94    1.80 
  -7  -3  -3   58.23    2.64 
  -7  -3  -3   54.80    2.68 
  -7  -3  -3   46.05    2.46 
   7   3   3   67.13    2.40 
   7   3   3   54.92    2.70 
  -7  -3  -4    0.07    0.47 
  -7  -3  -4    0.47    0.53 
  -7  -3  -4   -0.17    0.40 
   7   3   4   -0.13    0.34 
   7   3   4    0.37    0.46 
  -7  -3  -5   48.16    2.47 
  -7  -3  -5   52.48    2.68 
  -7  -3  -5   42.15    2.36 
   7   3   5   55.01    2.23 
   7   3   5   48.50    2.56 
  -7  -3  -6    2.45    0.72 
  -7  -3  -6    2.65    0.77 
  -7  -3  -6    2.96    0.74 
   7   3   6    2.92    0.65 
   7   3   6    3.12    0.76 
  -7  -3  -7   22.68    1.79 
  -7  -3  -7   24.87    1.93 
  -7  -3  -7   22.72    1.77 
   7   3   7   25.60    1.61 
   7   3   7   23.03    1.82 
  -7  -3  -8   12.64    1.41 
  -7  -3  -8   12.61    1.45 
  -7  -3  -8   10.58    1.26 
   7   3   8   14.09    1.26 
   7   3   8   11.28    1.33 
  -7  -3  -9   25.02    1.96 
  -7  -3  -9   21.74    1.89 
  -7  -3  -9   23.84    1.83 
   7   3   9   28.94    1.81 
   7   3   9   25.34    1.96 
  -7  -3 -10   37.65    2.44 
  -7  -3 -10   40.78    2.59 
  -7  -3 -10   33.35    2.16 
   7   3  10   44.55    2.30 
   7   3  10   37.91    2.40 
  -7  -3 -11    5.90    1.11 
  -7  -3 -11    6.44    1.04 
   7   3  11    7.16    1.04 
   7   3  11    6.51    1.10 
  -7  -3 -12   36.86    2.53 
  -7  -3 -12   35.26    2.23 
   7   3  12   38.00    2.48 
  -7  -3 -13    0.07    0.61 
  -7  -3 -13   -0.02    0.46 
   7   3  13   -0.05    0.40 
   7   3  13    0.12    0.51 
  -7  -4  10   13.35    1.52 
  -7  -4  10   12.70    1.51 
  -7  -4  10   11.31    1.34 
   7   4 -10   11.97    1.40 
  -7  -4   9    7.08    1.15 
  -7  -4   9    4.96    1.01 
  -7  -4   9    5.37    1.04 
  -7  -4   9    6.01    1.00 
   7   4  -9    7.03    1.08 
  -7  -4   8   19.53    1.73 
  -7  -4   8   20.11    1.79 
  -7  -4   8   16.44    1.65 
  -7  -4   8   15.53    1.52 
   7   4  -8   20.26    1.66 
   7   4  -8   16.20    1.64 
  -7  -4   7   16.09    1.55 
  -7  -4   7   15.57    1.56 
  -7  -4   7   10.97    1.29 
   7   4  -7   13.84    1.36 
   7   4  -7   13.77    1.49 
  -7  -4   6   10.93    1.29 
  -7  -4   6    9.13    1.22 
  -7  -4   6    9.83    1.22 
   7   4  -6   11.21    1.21 
   7   4  -6   10.47    1.31 
  -7  -4   5   36.93    2.22 
  -7  -4   5   37.83    2.31 
  -7  -4   5   28.65    1.99 
   7   4  -5   34.25    1.97 
   7   4  -5   33.64    2.22 
  -7  -4   4    8.31    1.11 
  -7  -4   4    9.82    1.23 
  -7  -4   4    7.99    1.10 
   7   4  -4    0.04    0.18 
   7   4  -4    8.14    1.15 
  -7  -4   3   67.69    2.91 
  -7  -4   3   68.59    3.02 
  -7  -4   3   52.28    2.65 
   7   4  -3   20.41    1.45 
   7   4  -3   61.19    2.91 
  -7  -4   2    5.24    0.91 
  -7  -4   2    4.88    0.90 
  -7  -4   2    4.85    0.89 
   7   4  -2    5.43    0.84 
   7   4  -2    4.95    0.93 
  -7  -4   1   56.88    2.64 
  -7  -4   1   57.05    2.73 
  -7  -4   1   44.66    2.44 
   7   4  -1   58.79    2.41 
   7   4  -1   55.55    2.73 
  -7  -4   0   16.83    1.48 
  -7  -4   0   20.38    1.67 
  -7  -4   0   13.14    1.36 
   7   4   0   21.09    1.47 
   7   4   0   17.31    1.55 
  -7  -4  -1   32.57    2.03 
  -7  -4  -1   34.88    2.15 
  -7  -4  -1   25.75    1.86 
   7   4   1   40.15    1.98 
   7   4   1   33.24    2.10 
  -7  -4  -2   73.77    3.02 
  -7  -4  -2   72.36    3.08 
  -7  -4  -2   49.99    2.57 
   7   4   2   79.49    2.77 
   7   4   2   63.70    2.89 
  -7  -4  -3   18.45    1.57 
  -7  -4  -3   20.88    1.71 
  -7  -4  -3   14.00    1.40 
   7   4   3   20.60    1.45 
   7   4   3   18.22    1.58 
  -7  -4  -4   81.17    3.21 
  -7  -4  -4   72.68    3.12 
  -7  -4  -4   58.34    2.78 
   7   4   4   90.82    2.99 
   7   4   4   73.85    3.12 
  -7  -4  -5    4.10    0.86 
  -7  -4  -5    3.40    0.83 
  -7  -4  -5    2.48    0.71 
   7   4   5    4.42    0.77 
   7   4   5    3.90    0.82 
  -7  -4  -6   50.44    2.60 
  -7  -4  -6   49.98    2.66 
  -7  -4  -6   39.15    2.30 
   7   4   6   29.89    1.77 
   7   4   6   43.71    2.42 
  -7  -4  -7    0.63    0.56 
  -7  -4  -7    0.82    0.59 
  -7  -4  -7    0.71    0.53 
   7   4   7   -0.01    0.16 
   7   4   7    0.87    0.54 
  -7  -4  -8   35.83    2.29 
  -7  -4  -8   35.92    2.33 
  -7  -4  -8   28.60    2.00 
   7   4   8   25.62    1.71 
   7   4   8   32.62    2.14 
  -7  -4  -9   11.38    1.39 
  -7  -4  -9    9.76    1.31 
  -7  -4  -9   10.72    1.27 
   7   4   9   13.16    1.31 
   7   4   9   10.92    1.29 
  -7  -4 -10   31.65    2.24 
  -7  -4 -10   31.10    2.26 
  -7  -4 -10   26.31    1.94 
   7   4  10   32.00    2.02 
   7   4  10   31.43    2.14 
  -7  -4 -11   22.48    1.96 
  -7  -4 -11   20.87    1.76 
   7   4  11   25.43    1.86 
   7   4  11   22.01    1.83 
  -7  -4 -12    3.36    0.94 
  -7  -4 -12    4.70    0.95 
   7   4  12    5.30    0.97 
   7   4  12    3.40    0.85 
  -7  -4 -13   22.82    2.07 
  -7  -4 -13   19.67    1.73 
   7   4  13   23.42    1.90 
   7   4  13   21.52    1.87 
  -7  -5  10    0.29    0.59 
  -7  -5  10    1.19    0.63 
   7   5 -10    0.43    0.59 
  -7  -5   9   29.63    2.24 
  -7  -5   9   26.15    2.14 
  -7  -5   9   23.02    1.83 
   7   5  -9   29.16    2.13 
  -7  -5   8    0.46    0.57 
  -7  -5   8    0.82    0.60 
  -7  -5   8    0.66    0.54 
   7   5  -8    0.49    0.58 
  -7  -5   7   13.28    1.48 
  -7  -5   7   11.99    1.43 
  -7  -5   7   12.14    1.45 
  -7  -5   7   12.46    1.37 
   7   5  -7   14.61    1.47 
   7   5  -7   11.70    1.42 
  -7  -5   6   11.80    1.38 
  -7  -5   6   10.56    1.33 
  -7  -5   6    9.24    1.26 
  -7  -5   6   10.02    1.24 
   7   5  -6   11.00    1.27 
   7   5  -6   10.82    1.35 
  -7  -5   5   25.64    1.93 
  -7  -5   5   24.23    1.92 
  -7  -5   5   18.96    1.64 
   7   5  -5   28.46    1.92 
   7   5  -5   24.96    1.95 
  -7  -5   4   35.76    2.24 
  -7  -5   4   34.57    2.24 
  -7  -5   4   27.05    1.93 
   7   5  -4   39.00    2.19 
   7   5  -4   32.13    2.18 
  -7  -5   3    4.96    0.93 
  -7  -5   3    4.01    0.88 
  -7  -5   3    4.19    0.84 
   7   5  -3    5.35    0.88 
   7   5  -3    4.46    0.90 
  -7  -5   2   39.44    2.29 
  -7  -5   2   40.33    2.37 
  -7  -5   2   29.86    2.02 
   7   5  -2   41.11    2.17 
   7   5  -2   34.69    2.21 
  -7  -5   1    0.10    0.48 
  -7  -5   1   -0.20    0.44 
  -7  -5   1   -0.15    0.38 
   7   5  -1    0.38    0.49 
   7   5  -1    0.30    0.47 
  -7  -5   0   58.21    2.75 
  -7  -5   0   61.58    2.88 
  -7  -5   0   43.28    2.42 
   7   5   0   62.19    2.61 
   7   5   0   53.50    2.69 
  -7  -5  -1    4.58    0.91 
  -7  -5  -1    5.51    0.98 
  -7  -5  -1    3.81    0.83 
   7   5   1    5.25    0.87 
   7   5   1    4.55    0.89 
  -7  -5  -2   65.80    2.92 
  -7  -5  -2   64.25    2.94 
  -7  -5  -2   50.55    2.60 
   7   5   2   71.91    2.78 
   7   5   2   58.02    2.77 
  -7  -5  -3   26.06    1.88 
  -7  -5  -3   24.72    1.86 
  -7  -5  -3   19.55    1.65 
   7   5   3   27.50    1.75 
   7   5   3   24.72    1.83 
  -7  -5  -4   17.60    1.58 
  -7  -5  -4   17.15    1.58 
  -7  -5  -4   12.73    1.36 
   7   5   4   20.88    1.55 
   7   5   4   18.65    1.59 
  -7  -5  -5   52.39    2.67 
  -7  -5  -5   51.38    2.68 
  -7  -5  -5   41.99    2.40 
   7   5   5   57.31    2.53 
   7   5   5   49.51    2.55 
  -7  -5  -6    7.60    1.12 
  -7  -5  -6    7.57    1.13 
  -7  -5  -6    6.37    1.02 
   7   5   6    9.59    1.12 
   7   5   6    7.29    1.04 
  -7  -5  -7   40.47    2.41 
  -7  -5  -7   44.25    2.54 
  -7  -5  -7   33.77    2.19 
   7   5   7   48.44    2.40 
   7   5   7   39.14    2.29 
  -7  -5  -8    0.04    0.52 
  -7  -5  -8    0.12    0.53 
  -7  -5  -8    0.00    0.44 
   7   5   8    0.06    0.45 
   7   5   8   -0.02    0.42 
  -7  -5  -9   28.15    2.10 
  -7  -5  -9   28.76    2.13 
  -7  -5  -9   23.18    1.85 
   7   5   9   33.68    2.09 
   7   5   9   27.81    1.96 
  -7  -5 -10    3.84    0.94 
  -7  -5 -10    5.31    1.05 
  -7  -5 -10    4.28    0.90 
   7   5  10    5.62    0.96 
   7   5  10    6.41    1.02 
  -7  -5 -11   23.75    2.02 
  -7  -5 -11   20.69    1.78 
   7   5  11   23.87    1.86 
   7   5  11   24.41    1.88 
  -7  -5 -12   10.62    1.45 
  -7  -5 -12    8.85    1.23 
   7   5  12   11.24    1.36 
   7   5  12   10.37    1.29 
  -7  -5 -13    7.02    1.24 
  -7  -5 -13    4.99    1.00 
   7   5  13    8.29    1.23 
   7   5  13    6.57    1.08 
  -7  -6   9    0.19    0.58 
  -7  -6   9    0.04    0.49 
   7   6  -9    0.50    0.61 
  -7  -6   8   24.11    2.06 
  -7  -6   8   22.10    1.99 
  -7  -6   8   23.27    1.83 
   7   6  -8   23.81    1.99 
  -7  -6   7    1.22    0.66 
  -7  -6   7    1.02    0.62 
  -7  -6   7    1.07    0.59 
   7   6  -7    0.64    0.59 
  -7  -6   6   25.31    2.03 
  -7  -6   6   21.87    1.92 
  -7  -6   6   22.65    1.95 
  -7  -6   6   17.39    1.59 
   7   6  -6   23.76    1.90 
  -7  -6   5    5.15    1.00 
  -7  -6   5    4.91    0.99 
  -7  -6   5    3.84    0.89 
  -7  -6   5    3.08    0.78 
   7   6  -5    5.13    0.97 
   7   6  -5    3.49    0.86 
  -7  -6   4   25.37    1.96 
  -7  -6   4   23.56    1.92 
  -7  -6   4   18.24    1.62 
   7   6  -4   26.83    1.92 
   7   6  -4   21.53    1.84 
  -7  -6   3   22.47    1.83 
  -7  -6   3   23.88    1.91 
  -7  -6   3   16.21    1.53 
   7   6  -3   23.25    1.78 
   7   6  -3   20.48    1.77 
  -7  -6   2    8.07    1.15 
  -7  -6   2    6.87    1.09 
  -7  -6   2    4.75    0.90 
   7   6  -2    7.58    1.07 
   7   6  -2    6.11    1.01 
  -7  -6   1   26.07    1.93 
  -7  -6   1   26.53    1.97 
  -7  -6   1   19.92    1.69 
   7   6  -1   26.65    1.84 
   7   6  -1   25.19    1.91 
  -7  -6   0    2.45    0.74 
  -7  -6   0    2.15    0.71 
  -7  -6   0    1.65    0.65 
   7   6   0    2.98    0.76 
   7   6   0    1.89    0.67 
  -7  -6  -1   44.29    2.47 
  -7  -6  -1   47.70    2.59 
  -7  -6  -1   36.97    2.27 
   7   6   1   51.35    2.49 
   7   6   1   43.56    2.45 
  -7  -6  -2    3.82    0.89 
  -7  -6  -2    5.68    1.00 
  -7  -6  -2    2.98    0.76 
   7   6   2    5.72    0.94 
   7   6   2    4.85    0.91 
  -7  -6  -3   45.04    2.50 
  -7  -6  -3   45.74    2.53 
  -7  -6  -3   36.37    2.25 
   7   6   3   52.89    2.52 
   7   6   3   45.59    2.47 
  -7  -6  -4   12.91    1.41 
  -7  -6  -4   13.87    1.46 
  -7  -6  -4   10.10    1.25 
   7   6   4   12.96    1.31 
   7   6   4   12.80    1.35 
  -7  -6  -5   53.06    2.74 
  -7  -6  -5   56.94    2.85 
  -7  -6  -5   39.27    2.36 
   7   6   5   57.56    2.66 
   7   6   5   48.86    2.54 
  -7  -6  -6   37.35    2.34 
  -7  -6  -6   40.18    2.42 
  -7  -6  -6   29.41    2.07 
   7   6   6   37.96    2.20 
   7   6   6   35.07    2.16 
  -7  -6  -7   11.57    1.38 
  -7  -6  -7   11.98    1.40 
  -7  -6  -7   10.20    1.27 
   7   6   7   14.03    1.40 
   7   6   7   11.33    1.27 
  -7  -6  -8   39.46    2.46 
  -7  -6  -8   39.87    2.46 
  -7  -6  -8   30.15    2.12 
   7   6   8   43.32    2.40 
   7   6   8   36.52    2.21 
  -7  -6  -9    0.89    0.65 
  -7  -6  -9    0.98    0.63 
  -7  -6  -9    1.23    0.61 
   7   6   9    1.42    0.64 
   7   6   9    0.76    0.52 
  -7  -6 -10   49.98    2.85 
  -7  -6 -10   44.16    2.66 
  -7  -6 -10   38.55    2.42 
   7   6  10   49.81    2.66 
   7   6  10   47.82    2.54 
  -7  -6 -11    0.37    0.66 
  -7  -6 -11    1.10    0.63 
   7   6  11    0.44    0.56 
   7   6  11    0.75    0.55 
  -7  -6 -12   27.54    2.23 
  -7  -6 -12   20.37    1.82 
   7   6  12   26.85    2.07 
   7   6  12   25.32    1.90 
  -7  -6 -13    5.75    1.17 
  -7  -6 -13    4.51    0.98 
   7   6  13    5.76    1.09 
   7   6  13    5.89    1.01 
  -7  -7   7    9.85    1.40 
  -7  -7   7    7.22    1.23 
  -7  -7   7    7.52    1.12 
   7   7  -7    8.77    1.31 
  -7  -7   6    0.14    0.53 
  -7  -7   6    0.11    0.51 
  -7  -7   6    0.35    0.52 
   7   7  -6    0.32    0.57 
  -7  -7   5   34.10    2.38 
  -7  -7   5   28.33    2.19 
  -7  -7   5   24.32    1.88 
   7   7  -5   34.88    2.34 
  -7  -7   4    4.99    1.02 
  -7  -7   4    6.00    1.09 
  -7  -7   4    4.42    0.96 
  -7  -7   4    3.56    0.84 
   7   7  -4    5.50    1.04 
  -7  -7   3   26.53    2.06 
  -7  -7   3   26.47    2.07 
  -7  -7   3   22.12    1.88 
  -7  -7   3   18.81    1.66 
   7   7  -3   25.90    1.96 
   7   7  -3   24.62    1.98 
  -7  -7   2   10.63    1.34 
  -7  -7   2   10.69    1.35 
  -7  -7   2    7.67    1.10 
   7   7  -2   10.37    1.28 
   7   7  -2   10.51    1.31 
  -7  -7   1    6.73    1.11 
  -7  -7   1    7.26    1.12 
  -7  -7   1    4.94    0.93 
   7   7  -1    6.50    1.05 
   7   7  -1    5.97    1.01 
  -7  -7   0   23.59    1.90 
  -7  -7   0   21.84    1.83 
  -7  -7   0   15.17    1.50 
   7   7   0   21.02    1.73 
   7   7   0   18.99    1.69 
  -7  -7  -1    3.94    0.91 
  -7  -7  -1    3.77    0.88 
  -7  -7  -1    1.86    0.66 
   7   7   1    2.99    0.80 
   7   7   1    2.33    0.71 
  -7  -7  -2   40.56    2.44 
  -7  -7  -2   41.16    2.46 
  -7  -7  -2   32.37    2.16 
   7   7   2   42.87    2.40 
   7   7   2   38.97    2.33 
  -7  -7  -3   -0.14    0.53 
  -7  -7  -3   -0.09    0.50 
  -7  -7  -3    0.03    0.46 
   7   7   3   -0.03    0.48 
   7   7   3    0.10    0.44 
  -7  -7  -4   58.12    2.92 
  -7  -7  -4   58.98    2.93 
  -7  -7  -4   44.35    2.55 
   7   7   4   53.74    2.68 
   7   7   4   51.73    2.64 
  -7  -7  -5    8.60    1.24 
  -7  -7  -5    9.55    1.28 
  -7  -7  -5    6.58    1.08 
   7   7   5    9.87    1.24 
   7   7   5    8.17    1.13 
  -7  -7  -6   52.36    2.81 
  -7  -7  -6   56.61    2.90 
  -7  -7  -6   40.63    2.47 
   7   7   6   50.54    2.64 
   7   7   6   49.74    2.57 
  -7  -7  -7   29.36    2.16 
  -7  -7  -7   29.43    2.13 
  -7  -7  -7   23.31    1.91 
   7   7   7   29.28    2.05 
   7   7   7   26.64    1.90 
  -7  -7  -8   21.74    1.89 
  -7  -7  -8   18.36    1.73 
  -7  -7  -8   16.04    1.62 
   7   7   8   22.08    1.82 
   7   7   8   19.55    1.64 
  -7  -7  -9   39.43    2.54 
  -7  -7  -9   43.16    2.60 
  -7  -7  -9   30.68    2.21 
   7   7   9   38.85    2.40 
   7   7   9   37.17    2.22 
  -7  -7 -10    2.74    0.87 
  -7  -7 -10    4.03    0.97 
   7   7  10    3.92    0.92 
   7   7  10    3.58    0.81 
  -7  -7 -11   54.40    3.06 
  -7  -7 -11   40.49    2.57 
   7   7  11   54.83    2.94 
   7   7  11   52.24    2.64 
  -7  -7 -12   -0.40    0.54 
  -7  -7 -12    0.08    0.53 
   7   7  12    0.18    0.58 
  -7  -7 -13   41.62    2.79 
  -7  -7 -13   31.97    2.33 
   7   7  13   42.73    2.71 
  -7  -8   6   21.11    2.02 
  -7  -8   6   18.78    1.69 
   7   8  -6   22.22    2.02 
  -7  -8   5    2.59    0.88 
  -7  -8   5    1.62    0.74 
  -7  -8   5    1.44    0.65 
   7   8  -5    1.57    0.76 
  -7  -8   4   32.02    2.37 
  -7  -8   4   23.71    2.04 
  -7  -8   4   23.99    1.90 
   7   8  -4   32.55    2.33 
  -7  -8   3    1.90    0.76 
  -7  -8   3    1.50    0.66 
  -7  -8   3    0.70    0.58 
   7   8  -3    0.77    0.65 
  -7  -8   2   30.49    2.25 
  -7  -8   2   29.73    2.22 
  -7  -8   2   25.64    2.05 
  -7  -8   2   22.24    1.84 
   7   8  -2   31.38    2.23 
  -7  -8   1    3.98    0.94 
  -7  -8   1    4.30    0.95 
  -7  -8   1    2.61    0.77 
  -7  -8   1    3.69    0.87 
   7   8  -1    4.21    0.95 
   7   8  -1    4.20    0.92 
  -7  -8   0   28.63    2.15 
  -7  -8   0   32.12    2.26 
  -7  -8   0   27.14    2.05 
  -7  -8   0   22.05    1.83 
   7   8   0   31.23    2.19 
   7   8   0   29.25    2.13 
  -7  -8  -1   16.49    1.66 
  -7  -8  -1   16.81    1.66 
  -7  -8  -1   13.34    1.46 
   7   8   1   18.56    1.71 
   7   8   1   15.35    1.54 
  -7  -8  -2   11.92    1.44 
  -7  -8  -2   12.47    1.45 
  -7  -8  -2    9.34    1.25 
   7   8   2   13.97    1.50 
   7   8   2   11.20    1.32 
  -7  -8  -3   39.57    2.49 
  -7  -8  -3   39.30    2.45 
  -7  -8  -3   25.90    2.00 
   7   8   3   44.94    2.57 
   7   8   3   34.51    2.22 
  -7  -8  -4    0.26    0.58 
  -7  -8  -4   -0.23    0.50 
  -7  -8  -4    0.23    0.51 
   7   8   4    0.42    0.58 
   7   8   4    0.80    0.54 
  -7  -8  -5   40.70    2.53 
  -7  -8  -5   42.97    2.56 
  -7  -8  -5   27.85    2.10 
   7   8   5   40.21    2.44 
   7   8   5   37.31    2.27 
  -7  -8  -6    2.29    0.81 
  -7  -8  -6    2.54    0.81 
  -7  -8  -6    1.39    0.66 
   7   8   6    2.70    0.83 
   7   8   6    2.26    0.70 
  -7  -8  -7   42.06    2.61 
  -7  -8  -7   51.34    2.82 
  -7  -8  -7   32.10    2.28 
   7   8   7   46.62    2.67 
   7   8   7   38.61    2.28 
  -7  -8  -8   10.04    1.39 
  -7  -8  -8   11.12    1.42 
  -7  -8  -8    8.82    1.28 
   7   8   8    9.25    1.29 
   7   8   8    9.02    1.17 
  -7  -8  -9   17.21    1.76 
  -7  -8  -9   19.45    1.81 
  -7  -8  -9   13.25    1.53 
   7   8   9   20.80    1.86 
   7   8   9   16.84    1.53 
  -7  -8 -10   16.89    1.77 
  -7  -8 -10   19.75    1.85 
  -7  -8 -10   13.56    1.56 
   7   8  10   20.90    1.89 
   7   8  10   20.07    1.66 
  -7  -8 -11   20.55    1.96 
  -7  -8 -11   12.75    1.54 
   7   8  11   16.44    1.73 
  -7  -8 -12   41.06    2.77 
  -7  -8 -12   30.98    2.34 
   7   8  12   48.79    2.92 
  -7  -9   4    2.56    0.86 
  -7  -9   4    1.62    0.70 
   7   9  -4    3.05    0.94 
  -7  -9   3   26.92    2.24 
  -7  -9   3   22.36    2.01 
  -7  -9   3   21.29    1.84 
   7   9  -3   29.05    2.29 
  -7  -9   2    1.58    0.74 
  -7  -9   2    0.82    0.60 
  -7  -9   2    0.50    0.55 
   7   9  -2    0.71    0.69 
  -7  -9   1   32.66    2.39 
  -7  -9   1   29.99    2.24 
  -7  -9   1   24.60    1.98 
   7   9  -1   36.16    2.48 
  -7  -9   0    7.18    1.21 
  -7  -9   0    6.11    1.08 
  -7  -9   0    5.75    1.05 
   7   9   0   10.01    1.40 
  -7  -9  -1   28.23    2.20 
  -7  -9  -1   24.03    2.02 
  -7  -9  -1   19.78    1.79 
  -7  -9  -1   16.12    1.63 
   7   9   1   23.79    2.01 
  -7  -9  -2   21.86    1.95 
  -7  -9  -2   20.10    1.84 
  -7  -9  -2   18.09    1.70 
  -7  -9  -2   13.00    1.50 
   7   9   2   22.45    1.95 
   7   9   2   18.23    1.70 
  -7  -9  -3   12.53    1.52 
  -7  -9  -3   12.00    1.46 
  -7  -9  -3    8.99    1.22 
  -7  -9  -3    7.81    1.21 
   7   9   3   12.79    1.52 
   7   9   3   10.19    1.28 
  -7  -9  -4   25.17    2.07 
  -7  -9  -4   23.41    1.96 
  -7  -9  -4   17.10    1.70 
   7   9   4   25.05    2.04 
   7   9   4   19.78    1.72 
  -7  -9  -5    4.75    1.04 
  -7  -9  -5    5.34    1.05 
  -7  -9  -5    4.55    0.98 
   7   9   5    4.97    1.03 
   7   9   5    5.74    0.99 
  -7  -9  -6   30.13    2.27 
  -7  -9  -6   29.01    2.17 
  -7  -9  -6   21.55    1.92 
   7   9   6   30.39    2.24 
   7   9   6   27.18    1.97 
  -7  -9  -7    0.22    0.62 
  -7  -9  -7   -0.17    0.56 
  -7  -9  -7    0.21    0.52 
   7   9   7    0.14    0.57 
   7   9   7   -0.06    0.43 
  -7  -9  -8   21.42    1.96 
  -7  -9  -8   22.85    1.96 
  -7  -9  -8   14.67    1.64 
   7   9   8   24.80    2.07 
   7   9   8   19.94    1.67 
  -7  -9  -9    3.55    0.98 
  -7  -9  -9    2.77    0.85 
   7   9   9    3.86    0.99 
   7   9   9    3.22    0.78 
  -7  -9 -10   22.36    2.04 
  -7  -9 -10   15.79    1.73 
   7   9  10   22.69    2.04 
  -7  -9 -11   11.97    1.57 
  -7  -9 -11   10.95    1.49 
   7   9  11   19.27    1.92 
  -7 -10   0   14.87    1.70 
  -7 -10   0   15.22    1.65 
  -7 -10   0   11.39    1.43 
   7  10   0   16.02    1.77 
  -7 -10  -1    0.35    0.64 
  -7 -10  -1    0.34    0.52 
  -7 -10  -1   -0.22    0.48 
   7  10   1   -0.23    0.56 
  -7 -10  -2   11.75    1.52 
  -7 -10  -2   10.83    1.37 
  -7 -10  -2    8.70    1.29 
   7  10   2   14.72    1.68 
  -7 -10  -3    6.53    1.21 
  -7 -10  -3    4.74    0.96 
  -7 -10  -3    4.10    0.97 
   7  10   3    7.22    1.26 
  -7 -10  -4   11.19    1.50 
  -7 -10  -4    8.82    1.23 
  -7 -10  -4    8.47    1.29 
   7  10   4   11.60    1.52 
  -7 -10  -5   16.42    1.77 
  -7 -10  -5   13.22    1.44 
  -7 -10  -5   11.40    1.48 
   7  10   5   14.59    1.67 
  -7 -10  -6    2.57    0.91 
  -7 -10  -6    3.52    0.84 
  -7 -10  -6    2.29    0.84 
   7  10   6    2.33    0.86 
   7  10   6    2.21    0.72 
  -7 -10  -7   35.87    2.54 
  -7 -10  -7   26.22    1.95 
  -7 -10  -7   23.96    2.10 
   7  10   7   37.72    2.60 
   7  10   7   29.43    2.05 
  -7 -10  -8   -0.16    0.63 
  -7 -10  -8    0.00    0.57 
   7  10   8   -0.01    0.61 
  -8   1   3   23.72    2.11 
   8  -1  -3   25.75    2.12 
  -8   1   2    0.17    0.55 
   8  -1  -2    0.14    0.54 
  -8   1   1   36.16    2.55 
   8  -1  -1   44.10    2.77 
  -8   1   0    0.73    0.63 
   8  -1   0    0.66    0.61 
  -8   1  -1   25.94    2.16 
  -8   0   5   20.86    1.97 
   8   0  -5   27.99    2.18 
  -8   0   4   15.95    1.73 
   8   0  -4   21.34    1.92 
  -8   0   3   16.65    1.75 
   8   0  -3   21.47    1.92 
  -8   0   2   26.50    1.96 
  -8   0   2   16.87    1.75 
   8   0  -2   23.81    2.02 
  -8   0   1    2.63    0.81 
  -8   0   1    2.91    0.84 
   8   0  -1    2.94    0.85 
  -8   0   0   32.97    2.21 
  -8   0   0   24.75    2.07 
   8   0   0   36.06    2.49 
  -8   0  -1    0.48    0.61 
  -8   0  -1    0.33    0.54 
   8   0   1    0.13    0.50 
  -8   0  -2   42.82    2.57 
  -8   0  -2   34.58    2.41 
   8   0   2   43.65    2.76 
  -8   0  -3    3.88    0.95 
  -8   0  -3    2.54    0.81 
   8   0   3    3.29    0.88 
  -8   0  -4   17.55    1.75 
  -8   0  -5    9.71    1.35 
  -8  -1   7    0.59    0.59 
   8   1  -7    1.94    0.77 
  -8  -1   6   26.81    2.20 
   8   1  -6   36.05    2.47 
  -8  -1   5    3.74    0.90 
  -8  -1   5    3.60    0.93 
   8   1  -5    4.16    0.97 
  -8  -1   4   23.95    1.89 
  -8  -1   4   15.53    1.68 
   8   1  -4   24.05    2.01 
  -8  -1   3   17.61    1.65 
  -8  -1   3   11.92    1.47 
   8   1  -3   16.02    1.66 
  -8  -1   2   20.08    1.74 
  -8  -1   2   16.98    1.72 
   8   1  -2   20.85    1.88 
  -8  -1   1   39.59    2.40 
  -8  -1   1   30.68    2.27 
   8   1  -1   37.32    2.48 
  -8  -1   0   22.63    1.86 
  -8  -1   0   17.99    1.77 
   8   1   0   20.79    1.89 
  -8  -1  -1   41.35    2.49 
  -8  -1  -1   33.40    2.35 
   8   1   1   37.65    2.51 
  -8  -1  -2    0.51    0.54 
  -8  -1  -2    0.23    0.59 
  -8  -1  -2    0.99    0.61 
   8   1   2    0.86    0.60 
  -8  -1  -3   40.44    2.31 
  -8  -1  -3   37.37    2.43 
  -8  -1  -3   31.15    2.26 
   8   1   3   40.82    2.64 
  -8  -1  -4    1.63    0.68 
  -8  -1  -4    1.40    0.72 
  -8  -1  -4    1.04    0.64 
   8   1   4    1.38    0.67 
  -8  -1  -5   15.68    1.54 
  -8  -1  -5   11.99    1.45 
   8   1   5   13.79    1.60 
  -8  -1  -6    9.02    1.24 
  -8  -1  -6    6.95    1.15 
  -8  -2   7   22.61    1.90 
  -8  -2   7   15.42    1.68 
   8   2  -7   19.79    1.87 
  -8  -2   6    2.75    0.83 
  -8  -2   6    1.62    0.70 
   8   2  -6    2.52    0.81 
  -8  -2   5   25.48    1.98 
  -8  -2   5   18.62    1.81 
   8   2  -5   21.09    1.90 
  -8  -2   4    0.01    0.52 
  -8  -2   4   -0.03    0.56 
  -8  -2   4    0.02    0.47 
   8   2  -4    0.69    0.61 
  -8  -2   3   34.01    2.11 
  -8  -2   3   35.34    2.30 
  -8  -2   3   22.65    1.97 
   8   2  -3   29.46    2.21 
  -8  -2   2    5.79    0.99 
  -8  -2   2    7.93    1.18 
  -8  -2   2    5.38    1.04 
   8   2  -2    6.50    1.11 
  -8  -2   1   18.63    1.60 
  -8  -2   1   22.33    1.85 
  -8  -2   1   14.71    1.59 
   8   2  -1   20.68    1.86 
  -8  -2   0   44.94    2.41 
  -8  -2   0   39.36    2.43 
  -8  -2   0   32.79    2.31 
   8   2   0   39.08    2.52 
  -8  -2  -1    6.47    1.04 
  -8  -2  -1    7.13    1.16 
  -8  -2  -1    4.51    0.96 
   8   2   1    6.47    1.12 
  -8  -2  -2   58.24    2.78 
  -8  -2  -2   62.68    3.09 
  -8  -2  -2   45.49    2.70 
   8   2   2   58.55    3.09 
  -8  -2  -3    1.21    0.65 
  -8  -2  -3    2.38    0.81 
  -8  -2  -3    1.75    0.71 
   8   2   3    2.01    0.74 
  -8  -2  -4   38.01    2.32 
  -8  -2  -4   32.03    2.28 
  -8  -2  -4   28.21    2.14 
   8   2   4   34.87    2.42 
  -8  -2  -5    0.64    0.61 
  -8  -2  -5    0.28    0.52 
   8   2   5    0.04    0.49 
  -8  -2  -6   26.94    2.04 
  -8  -2  -6   24.36    1.99 
   8   2   6   29.01    2.25 
  -8  -2  -7    5.57    1.06 
  -8  -2  -7    4.43    0.96 
   8   2   7    4.09    0.96 
  -8  -2  -8   24.06    2.02 
  -8  -2  -8   19.87    1.83 
  -8  -3   7   15.37    1.56 
  -8  -3   7   11.15    1.43 
   8   3  -7   15.75    1.70 
  -8  -3   6   14.27    1.49 
  -8  -3   6   13.57    1.53 
  -8  -3   6   10.06    1.36 
   8   3  -6   14.83    1.65 
  -8  -3   5    8.10    1.17 
  -8  -3   5    8.26    1.23 
  -8  -3   5    5.46    1.05 
   8   3  -5    7.14    1.19 
  -8  -3   4   31.81    2.12 
  -8  -3   4   34.31    2.31 
  -8  -3   4   26.42    2.10 
   8   3  -4   29.02    2.21 
  -8  -3   3   -0.04    0.55 
  -8  -3   3   -0.08    0.52 
  -8  -3   3    0.18    0.49 
   8   3  -3   -0.10    0.50 
  -8  -3   2   34.76    2.19 
  -8  -3   2   36.20    2.35 
  -8  -3   2   24.11    1.99 
   8   3  -2   33.64    2.34 
  -8  -3   1    5.23    1.00 
  -8  -3   1    4.64    0.98 
  -8  -3   1    3.46    0.86 
   8   3  -1    5.56    1.05 
  -8  -3   0   45.73    2.50 
  -8  -3   0   42.14    2.53 
  -8  -3   0   32.21    2.28 
   8   3   0   35.83    2.40 
  -8  -3  -1   10.53    1.29 
  -8  -3  -1   11.32    1.40 
  -8  -3  -1    7.18    1.16 
   8   3   1    8.72    1.25 
  -8  -3  -2   18.84    1.67 
  -8  -3  -2   16.51    1.66 
  -8  -3  -2   13.86    1.53 
   8   3   2   15.39    1.60 
  -8  -3  -3   32.42    2.16 
  -8  -3  -3   30.24    2.20 
  -8  -3  -3   24.02    1.98 
   8   3   3   29.82    2.21 
  -8  -3  -4   11.33    1.36 
  -8  -3  -4   10.80    1.40 
  -8  -3  -4    9.57    1.31 
   8   3   4   11.17    1.41 
  -8  -3  -5   39.89    2.44 
  -8  -3  -5   39.72    2.56 
  -8  -3  -5   34.79    2.36 
   8   3   5   37.07    2.48 
  -8  -3  -6   -0.30    0.50 
  -8  -3  -6    0.15    0.51 
   8   3   6    0.01    0.46 
  -8  -3  -7   36.82    2.43 
  -8  -3  -7   32.58    2.30 
   8   3   7   32.60    2.37 
  -8  -3  -8    2.61    0.86 
  -8  -3  -8    2.08    0.79 
   8   3   8    2.04    0.77 
  -8  -3  -9   32.07    2.37 
  -8  -3  -9   24.22    2.02 
   8   3   9   27.96    2.24 
  -8  -4   7    2.86    0.86 
  -8  -4   7    2.36    0.79 
   8   4  -7    3.01    0.89 
  -8  -4   6   26.67    2.06 
  -8  -4   6   20.37    1.87 
   8   4  -6   23.27    2.04 
  -8  -4   5   15.88    1.61 
  -8  -4   5   13.07    1.51 
   8   4  -5   16.56    1.73 
  -8  -4   4    9.93    1.29 
  -8  -4   4    8.65    1.27 
  -8  -4   4    8.03    1.21 
   8   4  -4    8.12    1.24 
  -8  -4   3   17.70    1.65 
  -8  -4   3   17.96    1.74 
  -8  -4   3   14.82    1.59 
   8   4  -3   16.02    1.67 
  -8  -4   2    1.82    0.72 
  -8  -4   2    2.73    0.83 
  -8  -4   2    1.91    0.72 
   8   4  -2    2.64    0.80 
  -8  -4   1   32.55    2.18 
  -8  -4   1   31.90    2.24 
  -8  -4   1   19.70    1.80 
   8   4  -1   29.70    2.20 
  -8  -4   0   -0.70    0.46 
  -8  -4   0   -0.26    0.51 
  -8  -4   0   -0.14    0.46 
   8   4   0    0.05    0.49 
  -8  -4  -1   51.22    2.72 
  -8  -4  -1   48.95    2.77 
  -8  -4  -1   35.23    2.37 
   8   4   1   45.77    2.70 
  -8  -4  -2   12.01    1.40 
  -8  -4  -2   13.67    1.54 
  -8  -4  -2    9.91    1.33 
   8   4   2   10.81    1.37 
  -8  -4  -3   46.18    2.61 
  -8  -4  -3   51.09    2.85 
  -8  -4  -3   37.81    2.46 
   8   4   3   42.54    2.61 
  -8  -4  -4   30.35    2.16 
  -8  -4  -4   27.67    2.14 
  -8  -4  -4   20.09    1.82 
   8   4   4   25.54    2.04 
  -8  -4  -5   17.86    1.70 
  -8  -4  -5   20.56    1.89 
  -8  -4  -5   15.23    1.61 
   8   4   5   16.41    1.67 
  -8  -4  -6   43.21    2.61 
  -8  -4  -6   35.22    2.39 
   8   4   6   40.05    2.56 
  -8  -4  -7    1.94    0.78 
  -8  -4  -7    1.91    0.74 
   8   4   7    2.07    0.75 
  -8  -4  -8   37.51    2.53 
  -8  -4  -8   28.39    2.18 
   8   4   8   34.05    2.40 
  -8  -4  -9   -0.23    0.58 
  -8  -4  -9    0.30    0.59 
   8   4   9    0.18    0.53 
  -8  -5   6    2.01    0.78 
  -8  -5   6    1.03    0.64 
   8   5  -6    1.90    0.72 
  -8  -5   5   22.78    1.95 
  -8  -5   5   17.91    1.76 
   8   5  -5   24.62    1.87 
   8   5  -5   23.44    2.05 
  -8  -5   4    9.31    1.30 
  -8  -5   4    7.02    1.16 
   8   5  -4    8.16    1.10 
   8   5  -4    9.10    1.33 
  -8  -5   3   12.37    1.45 
  -8  -5   3   10.28    1.35 
   8   5  -3    0.53    0.33 
   8   5  -3   11.43    1.46 
  -8  -5   2   15.62    1.60 
  -8  -5   2   11.41    1.44 
  -8  -5   2   10.47    1.36 
   8   5  -2    0.37    0.30 
   8   5  -2   13.29    1.54 
  -8  -5   1   10.52    1.35 
  -8  -5   1    9.06    1.30 
  -8  -5   1    6.62    1.11 
   8   5  -1    4.33    0.80 
   8   5  -1    9.12    1.29 
  -8  -5   0   43.78    2.58 
  -8  -5   0   42.36    2.61 
  -8  -5   0   29.27    2.18 
   8   5   0   39.53    2.19 
   8   5   0   38.07    2.49 
  -8  -5  -1   -0.27    0.53 
  -8  -5  -1    0.07    0.57 
  -8  -5  -1   -0.04    0.44 
   8   5   1   -0.09    0.46 
   8   5   1    0.15    0.52 
  -8  -5  -2   34.05    2.29 
  -8  -5  -2   33.49    2.34 
  -8  -5  -2   21.42    1.88 
   8   5   2   35.38    2.07 
   8   5   2   31.83    2.27 
  -8  -5  -3    3.68    0.93 
  -8  -5  -3    4.04    0.99 
  -8  -5  -3    3.00    0.84 
   8   5   3    4.12    0.84 
   8   5   3    3.72    0.90 
  -8  -5  -4   42.94    2.60 
  -8  -5  -4   41.34    2.61 
  -8  -5  -4   31.96    2.29 
   8   5   4   44.79    2.33 
   8   5   4   40.43    2.54 
  -8  -5  -5   21.62    1.90 
  -8  -5  -5   22.37    1.97 
  -8  -5  -5   17.13    1.72 
   8   5   5   13.70    1.32 
   8   5   5   20.69    1.85 
  -8  -5  -6   13.38    1.54 
  -8  -5  -6   10.84    1.40 
   8   5   6   13.76    1.54 
  -8  -5  -7   28.80    2.22 
  -8  -5  -7   21.34    1.91 
   8   5   7    0.12    0.26 
   8   5   7   26.84    2.10 
  -8  -5  -8    5.16    1.10 
  -8  -5  -8    4.45    1.00 
   8   5   8    5.33    0.91 
   8   5   8    5.88    1.08 
  -8  -5  -9   50.10    2.97 
  -8  -5  -9   39.69    2.59 
   8   5   9   53.30    2.72 
   8   5   9   45.01    2.73 
  -8  -5 -10   -0.29    0.60 
  -8  -5 -10    0.05    0.57 
   8   5  10    0.48    0.58 
   8   5  10    0.53    0.59 
  -8  -6   5    0.70    0.65 
  -8  -6   5   -0.15    0.50 
   8   6  -5    0.45    0.59 
  -8  -6   4   25.38    2.10 
  -8  -6   4   19.32    1.82 
   8   6  -4   31.10    2.16 
   8   6  -4   22.77    2.04 
  -8  -6   3    4.12    0.97 
  -8  -6   3    2.45    0.80 
   8   6  -3    3.93    0.90 
   8   6  -3    4.41    0.99 
  -8  -6   2   22.69    1.96 
  -8  -6   2   16.24    1.67 
   8   6  -2   21.68    1.78 
   8   6  -2   18.96    1.84 
  -8  -6   1   20.54    1.87 
  -8  -6   1   14.56    1.59 
   8   6  -1   22.18    1.78 
   8   6  -1   17.79    1.77 
  -8  -6   0    8.82    1.30 
  -8  -6   0    5.64    1.06 
   8   6   0    8.57    1.17 
   8   6   0    6.63    1.14 
  -8  -6  -1   19.30    1.80 
  -8  -6  -1   17.60    1.76 
  -8  -6  -1   13.76    1.55 
   8   6   1   21.54    1.74 
   8   6   1   19.19    1.80 
  -8  -6  -2    3.69    0.94 
  -8  -6  -2    4.42    1.01 
  -8  -6  -2    2.45    0.78 
   8   6   2    2.48    0.76 
   8   6   2    3.88    0.92 
  -8  -6  -3   30.75    2.24 
  -8  -6  -3   21.99    1.93 
   8   6   3   33.53    2.13 
   8   6   3   27.43    2.12 
  -8  -6  -4    0.71    0.67 
  -8  -6  -4    0.62    0.58 
   8   6   4    0.94    0.61 
   8   6   4    0.31    0.54 
  -8  -6  -5   27.82    2.17 
  -8  -6  -5   23.70    2.01 
   8   6   5   27.31    1.95 
   8   6   5   28.96    2.17 
  -8  -6  -6    6.00    1.14 
  -8  -6  -6    4.16    0.97 
   8   6   6    8.46    1.17 
   8   6   6    5.40    1.02 
  -8  -6  -7   16.49    1.74 
  -8  -6  -7   13.10    1.55 
   8   6   7   17.53    1.62 
   8   6   7   17.85    1.73 
  -8  -6  -8   16.53    1.77 
  -8  -6  -8   12.44    1.52 
   8   6   8   14.92    1.53 
   8   6   8   14.85    1.59 
  -8  -6  -9    9.24    1.40 
  -8  -6  -9    9.02    1.34 
   8   6   9   12.55    1.44 
   8   6   9    9.75    1.33 
  -8  -7   4    0.27    0.59 
  -8  -7   4    0.34    0.57 
   8   7  -4    0.08    0.59 
  -8  -7   3   24.47    2.11 
  -8  -7   3   19.05    1.82 
   8   7  -3   27.18    2.10 
  -8  -7   2    3.95    1.00 
  -8  -7   2    2.87    0.83 
   8   7  -2    3.70    0.93 
   8   7  -2    2.94    0.86 
  -8  -7   1   18.29    1.82 
  -8  -7   1   10.11    1.36 
   8   7  -1   18.66    1.74 
   8   7  -1   15.48    1.68 
  -8  -7   0    9.80    1.38 
  -8  -7   0    6.12    1.11 
   8   7   0    9.02    1.26 
   8   7   0    9.17    1.31 
  -8  -7  -1   14.97    1.65 
  -8  -7  -1    9.86    1.36 
   8   7   1   14.99    1.55 
   8   7   1   10.09    1.37 
  -8  -7  -2   27.42    2.18 
  -8  -7  -2   17.72    1.76 
   8   7   2   29.24    2.09 
   8   7   2   22.84    1.96 
  -8  -7  -3    4.55    1.06 
  -8  -7  -3    3.20    0.87 
   8   7   3    4.88    0.98 
   8   7   3    4.08    0.95 
  -8  -7  -4   29.39    2.26 
  -8  -7  -4   24.25    2.06 
   8   7   4   29.29    2.09 
   8   7   4   26.37    2.08 
  -8  -7  -5    0.31    0.64 
  -8  -7  -5    0.75    0.61 
   8   7   5    1.54    0.69 
   8   7   5    0.98    0.62 
  -8  -7  -6   16.71    1.76 
  -8  -7  -6   12.92    1.55 
   8   7   6   19.20    1.74 
   8   7   6   18.16    1.74 
  -8  -7  -7    2.29    0.89 
  -8  -7  -7    1.74    0.77 
   8   7   7    2.31    0.78 
   8   7   7    1.50    0.70 
  -8  -7  -8   16.63    1.80 
  -8  -7  -8   14.09    1.63 
   8   7   8   18.66    1.75 
   8   7   8   16.56    1.67 
  -8  -7  -9   11.69    1.57 
  -8  -7  -9    7.57    1.27 
   8   7   9    9.40    1.32 
   8   7   9    9.19    1.30 
  -8  -8   1    0.35    0.65 
  -8  -8   1    0.20    0.53 
  -8  -8   1   -0.03    0.52 
   8   8  -1    0.21    0.62 
  -8  -8   0   16.56    1.78 
  -8  -8   0   15.21    1.66 
   8   8   0   19.30    1.83 
   8   8   0   17.06    1.78 
  -8  -8  -1    5.23    1.12 
  -8  -8  -1    2.80    0.86 
   8   8   1    4.64    1.01 
   8   8   1    4.15    0.97 
  -8  -8  -2   16.30    1.77 
  -8  -8  -2   11.85    1.51 
   8   8   2   16.28    1.67 
   8   8   2   13.75    1.58 
  -8  -8  -3   11.95    1.55 
  -8  -8  -3    8.03    1.27 
   8   8   3   13.16    1.52 
   8   8   3   12.07    1.48 
  -8  -8  -4    4.84    1.12 
  -8  -8  -4    3.73    0.96 
   8   8   4    5.00    1.03 
   8   8   4    4.51    0.99 
  -8  -8  -5   32.48    2.44 
  -8  -8  -5   21.65    2.00 
   8   8   5   33.18    2.33 
   8   8   5   30.13    2.23 
  -8  -8  -6    1.16    0.79 
  -8  -8  -6    1.35    0.71 
   8   8   6    1.44    0.74 
   8   8   6    1.27    0.68 
  -8  -8  -7   32.80    2.48 
  -8  -8  -7   28.00    2.28 
   8   8   7   34.15    2.40 
   8   8   7   27.45    2.12 
  -8  -8  -8   -0.06    0.65 
  -8  -8  -8    0.73    0.65 
   8   8   8   -0.14    0.58 
   8   8   8    0.59    0.60 
   0   0   0    0.00    0.00 
;
_shelx_hkl_checksum              504
loop_
_space_group_symop_operation_xyz
'x, y, z'
'-x, -y, -z'
loop_
_atom_site_label
_atom_site_type_symbol
_atom_site_fract_x
_atom_site_fract_y
_atom_site_fract_z
_atom_site_U_iso_or_equiv
_atom_site_adp_type
_atom_site_occupancy
_atom_site_site_symmetry_order
_atom_site_calc_flag
_atom_site_refinement_flags_posn
_atom_site_refinement_flags_adp
W1 W 0.43531(2) 0.19540(2) 0.27839(2) 0.01918(7) Uani 1 1 d . .
C1 C 0.6591(6) -0.0023(5) 0.2624(3) 0.0326(9) Uani 1 1 d . .
O1 O 0.7895(6) -0.1158(5) 0.2530(3) 0.0494(9) Uani 1 1 d . .
C2 C 0.6590(6) 0.3012(5) 0.2341(2) 0.0261(8) Uani 1 1 d . .
O2 O 0.7933(5) 0.3523(5) 0.2086(2) 0.0415(8) Uani 1 1 d . .
C3 C 0.5433(6) 0.1515(5) 0.4070(3) 0.0268(8) Uani 1 1 d . .
O3 O 0.6067(6) 0.1268(5) 0.4790(2) 0.0451(9) Uani 1 1 d . .
C4 C 0.2324(7) 0.0694(5) 0.3195(3) 0.0293(8) Uani 1 1 d . .
O4 O 0.1268(6) -0.0055(4) 0.3393(2) 0.0420(8) Uani 1 1 d . .
C5 C 0.3107(6) 0.2528(5) 0.1510(3) 0.0267(8) Uani 1 1 d . .
O5 O 0.2344(6) 0.2855(5) 0.0798(2) 0.0449(9) Uani 1 1 d . .
C6 C 0.1749(5) 0.4127(5) 0.2983(2) 0.0196(7) Uani 1 1 d . .
N1 N 0.1286(5) 0.5571(4) 0.2466(2) 0.0226(6) Uani 1 1 d . .
H1 H 0.020(7) 0.628(6) 0.256(3) 0.027 Uiso 1 1 d . U
C7 C 0.0282(5) 0.4039(4) 0.3738(2) 0.0225(7) Uani 1 1 d . .
C8 C 0.0264(6) 0.2926(5) 0.4499(2) 0.0283(8) Uani 1 1 d . .
H8 H 0.1240 0.1909 0.4663 0.034 Uiso 1 1 calc R U
C9 C -0.1527(7) 0.3600(5) 0.5003(3) 0.0339(9) Uani 1 1 d . .
H9 H -0.1945 0.3112 0.5559 0.041 Uiso 1 1 calc R U
C10 C -0.2487(6) 0.5071(5) 0.4520(3) 0.0347(9) Uani 1 1 d . .
H10 H -0.3714 0.5777 0.4693 0.042 Uiso 1 1 calc R U
O6 O -0.1437(4) 0.5403(3) 0.37410(18) 0.0294(6) Uani 1 1 d . .
C11 C 0.2435(5) 0.6130(4) 0.1683(2) 0.0217(7) Uani 1 1 d . .
H11 H 0.3560 0.5223 0.1546 0.026 Uiso 1 1 calc R U
C12 C 0.3488(7) 0.7203(6) 0.1911(3) 0.0295(9) Uani 1 1 d . .
H12A H 0.4499 0.6623 0.2415 0.035 Uiso 1 1 calc R U
H12B H 0.2403 0.8069 0.2090 0.035 Uiso 1 1 calc R U
C13 C 0.4663(7) 0.7845(6) 0.1088(3) 0.0366(9) Uani 1 1 d . .
H13A H 0.5252 0.8575 0.1230 0.044 Uiso 1 1 calc R U
H13B H 0.5843 0.6986 0.0949 0.044 Uiso 1 1 calc R U
C14 C 0.3156(7) 0.8671(5) 0.0271(3) 0.0360(9) Uani 1 1 d . .
H14A H 0.2049 0.9586 0.0391 0.043 Uiso 1 1 calc R U
H14B H 0.3947 0.9027 -0.0245 0.043 Uiso 1 1 calc R U
C15 C 0.2136(6) 0.7601(5) 0.0052(2) 0.0319(8) Uani 1 1 d . .
H15A H 0.3236 0.6728 -0.0114 0.038 Uiso 1 1 calc R U
H15B H 0.1151 0.8169 -0.0462 0.038 Uiso 1 1 calc R U
C16 C 0.0919(6) 0.6972(5) 0.0861(2) 0.0275(8) Uani 1 1 d . .
H16A H -0.0257 0.7834 0.0999 0.033 Uiso 1 1 calc R U
H16B H 0.0325 0.6249 0.0713 0.033 Uiso 1 1 calc R U
loop_
_atom_site_aniso_label
_atom_site_aniso_U_11
_atom_site_aniso_U_22
_atom_site_aniso_U_33
_atom_site_aniso_U_23
_atom_site_aniso_U_13
_atom_site_aniso_U_12
W1 0.01564(9) 0.01649(10) 0.02433(9) -0.00768(6) -0.00146(5) -0.00191(6)
C1 0.0245(18) 0.027(2) 0.045(2) -0.0134(17) -0.0059(15) -0.0017(16)
O1 0.0365(18) 0.031(2) 0.075(2) -0.0279(18) -0.0001(16) 0.0059(15)
C2 0.0223(17) 0.024(2) 0.0297(17) -0.0036(14) -0.0018(13) -0.0063(15)
O2 0.0229(14) 0.047(2) 0.0523(18) -0.0065(15) -0.0016(12) -0.0134(14)
C3 0.0283(18) 0.021(2) 0.0325(18) -0.0021(15) -0.0035(14) -0.0124(15)
O3 0.063(2) 0.047(2) 0.0326(15) 0.0030(14) -0.0174(14) -0.0341(18)
C4 0.032(2) 0.025(2) 0.0295(17) -0.0062(15) -0.0053(14) -0.0075(17)
O4 0.0484(19) 0.039(2) 0.0474(17) -0.0064(14) -0.0040(14) -0.0283(16)
C5 0.0214(17) 0.029(2) 0.0295(17) -0.0123(15) 0.0040(13) -0.0058(15)
O5 0.0394(17) 0.066(3) 0.0293(14) -0.0159(15) -0.0060(12) -0.0139(17)
C6 0.0177(15) 0.0172(17) 0.0228(14) -0.0068(12) -0.0015(11) -0.0031(13)
N1 0.0177(13) 0.0175(15) 0.0298(14) -0.0057(12) 0.0046(11) -0.0035(11)
C7 0.0202(15) 0.0213(18) 0.0279(16) -0.0114(13) 0.0028(12) -0.0060(13)
C8 0.0330(19) 0.027(2) 0.0309(17) -0.0116(15) 0.0073(14) -0.0148(16)
C9 0.039(2) 0.038(2) 0.0342(19) -0.0153(17) 0.0151(15) -0.0230(19)
C10 0.0294(19) 0.040(2) 0.042(2) -0.0223(18) 0.0190(16) -0.0152(17)
O6 0.0230(12) 0.0271(15) 0.0373(13) -0.0135(11) 0.0114(10) -0.0054(11)
C11 0.0175(15) 0.0214(18) 0.0247(15) -0.0053(13) 0.0033(11) -0.0056(13)
C12 0.0285(19) 0.034(2) 0.0293(18) -0.0087(16) 0.0021(14) -0.0150(17)
C13 0.033(2) 0.040(3) 0.045(2) -0.0106(19) 0.0073(16) -0.0235(19)
C14 0.035(2) 0.030(2) 0.037(2) -0.0014(16) 0.0100(16) -0.0106(17)
C15 0.0301(19) 0.034(2) 0.0245(16) -0.0025(15) 0.0024(13) -0.0057(16)
C16 0.0190(16) 0.030(2) 0.0280(16) -0.0019(14) -0.0010(12) -0.0055(14)
loop_
_atom_type_symbol
_atom_type_description
_atom_type_scat_dispersion_real
_atom_type_scat_dispersion_imag
_atom_type_scat_source
C C 0.0033 0.0016 'International Tables Vol C Tables 4.2.6.8 and 6.1.1.4'
H H 0.0000 0.0000 'International Tables Vol C Tables 4.2.6.8 and 6.1.1.4'
N N 0.0061 0.0033 'International Tables Vol C Tables 4.2.6.8 and 6.1.1.4'
O O 0.0106 0.0060 'International Tables Vol C Tables 4.2.6.8 and 6.1.1.4'
W W -0.8490 6.8722 'International Tables Vol C Tables 4.2.6.8 and 6.1.1.4'
loop_
_exptl_crystal_face_index_h
_exptl_crystal_face_index_k
_exptl_crystal_face_index_l
_exptl_crystal_face_perp_dist
1.00 1.00 0.00 0.1250
-1.00 -1.00 0.00 0.1120
0.00 0.00 1.00 0.0660
0.00 0.00 -1.00 0.0580
0.00 2.00 1.00 0.1200
-1.00 -1.00 2.00 0.0980
1.00 1.00 -2.00 0.1140
0.00 -1.00 0.00 0.1210
2.00 1.00 -2.00 0.1400
0.00 -1.00 -2.00 0.1090
-1.00 0.00 -1.00 0.1530
1.00 0.00 0.00 0.1600
-1.00 -1.00 -2.00 0.1270
1.00 -1.00 -3.00 0.1250
loop_
_geom_angle_atom_site_label_1
_geom_angle_atom_site_label_2
_geom_angle_atom_site_label_3
_geom_angle
C1 W1 C3 90.87(17)
C1 W1 C5 93.11(17)
C3 W1 C5 176.01(14)
C1 W1 C2 86.20(19)
C3 W1 C2 88.68(15)
C5 W1 C2 91.81(16)
C1 W1 C4 88.04(19)
C3 W1 C4 92.15(15)
C5 W1 C4 87.76(16)
C2 W1 C4 174.19(15)
C1 W1 C6 177.81(14)
C3 W1 C6 89.17(15)
C5 W1 C6 86.85(15)
C2 W1 C6 95.99(16)
C4 W1 C6 89.78(16)
O1 C1 W1 179.4(4)
O2 C2 W1 175.9(4)
O3 C3 W1 179.1(4)
O4 C4 W1 176.2(4)
O5 C5 W1 178.0(3)
N1 C6 C7 111.9(3)
N1 C6 W1 127.3(3)
C7 C6 W1 120.8(3)
C6 N1 C11 127.8(3)
C6 N1 H1 120(3)
C11 N1 H1 112(3)
C8 C7 O6 109.0(3)
C8 C7 C6 134.2(3)
O6 C7 C6 116.6(3)
C7 C8 C9 107.3(4)
C7 C8 H8 126.4
C9 C8 H8 126.4
C10 C9 C8 106.4(3)
C10 C9 H9 126.8
C8 C9 H9 126.8
C9 C10 O6 111.2(3)
C9 C10 H10 124.4
O6 C10 H10 124.4
C10 O6 C7 106.1(3)
N1 C11 C12 109.2(3)
N1 C11 C16 110.5(3)
C12 C11 C16 111.3(3)
N1 C11 H11 108.6
C12 C11 H11 108.6
C16 C11 H11 108.6
C11 C12 C13 110.3(3)
C11 C12 H12A 109.6
C13 C12 H12A 109.6
C11 C12 H12B 109.6
C13 C12 H12B 109.6
H12A C12 H12B 108.1
C14 C13 C12 110.9(3)
C14 C13 H13A 109.5
C12 C13 H13A 109.5
C14 C13 H13B 109.5
C12 C13 H13B 109.5
H13A C13 H13B 108.0
C15 C14 C13 111.2(4)
C15 C14 H14A 109.4
C13 C14 H14A 109.4
C15 C14 H14B 109.4
C13 C14 H14B 109.4
H14A C14 H14B 108.0
C14 C15 C16 111.2(3)
C14 C15 H15A 109.4
C16 C15 H15A 109.4
C14 C15 H15B 109.4
C16 C15 H15B 109.4
H15A C15 H15B 108.0
C11 C16 C15 109.8(3)
C11 C16 H16A 109.7
C15 C16 H16A 109.7
C11 C16 H16B 109.7
C15 C16 H16B 109.7
H16A C16 H16B 108.2
loop_
_geom_bond_atom_site_label_1
_geom_bond_atom_site_label_2
_geom_bond_distance
W1 C1 2.000(4)
W1 C3 2.031(4)
W1 C5 2.035(4)
W1 C2 2.045(4)
W1 C4 2.051(5)
W1 C6 2.251(4)
C1 O1 1.154(6)
C2 O2 1.153(5)
C3 O3 1.144(5)
C4 O4 1.129(6)
C5 O5 1.153(5)
C6 N1 1.320(5)
C6 C7 1.466(5)
N1 C11 1.457(4)
N1 H1 0.83(5)
C7 C8 1.350(5)
C7 O6 1.392(4)
C8 C9 1.424(5)
C8 H8 0.9300
C9 C10 1.336(6)
C9 H9 0.9300
C10 O6 1.362(4)
C10 H10 0.9300
C11 C12 1.523(6)
C11 C16 1.525(4)
C11 H11 0.9800
C12 C13 1.537(5)
C12 H12A 0.9700
C12 H12B 0.9700
C13 C14 1.515(6)
C13 H13A 0.9700
C13 H13B 0.9700
C14 C15 1.499(6)
C14 H14A 0.9700
C14 H14B 0.9700
C15 C16 1.535(5)
C15 H15A 0.9700
C15 H15B 0.9700
C16 H16A 0.9700
C16 H16B 0.9700
loop_
_geom_hbond_atom_site_label_D
_geom_hbond_atom_site_label_H
_geom_hbond_atom_site_label_A
_geom_hbond_distance_DH
_geom_hbond_distance_HA
_geom_hbond_distance_DA
_geom_hbond_angle_DHA
_geom_hbond_site_symmetry_A
N1 H1 O6 0.83(5) 2.17(4) 2.585(4) 111(4) .
N1 H1 O1 0.83(5) 2.35(5) 3.141(5) 158(4) 1_465
loop_
_geom_torsion_atom_site_label_1
_geom_torsion_atom_site_label_2
_geom_torsion_atom_site_label_3
_geom_torsion_atom_site_label_4
_geom_torsion
C7 C6 N1 C11 176.9(3)
W1 C6 N1 C11 -4.9(5)
N1 C6 C7 C8 -168.8(4)
W1 C6 C7 C8 12.9(6)
N1 C6 C7 O6 6.1(4)
W1 C6 C7 O6 -172.2(2)
O6 C7 C8 C9 0.1(4)
C6 C7 C8 C9 175.3(4)
C7 C8 C9 C10 0.2(5)
C8 C9 C10 O6 -0.5(5)
C9 C10 O6 C7 0.5(5)
C8 C7 O6 C10 -0.4(4)
C6 C7 O6 C10 -176.6(3)
C6 N1 C11 C12 -111.8(4)
C6 N1 C11 C16 125.5(4)
N1 C11 C12 C13 -178.5(3)
C16 C11 C12 C13 -56.2(4)
C11 C12 C13 C14 55.7(5)
C12 C13 C14 C15 -56.7(5)
C13 C14 C15 C16 57.4(4)
N1 C11 C16 C15 178.1(3)
C12 C11 C16 C15 56.5(4)
C14 C15 C16 C11 -57.0(4)
