#------------------------------------------------------------------------------
#$Date: 2019-11-26 17:47:58 +0200 (Tue, 26 Nov 2019) $
#$Revision: 243722 $
#$URL: file:///home/coder/svn-repositories/cod/cif/4/08/96/4089689.cif $
#------------------------------------------------------------------------------
#
# This file is available in the Crystallography Open Database (COD),
# http://www.crystallography.net/
#
# All data on this site have been placed in the public domain by the
# contributors.
#
data_4089689
loop_
_publ_author_name
'Cai, Yuanjing'
'Samedov, Kerim'
'Dolinar, Brian S.'
'Song, Zhegang'
'Tang, Ben Zhong'
'Zhang, Chaocan'
'West, Robert'
_publ_section_title
;
 Synthesis and High Solid-State Fluorescence of Cyclic Silole Derivatives
;
_journal_issue                   1
_journal_name_full               Organometallics
_journal_page_first              78
_journal_paper_doi               10.1021/om500884b
_journal_volume                  34
_journal_year                    2014
_chemical_formula_moiety         'C38 H32 O4 Si4'
_chemical_formula_sum            'C38 H32 O4 Si4'
_chemical_formula_weight         664.99
_space_group_crystal_system      triclinic
_space_group_IT_number           2
_space_group_name_Hall           '-P 1'
_space_group_name_H-M_alt        'P -1'
_atom_sites_solution_hydrogens   geom
_atom_sites_solution_primary     direct
_cell_angle_alpha                89.76(2)
_cell_angle_beta                 81.67(3)
_cell_angle_gamma                77.835(14)
_cell_formula_units_Z            1
_cell_length_a                   8.677(3)
_cell_length_b                   8.727(4)
_cell_length_c                   10.940(6)
_cell_measurement_reflns_used    2379
_cell_measurement_temperature    100.0
_cell_measurement_theta_max      25.71
_cell_measurement_theta_min      2.39
_cell_volume                     801.0(6)
_computing_cell_refinement       'SAINT+ Ver. 8.30C (Bruker-AXS, 2013)'
_computing_data_collection       'APEX2 Ver. 2013.2-0 (Bruker-AXS, 2013)'
_computing_data_reduction        'SAINT+ Ver. 8.30C (Bruker-AXS, 2013)'
_computing_molecular_graphics
;
O. V. Dolomanov, L. J. Bourhis, R. J. Gildea, J. A. K. Howard and H. Puschmann,
OLEX2: a complete structure solution, refinement and analysis program.
J. Appl. Cryst. (2009). 42, 339-341.
;
_computing_publication_material
;
O. V. Dolomanov, L. J. Bourhis, R. J. Gildea, J. A. K. Howard and H. Puschmann,
OLEX2: a complete structure solution, refinement and analysis program.
J. Appl. Cryst. (2009). 42, 339-341.
;
_computing_structure_refinement
;
SHELXL, G.M. Sheldrick, Acta Cryst.
(2008). A64, 112-122
;
_computing_structure_solution
;
SHELXS, G.M. Sheldrick, Acta Cryst.
(2008). A64, 112-122
;
_diffrn_ambient_temperature      100.0
_diffrn_detector_area_resol_mean 7.9
_diffrn_detector_type            'CCD area detector'
_diffrn_measured_fraction_theta_full 1.000
_diffrn_measured_fraction_theta_max 1.000
_diffrn_measurement_device       'three-circle diffractometer'
_diffrn_measurement_device_type  'Bruker APEX-II CCD'
_diffrn_measurement_method       '\f and \w scans'
_diffrn_radiation_collimation    'focusing mirrors'
_diffrn_radiation_monochromator  graphite
_diffrn_radiation_probe          x-ray
_diffrn_radiation_type           MoK\a
_diffrn_radiation_wavelength     0.71073
_diffrn_radiation_xray_symbol    K-L~3~
_diffrn_reflns_av_R_equivalents  0.0305
_diffrn_reflns_av_unetI/netI     0.0399
_diffrn_reflns_Laue_measured_fraction_full 1.000
_diffrn_reflns_Laue_measured_fraction_max 1.000
_diffrn_reflns_limit_h_max       10
_diffrn_reflns_limit_h_min       -10
_diffrn_reflns_limit_k_max       10
_diffrn_reflns_limit_k_min       -10
_diffrn_reflns_limit_l_max       13
_diffrn_reflns_limit_l_min       -13
_diffrn_reflns_number            8116
_diffrn_reflns_point_group_measured_fraction_full 1.000
_diffrn_reflns_point_group_measured_fraction_max 1.000
_diffrn_reflns_theta_full        25.000
_diffrn_reflns_theta_max         25.944
_diffrn_reflns_theta_min         1.882
_diffrn_source                   'microfocus sealed X-ray tube'
_diffrn_source_type              'Incoatec I\ms'
_diffrn_standards_number         0
_exptl_absorpt_coefficient_mu    0.228
_exptl_absorpt_correction_T_max  1.0000
_exptl_absorpt_correction_T_min  0.8801
_exptl_absorpt_correction_type   analytical
_exptl_absorpt_process_details
;
SADABS-2012/1 (Bruker,2012) was used for absorption correction.
wR2(int) was 0.0724 before and 0.0365 after correction.
The Ratio of minimum to maximum transmission is 0.8801.
The \l/2 correction factor is Not present.
;
_exptl_crystal_colour            colourless
_exptl_crystal_colour_primary    colourless
_exptl_crystal_density_diffrn    1.379
_exptl_crystal_density_method    'not measured'
_exptl_crystal_description       block
_exptl_crystal_F_000             348
_exptl_crystal_size_max          0.17
_exptl_crystal_size_mid          0.108
_exptl_crystal_size_min          0.078
_refine_diff_density_max         0.546
_refine_diff_density_min         -0.335
_refine_diff_density_rms         0.059
_refine_ls_extinction_method     none
_refine_ls_goodness_of_fit_ref   1.043
_refine_ls_hydrogen_treatment    constr
_refine_ls_matrix_type           full
_refine_ls_number_parameters     209
_refine_ls_number_reflns         3130
_refine_ls_number_restraints     0
_refine_ls_restrained_S_all      1.043
_refine_ls_R_factor_all          0.0570
_refine_ls_R_factor_gt           0.0402
_refine_ls_shift/su_max          0.000
_refine_ls_shift/su_mean         0.000
_refine_ls_structure_factor_coef Fsqd
_refine_ls_weighting_details
'w=1/[\s^2^(Fo^2^)+(0.0439P)^2^+0.6340P] where P=(Fo^2^+2Fc^2^)/3'
_refine_ls_weighting_scheme      calc
_refine_ls_wR_factor_gt          0.0946
_refine_ls_wR_factor_ref         0.1026
_reflns_Friedel_coverage         0.000
_reflns_number_gt                2493
_reflns_number_total             3130
_reflns_threshold_expression     'I > 2\s(I)'
_iucr_refine_instructions_details
;
TITL 1a in P-1
CELL 0.71073 8.6766 8.7267 10.9396 89.763 81.667 77.835
ZERR 1 0.0031 0.0037 0.0055 0.022 0.031 0.014
LATT 1
 
SFAC C H O Si
UNIT 38 32 4 4
 
L.S. 12
PLAN  5
SIZE 0.078 0.108 0.17
TEMP -173.15
REM ============ Updated instructions ============
BOND $H
CONF
HTAB
LIST 4
MORE -1
REM ================================================
fmap 2
acta 50
REM <HKL>C:/X-ray/West/1a/1a.hkl</HKL>
 
WGHT    0.043900    0.634000
FVAR       0.97913
SI1   4    0.461606   -0.094833    0.816721    11.00000    0.01892    0.01652 =
         0.01337   -0.00201   -0.00563   -0.00363
SI2   4    0.417384    0.236605    0.939939    11.00000    0.01938    0.01496 =
         0.01386   -0.00137   -0.00610   -0.00246
O1    3    0.388913    0.083199    0.868574    11.00000    0.02191    0.01631 =
         0.01731   -0.00196   -0.00650   -0.00392
O2    3    0.440000    0.189377    1.081304    11.00000    0.02284    0.01969 =
         0.01511   -0.00162   -0.00580   -0.00256
C1    1    0.584722   -0.120724    0.661445    11.00000    0.02258    0.01823 =
         0.01282   -0.00036   -0.00554    0.00111
C2    1    0.728097   -0.081282    0.614284    11.00000    0.02216    0.02648 =
         0.02025   -0.00155   -0.00810    0.00097
AFIX  43
H2    2    0.780388   -0.028559    0.666025    11.00000   -1.20000
AFIX   0
C3    1    0.796267   -0.118248    0.491663    11.00000    0.02006    0.03588 =
         0.02226   -0.00010   -0.00372    0.00479
AFIX  43
H3    2    0.893908   -0.089994    0.459652    11.00000   -1.20000
AFIX   0
C4    1    0.720373   -0.196411    0.417139    11.00000    0.02622    0.03947 =
         0.01388   -0.00282   -0.00406    0.00943
AFIX  43
H4    2    0.766941   -0.222079    0.333741    11.00000   -1.20000
AFIX   0
C5    1    0.577840   -0.237804    0.462027    11.00000    0.03217    0.02948 =
         0.01807   -0.00522   -0.01253    0.00401
AFIX  43
H5    2    0.527430   -0.291870    0.409764    11.00000   -1.20000
AFIX   0
C6    1    0.508566   -0.200210    0.583585    11.00000    0.02339    0.01973 =
         0.01777   -0.00131   -0.00844    0.00300
C7    1    0.353324   -0.233356    0.641024    11.00000    0.02677    0.01539 =
         0.02108   -0.00098   -0.01118   -0.00155
C8    1    0.255403   -0.303050    0.578704    11.00000    0.03598    0.02439 =
         0.02173   -0.00128   -0.01455   -0.00650
AFIX  43
H8    2    0.289344   -0.338277    0.495169    11.00000   -1.20000
AFIX   0
C9    1    0.109368   -0.320717    0.638504    11.00000    0.03994    0.02549 =
         0.03150    0.00453   -0.02228   -0.01341
AFIX  43
H9    2    0.043048   -0.367914    0.595463    11.00000   -1.20000
AFIX   0
C10   1    0.057791   -0.270748    0.760345    11.00000    0.02795    0.02891 =
         0.03134    0.00884   -0.01252   -0.01188
AFIX  43
H10   2   -0.043810   -0.282140    0.800233    11.00000   -1.20000
AFIX   0
C11   1    0.156245   -0.203498    0.824120    11.00000    0.02720    0.02187 =
         0.02206    0.00315   -0.00920   -0.00716
AFIX  43
H11   2    0.121876   -0.170190    0.908037    11.00000   -1.20000
AFIX   0
C12   1    0.304103   -0.184935    0.765760    11.00000    0.02484    0.01322 =
         0.01875    0.00126   -0.01019   -0.00311
C13   1    0.603418    0.289030    0.861539    11.00000    0.02233    0.01891 =
         0.01435   -0.00430   -0.00669   -0.00492
C14   1    0.601881    0.428305    0.798442    11.00000    0.02346    0.01940 =
         0.01927   -0.00218   -0.00828   -0.00074
AFIX  43
H14   2    0.503300    0.499561    0.795642    11.00000   -1.20000
AFIX   0
C15   1    0.742390    0.464693    0.739476    11.00000    0.03071    0.01782 =
         0.01884   -0.00069   -0.00459   -0.00604
AFIX  43
H15   2    0.739304    0.560045    0.696761    11.00000   -1.20000
AFIX   0
C16   1    0.885923    0.362246    0.743147    11.00000    0.02323    0.02501 =
         0.02171   -0.00376    0.00028   -0.00927
AFIX  43
H16   2    0.981796    0.387456    0.703172    11.00000   -1.20000
AFIX   0
C17   1    0.891321    0.222653    0.804786    11.00000    0.02293    0.02299 =
         0.02495   -0.00279   -0.00398   -0.00141
AFIX  43
H17   2    0.990373    0.151873    0.806869    11.00000   -1.20000
AFIX   0
C18   1    0.751230    0.187204    0.863283    11.00000    0.02657    0.01724 =
         0.01981    0.00143   -0.00619   -0.00384
AFIX  43
H18   2    0.755398    0.091504    0.905648    11.00000   -1.20000
AFIX   0
C19   1    0.239885    0.394755    0.939275    11.00000    0.02434    0.02144 =
         0.02229   -0.00270   -0.00750   -0.00145
AFIX 137
H19A  2    0.231354    0.427244    0.854229    11.00000   -1.50000
H19B  2    0.249218    0.484338    0.989312    11.00000   -1.50000
H19C  2    0.144524    0.356936    0.973932    11.00000   -1.50000
AFIX   0
HKLF 4
 
REM  1a in P-1
REM R1 =  0.0402 for    2493 Fo > 4sig(Fo)  and  0.0570 for all    3130 data
REM    209 parameters refined using      0 restraints
 
END  
     
WGHT      0.0443      0.6263 

REM No hydrogen bonds found for HTAB generation

REM Highest difference peak  0.546,  deepest hole -0.335,  1-sigma level  0.059
Q1    1   0.5107  0.2667  0.8940  11.00000  0.05    0.55
Q2    1   0.3299  0.3263  0.9408  11.00000  0.05    0.38
Q3    1   0.3683 -0.1342  0.8054  11.00000  0.05    0.33
Q4    1   0.5375 -0.1217  0.7256  11.00000  0.05    0.31
Q5    1   0.6666  0.2402  0.8553  11.00000  0.05    0.28

REM The information below was added by Olex2.
REM
REM R1 = 0.0402 for 2493 Fo > 4sig(Fo) and n/a for all 8116 data
REM n/a parameters refined using n/a restraints
REM Highest difference peak n/a, deepest hole n/a
REM Mean Shift n/a, Max Shift n/a.

REM +++ Tabular Listing of Refinement Information +++
REM R1_all = n/a
REM R1_gt = 0.0402
REM wR_ref = 0.1026
REM GOOF = 1.043
REM Shift_max = n/a
REM Shift_mean = n/a
REM Reflections_all = 8116
REM Reflections_gt = 2493
REM Parameters = n/a
REM Hole = n/a
REM Peak = n/a
REM Flack = n/a

;
_cod_data_source_file            om500884b_si_002.cif
_cod_data_source_block           1a
_cod_original_cell_volume        800.9(6)
_cod_database_code               4089689
_olex2_refinement_description
;
1. Fixed Uiso
 At 1.2 times of:
  H3 of C3, H2 of C2, H4 of C4, H5 of C5, H18 of C18, H17 of C17, H16 of C16,
  H15 of C15, H14 of C14, H8 of C8, H9 of C9, H10 of C10, H11 of C11
 At 1.5 times of:
  {H19A,H19B,H19C} of C19
2.a Aromatic/amide H refined with riding coordinates:
 C2(H2), C3(H3), C4(H4), C5(H5), C8(H8), C9(H9), C10(H10), C11(H11), C14(H14),
 C15(H15), C16(H16), C17(H17), C18(H18)
2.b Idealised Me refined as rotating group:
 C19(H19A,H19B,H19C)
;
_shelx_estimated_absorpt_t_max   0.982
_shelx_estimated_absorpt_t_min   0.962
_shelx_space_group_comment
;
The symmetry employed for this shelxl refinement is uniquely defined
by the following loop, which should always be used as a source of
symmetry information in preference to the above space-group names.
They are only intended as comments.
;
_shelxl_version_number           2013-3
loop_
_space_group_symop_operation_xyz
'x, y, z'
'-x, -y, -z'
loop_
_atom_site_label
_atom_site_type_symbol
_atom_site_fract_x
_atom_site_fract_y
_atom_site_fract_z
_atom_site_U_iso_or_equiv
_atom_site_adp_type
_atom_site_occupancy
_atom_site_site_symmetry_order
_atom_site_calc_flag
_atom_site_refinement_flags_posn
_atom_site_refinement_flags_adp
Si1 Si 0.46161(7) -0.09483(7) 0.81672(5) 0.01595(16) Uani 1 1 d . .
Si2 Si 0.41738(7) 0.23660(7) 0.93994(5) 0.01587(16) Uani 1 1 d . .
O1 O 0.38891(18) 0.08320(17) 0.86857(14) 0.0182(3) Uani 1 1 d . .
O2 O 0.44000(18) 0.18938(18) 1.08130(13) 0.0192(4) Uani 1 1 d . .
C1 C 0.5847(3) -0.1207(3) 0.6614(2) 0.0184(5) Uani 1 1 d . .
C2 C 0.7281(3) -0.0813(3) 0.6143(2) 0.0234(5) Uani 1 1 d . .
H2 H 0.7804 -0.0286 0.6660 0.028 Uiso 1 1 calc R U
C3 C 0.7963(3) -0.1182(3) 0.4917(2) 0.0276(6) Uani 1 1 d . .
H3 H 0.8939 -0.0900 0.4597 0.033 Uiso 1 1 calc R U
C4 C 0.7204(3) -0.1964(3) 0.4171(2) 0.0288(6) Uani 1 1 d . .
H4 H 0.7669 -0.2221 0.3337 0.035 Uiso 1 1 calc R U
C5 C 0.5778(3) -0.2378(3) 0.4620(2) 0.0272(6) Uani 1 1 d . .
H5 H 0.5274 -0.2919 0.4098 0.033 Uiso 1 1 calc R U
C6 C 0.5086(3) -0.2002(3) 0.5836(2) 0.0209(5) Uani 1 1 d . .
C7 C 0.3533(3) -0.2334(3) 0.6410(2) 0.0207(5) Uani 1 1 d . .
C8 C 0.2554(3) -0.3031(3) 0.5787(2) 0.0263(6) Uani 1 1 d . .
H8 H 0.2893 -0.3383 0.4952 0.032 Uiso 1 1 calc R U
C9 C 0.1094(3) -0.3207(3) 0.6385(2) 0.0296(6) Uani 1 1 d . .
H9 H 0.0430 -0.3679 0.5955 0.036 Uiso 1 1 calc R U
C10 C 0.0578(3) -0.2707(3) 0.7603(2) 0.0277(6) Uani 1 1 d . .
H10 H -0.0438 -0.2821 0.8002 0.033 Uiso 1 1 calc R U
C11 C 0.1562(3) -0.2035(3) 0.8241(2) 0.0229(5) Uani 1 1 d . .
H11 H 0.1219 -0.1702 0.9080 0.027 Uiso 1 1 calc R U
C12 C 0.3041(3) -0.1849(3) 0.7658(2) 0.0184(5) Uani 1 1 d . .
C13 C 0.6034(3) 0.2890(3) 0.8615(2) 0.0180(5) Uani 1 1 d . .
C14 C 0.6019(3) 0.4283(3) 0.7984(2) 0.0207(5) Uani 1 1 d . .
H14 H 0.5033 0.4996 0.7956 0.025 Uiso 1 1 calc R U
C15 C 0.7424(3) 0.4647(3) 0.7395(2) 0.0222(5) Uani 1 1 d . .
H15 H 0.7393 0.5600 0.6968 0.027 Uiso 1 1 calc R U
C16 C 0.8859(3) 0.3622(3) 0.7431(2) 0.0231(5) Uani 1 1 d . .
H16 H 0.9818 0.3875 0.7032 0.028 Uiso 1 1 calc R U
C17 C 0.8913(3) 0.2227(3) 0.8048(2) 0.0241(5) Uani 1 1 d . .
H17 H 0.9904 0.1519 0.8069 0.029 Uiso 1 1 calc R U
C18 C 0.7512(3) 0.1872(3) 0.8633(2) 0.0210(5) Uani 1 1 d . .
H18 H 0.7554 0.0915 0.9056 0.025 Uiso 1 1 calc R U
C19 C 0.2399(3) 0.3948(3) 0.9393(2) 0.0228(5) Uani 1 1 d . .
H19A H 0.2314 0.4272 0.8542 0.034 Uiso 1 1 calc R U
H19B H 0.2492 0.4843 0.9893 0.034 Uiso 1 1 calc R U
H19C H 0.1445 0.3569 0.9739 0.034 Uiso 1 1 calc R U
loop_
_atom_site_aniso_label
_atom_site_aniso_U_11
_atom_site_aniso_U_22
_atom_site_aniso_U_33
_atom_site_aniso_U_23
_atom_site_aniso_U_13
_atom_site_aniso_U_12
Si1 0.0189(3) 0.0165(3) 0.0134(3) -0.0020(2) -0.0056(2) -0.0036(2)
Si2 0.0194(3) 0.0150(3) 0.0139(3) -0.0014(2) -0.0061(2) -0.0025(2)
O1 0.0219(8) 0.0163(8) 0.0173(8) -0.0020(7) -0.0065(6) -0.0039(6)
O2 0.0228(9) 0.0197(9) 0.0151(8) -0.0016(7) -0.0058(6) -0.0026(7)
C1 0.0226(12) 0.0182(12) 0.0128(11) -0.0004(9) -0.0055(9) 0.0011(9)
C2 0.0222(12) 0.0265(13) 0.0202(12) -0.0015(10) -0.0081(10) 0.0010(10)
C3 0.0201(12) 0.0359(15) 0.0223(13) -0.0001(11) -0.0037(10) 0.0048(11)
C4 0.0262(14) 0.0395(16) 0.0139(12) -0.0028(11) -0.0041(10) 0.0094(11)
C5 0.0322(14) 0.0295(14) 0.0181(12) -0.0052(11) -0.0125(10) 0.0040(11)
C6 0.0234(12) 0.0197(12) 0.0178(11) -0.0013(10) -0.0084(9) 0.0030(10)
C7 0.0268(13) 0.0154(12) 0.0211(12) -0.0010(10) -0.0112(10) -0.0016(9)
C8 0.0360(15) 0.0244(13) 0.0217(12) -0.0013(11) -0.0146(11) -0.0065(11)
C9 0.0399(16) 0.0255(14) 0.0315(14) 0.0045(11) -0.0223(12) -0.0134(12)
C10 0.0279(14) 0.0289(14) 0.0313(14) 0.0088(11) -0.0125(11) -0.0119(11)
C11 0.0272(13) 0.0219(13) 0.0221(12) 0.0032(10) -0.0092(10) -0.0072(10)
C12 0.0248(12) 0.0132(11) 0.0187(11) 0.0013(9) -0.0102(9) -0.0031(9)
C13 0.0223(12) 0.0189(12) 0.0144(11) -0.0043(9) -0.0067(9) -0.0049(9)
C14 0.0235(12) 0.0194(12) 0.0193(12) -0.0022(10) -0.0083(9) -0.0007(9)
C15 0.0307(14) 0.0178(12) 0.0188(12) -0.0007(10) -0.0046(10) -0.0060(10)
C16 0.0232(13) 0.0250(13) 0.0217(12) -0.0038(10) 0.0003(10) -0.0093(10)
C17 0.0229(13) 0.0230(13) 0.0250(13) -0.0028(10) -0.0040(10) -0.0014(10)
C18 0.0266(13) 0.0172(12) 0.0198(12) 0.0014(10) -0.0062(10) -0.0038(10)
C19 0.0243(13) 0.0214(13) 0.0223(12) -0.0027(10) -0.0075(10) -0.0014(10)
loop_
_atom_type_symbol
_atom_type_description
_atom_type_scat_dispersion_real
_atom_type_scat_dispersion_imag
_atom_type_scat_source
C C 0.0033 0.0016 'International Tables Vol C Tables 4.2.6.8 and 6.1.1.4'
H H 0.0000 0.0000 'International Tables Vol C Tables 4.2.6.8 and 6.1.1.4'
O O 0.0106 0.0060 'International Tables Vol C Tables 4.2.6.8 and 6.1.1.4'
Si Si 0.0817 0.0704 'International Tables Vol C Tables 4.2.6.8 and 6.1.1.4'
loop_
_geom_angle_atom_site_label_1
_geom_angle_atom_site_label_2
_geom_angle_atom_site_label_3
_geom_angle
_geom_angle_site_symmetry_1
_geom_angle_site_symmetry_3
O1 Si1 O2 108.32(9) . 2_657
O1 Si1 C1 117.22(10) . .
O1 Si1 C12 111.07(10) . .
O2 Si1 C1 110.52(10) 2_657 .
O2 Si1 C12 116.24(10) 2_657 .
C1 Si1 C12 93.16(11) . .
O1 Si2 C13 108.62(9) . .
O1 Si2 C19 108.01(10) . .
O2 Si2 O1 108.03(9) . .
O2 Si2 C13 108.85(9) . .
O2 Si2 C19 110.08(10) . .
C19 Si2 C13 113.11(11) . .
Si1 O1 Si2 147.34(11) . .
Si1 O2 Si2 152.56(11) 2_657 .
C2 C1 Si1 132.98(17) . .
C2 C1 C6 119.1(2) . .
C6 C1 Si1 107.92(17) . .
C1 C2 H2 119.7 . .
C1 C2 C3 120.7(2) . .
C3 C2 H2 119.7 . .
C2 C3 H3 120.3 . .
C4 C3 C2 119.4(2) . .
C4 C3 H3 120.3 . .
C3 C4 H4 119.5 . .
C5 C4 C3 121.1(2) . .
C5 C4 H4 119.5 . .
C4 C5 H5 120.1 . .
C4 C5 C6 119.9(2) . .
C6 C5 H5 120.1 . .
C1 C6 C7 115.3(2) . .
C5 C6 C1 119.9(2) . .
C5 C6 C7 124.8(2) . .
C8 C7 C6 124.4(2) . .
C8 C7 C12 119.8(2) . .
C12 C7 C6 115.79(19) . .
C7 C8 H8 120.1 . .
C9 C8 C7 119.9(2) . .
C9 C8 H8 120.1 . .
C8 C9 H9 119.5 . .
C8 C9 C10 121.0(2) . .
C10 C9 H9 119.5 . .
C9 C10 H10 120.3 . .
C9 C10 C11 119.5(2) . .
C11 C10 H10 120.3 . .
C10 C11 H11 119.8 . .
C12 C11 C10 120.5(2) . .
C12 C11 H11 119.8 . .
C7 C12 Si1 107.78(17) . .
C11 C12 Si1 132.82(18) . .
C11 C12 C7 119.3(2) . .
C14 C13 Si2 122.00(17) . .
C14 C13 C18 117.6(2) . .
C18 C13 Si2 120.38(18) . .
C13 C14 H14 119.5 . .
C15 C14 C13 121.1(2) . .
C15 C14 H14 119.5 . .
C14 C15 H15 120.1 . .
C16 C15 C14 119.9(2) . .
C16 C15 H15 120.1 . .
C15 C16 H16 119.8 . .
C15 C16 C17 120.4(2) . .
C17 C16 H16 119.8 . .
C16 C17 H17 120.3 . .
C18 C17 C16 119.4(2) . .
C18 C17 H17 120.3 . .
C13 C18 H18 119.2 . .
C17 C18 C13 121.6(2) . .
C17 C18 H18 119.2 . .
Si2 C19 H19A 109.5 . .
Si2 C19 H19B 109.5 . .
Si2 C19 H19C 109.5 . .
H19A C19 H19B 109.5 . .
H19A C19 H19C 109.5 . .
H19B C19 H19C 109.5 . .
loop_
_geom_bond_atom_site_label_1
_geom_bond_atom_site_label_2
_geom_bond_distance
_geom_bond_site_symmetry_2
Si1 O1 1.6199(17) .
Si1 O2 1.6204(17) 2_657
Si1 C1 1.858(2) .
Si1 C12 1.864(2) .
Si2 O1 1.6330(16) .
Si2 O2 1.6274(17) .
Si2 C13 1.859(2) .
Si2 C19 1.840(2) .
O2 Si1 1.6204(17) 2_657
C1 C2 1.388(3) .
C1 C6 1.416(3) .
C2 H2 0.9500 .
C2 C3 1.395(3) .
C3 H3 0.9500 .
C3 C4 1.383(4) .
C4 H4 0.9500 .
C4 C5 1.383(4) .
C5 H5 0.9500 .
C5 C6 1.388(3) .
C6 C7 1.487(3) .
C7 C8 1.395(3) .
C7 C12 1.408(3) .
C8 H8 0.9500 .
C8 C9 1.378(4) .
C9 H9 0.9500 .
C9 C10 1.384(4) .
C10 H10 0.9500 .
C10 C11 1.396(3) .
C11 H11 0.9500 .
C11 C12 1.389(3) .
C13 C14 1.394(3) .
C13 C18 1.401(3) .
C14 H14 0.9500 .
C14 C15 1.392(3) .
C15 H15 0.9500 .
C15 C16 1.377(3) .
C16 H16 0.9500 .
C16 C17 1.385(3) .
C17 H17 0.9500 .
C17 C18 1.383(3) .
C18 H18 0.9500 .
C19 H19A 0.9800 .
C19 H19B 0.9800 .
C19 H19C 0.9800 .
loop_
_geom_torsion_atom_site_label_1
_geom_torsion_atom_site_label_2
_geom_torsion_atom_site_label_3
_geom_torsion_atom_site_label_4
_geom_torsion
_geom_torsion_site_symmetry_1
_geom_torsion_site_symmetry_4
Si1 C1 C2 C3 178.81(19) . .
Si1 C1 C6 C5 -178.61(18) . .
Si1 C1 C6 C7 3.0(2) . .
Si2 C13 C14 C15 -179.45(17) . .
Si2 C13 C18 C17 179.42(17) . .
O1 Si1 C1 C2 62.9(3) . .
O1 Si1 C1 C6 -118.60(16) . .
O1 Si1 C12 C7 122.99(16) . .
O1 Si1 C12 C11 -53.7(2) . .
O1 Si2 O2 Si1 69.2(2) . 2_657
O1 Si2 C13 C14 113.63(18) . .
O1 Si2 C13 C18 -65.73(19) . .
O2 Si1 O1 Si2 41.5(2) 2_657 .
O2 Si1 C1 C2 -61.9(2) 2_657 .
O2 Si1 C1 C6 116.65(16) 2_657 .
O2 Si1 C12 C7 -112.58(16) 2_657 .
O2 Si1 C12 C11 70.7(2) 2_657 .
O2 Si2 O1 Si1 -65.0(2) . .
O2 Si2 C13 C14 -128.97(17) . .
O2 Si2 C13 C18 51.7(2) . .
C1 Si1 O1 Si2 -84.3(2) . .
C1 Si1 C12 C7 2.17(17) . .
C1 Si1 C12 C11 -174.6(2) . .
C1 C2 C3 C4 -0.6(4) . .
C1 C6 C7 C8 176.6(2) . .
C1 C6 C7 C12 -1.4(3) . .
C2 C1 C6 C5 0.2(3) . .
C2 C1 C6 C7 -178.3(2) . .
C2 C3 C4 C5 0.3(4) . .
C3 C4 C5 C6 0.3(4) . .
C4 C5 C6 C1 -0.5(4) . .
C4 C5 C6 C7 177.8(2) . .
C5 C6 C7 C8 -1.8(4) . .
C5 C6 C7 C12 -179.8(2) . .
C6 C1 C2 C3 0.4(3) . .
C6 C7 C8 C9 -176.3(2) . .
C6 C7 C12 Si1 -0.9(2) . .
C6 C7 C12 C11 176.3(2) . .
C7 C8 C9 C10 -0.2(4) . .
C8 C7 C12 Si1 -178.99(18) . .
C8 C7 C12 C11 -1.7(3) . .
C8 C9 C10 C11 -0.9(4) . .
C9 C10 C11 C12 0.8(4) . .
C10 C11 C12 Si1 177.00(19) . .
C10 C11 C12 C7 0.6(3) . .
C12 Si1 O1 Si2 170.30(18) . .
C12 Si1 C1 C2 178.6(2) . .
C12 Si1 C1 C6 -2.92(17) . .
C12 C7 C8 C9 1.6(4) . .
C13 Si2 O1 Si1 52.9(2) . .
C13 Si2 O2 Si1 -48.6(3) . 2_657
C13 C14 C15 C16 -0.1(3) . .
C14 C13 C18 C17 0.0(3) . .
C14 C15 C16 C17 0.3(3) . .
C15 C16 C17 C18 -0.3(3) . .
C16 C17 C18 C13 0.2(3) . .
C18 C13 C14 C15 -0.1(3) . .
C19 Si2 O1 Si1 175.93(19) . .
C19 Si2 O2 Si1 -173.1(2) . 2_657
C19 Si2 C13 C14 -6.3(2) . .
C19 Si2 C13 C18 174.37(17) . .
loop_
_refln_index_h
_refln_index_k
_refln_index_l
_refln_F_squared_meas
_refln_F_squared_sigma
_refln_scale_group_code
-1 0 0 6970.22 76.3622 1
-1 0 0 6813.37 78.9566 3
1 0 0 6937.97 76.2993 1
-2 0 0 3.22482 1.81921 2
-2 0 0 1.0836 3.46327 3
2 0 0 7.20029 2.95568 1
-3 0 0 437.566 12.1919 3
3 0 0 423.695 10.7161 1
-4 0 0 33.7261 5.53565 3
-5 0 0 75.9554 8.05375 3
5 0 0 71.1342 7.14112 1
-6 0 0 1629.19 33.7372 3
6 0 0 1595.61 30.6423 1
-7 0 0 379.591 17.6134 3
7 0 0 361.999 15.7653 1
-8 0 0 11.5959 7.73572 3
8 0 0 7.18595 6.33201 1
-9 0 0 5.33097 8.1151 3
9 0 0 -2.8808 6.4557 1
-10 0 0 15.7983 10.8281 3
10 0 0 13.0407 8.8886 1
10 -1 0 51.7964 11.4116 1
-10 1 0 25.1809 11.1603 3
9 -1 0 218.29 16.7982 1
-9 1 0 202.974 18.2722 3
8 -1 0 33.8584 8.63318 1
-8 1 0 35.9301 10.2292 3
7 -1 0 -4.327 5.18659 1
-7 1 0 5.88533 7.23437 3
6 -1 0 67.9382 8.10097 1
-6 1 0 76.5426 9.44218 3
5 -1 0 378.764 13.2601 1
-5 1 0 360.716 15.2689 3
-5 1 0 360.423 9.92468 2
4 -1 0 987.96 19.9194 1
-4 1 0 1029.11 22.5171 3
-4 1 0 1017.01 18.0634 2
-4 1 0 1010.08 20.0944 1
3 -1 0 24.7482 4.34177 1
-3 1 0 37.2713 4.22139 2
-3 1 0 28.6344 4.49553 1
-3 1 0 34.4221 5.49378 3
2 -1 0 1034.81 16.5296 1
-2 1 0 1004.8 17.9285 3
-2 1 0 1024.68 17.1791 2
-2 1 0 1035.79 16.6194 1
-1 1 0 3776.36 49.3737 2
-1 1 0 3799.04 45.9652 3
-1 1 0 3752.95 43.6507 1
0 1 0 1275.79 18.6464 2
0 1 0 1272.09 16.0097 3
-1 -1 0 567.739 9.20693 3
1 1 0 588.072 9.91996 2
1 1 0 583.575 9.13808 1
-2 -1 0 5005.24 61.0489 3
2 1 0 4973.6 58.9387 1
2 1 0 5125.25 62.8181 2
-3 -1 0 218.601 8.73551 3
3 1 0 220.595 8.2493 1
-4 -1 0 1841.82 30.9892 3
4 1 0 1806.44 29.0703 1
-5 -1 0 225.083 11.7647 3
5 1 0 222.811 10.1786 1
-6 -1 0 13.7623 5.97278 3
6 1 0 28.1377 6.02338 1
-7 -1 0 57.2935 9.05474 3
7 1 0 60.7734 8.3431 1
-8 -1 0 547.479 22.0587 3
8 1 0 565.52 20.1936 1
-9 -1 0 313.177 19.0506 3
9 1 0 311.654 17.7242 1
-10 -1 0 100.516 14.4632 3
10 1 0 115.266 14.0468 1
9 -2 0 172.171 15.5414 1
-9 2 0 144.92 16.6882 3
8 -2 0 359.371 18.2769 1
-8 2 0 421.74 22.1692 3
7 -2 0 838.642 23.6656 1
-7 2 0 834.54 27.0081 3
6 -2 0 544.945 17.7661 1
-6 2 0 490.984 20.1662 3
5 -2 0 7.94208 4.99033 1
-5 2 0 5.65674 4.68356 1
-5 2 0 13.0305 4.63751 2
-5 2 0 20.4308 6.44292 3
4 -2 0 185.316 9.16683 1
-4 2 0 180.075 8.87505 2
-4 2 0 174.433 8.98365 1
-4 2 0 209.456 11.305 3
3 -2 0 513.632 12.709 1
-3 2 0 534.439 14.8053 3
-3 2 0 538.51 13.008 1
-3 2 0 560.089 14.0622 2
-2 2 0 1207.82 21.9637 2
-2 2 0 1163.19 18.7346 1
-2 2 0 1164.23 20.8926 3
-1 2 0 1883.74 24.5686 1
-1 2 0 1867.52 26.5534 3
-1 2 0 1858.79 29.6938 2
0 2 0 7981.79 86.9392 1
0 2 0 7733.83 89.9721 3
0 2 0 7800.92 100.627 2
-1 -2 0 298.938 6.71136 3
1 2 0 310.265 6.80152 1
1 2 0 296.151 9.17092 2
-2 -2 0 6.25789 2.86673 3
2 2 0 8.85989 3.48705 2
2 2 0 5.87485 2.69771 1
-3 -2 0 721.123 15.0673 3
3 2 0 706.107 14.4401 1
3 2 0 727.227 13.7243 2
-4 -2 0 590.581 15.4482 3
4 2 0 609.286 14.6337 1
4 2 0 577.083 11.7675 2
-5 -2 0 3.55184 4.60522 3
5 2 0 1.51223 3.81203 1
-6 -2 0 -2.0197 4.64966 3
6 2 0 -1.6791 4.31077 1
-7 -2 0 88.6077 10.0743 3
7 2 0 72.2239 8.61648 1
-8 -2 0 81.1256 11.1159 3
8 2 0 78.9099 9.91152 1
-9 -2 0 144.429 14.5668 3
9 2 0 155.776 14.3517 1
-10 -2 0 46.703 11.2822 3
10 2 0 41.625 10.6691 1
9 -3 0 32.6973 9.49578 1
-9 3 0 19.8371 12.0875 3
8 -3 0 12.6091 8.37933 1
-8 3 0 32.5843 11.0421 3
7 -3 0 322.417 16.1077 1
-7 3 0 329.59 19.0927 3
6 -3 0 415.856 16.4738 1
-6 3 0 442.506 19.6116 3
-6 3 0 416.514 16.1846 1
-6 3 0 380.936 15.2055 2
5 -3 0 493.217 15.7833 1
-5 3 0 466.765 17.9049 3
-5 3 0 470.535 15.7689 2
-5 3 0 444.62 15.3076 1
4 -3 0 249.786 10.9092 1
-4 3 0 240.647 12.9851 3
-4 3 0 254.487 10.947 1
-4 3 0 251.132 11.9201 2
3 -3 0 399.52 11.6504 1
-3 3 0 387.52 13.8971 2
-3 3 0 405.813 13.6469 3
-3 3 0 372.354 11.3044 1
-2 3 0 598.743 15.0843 3
-2 3 0 602.382 13.0845 1
-2 3 0 586.246 16.3882 2
-1 3 0 3475.86 52.4807 2
-1 3 0 3519.93 46.108 3
-1 3 0 3440.15 43.0008 1
0 3 0 2037.76 28.4936 3
0 3 0 2026.65 34.2292 2
0 3 0 2070.23 26.8393 1
-1 -3 0 136.901 5.43755 3
1 3 0 124.381 5.23521 3
1 3 0 140.436 5.37212 1
1 3 0 134.881 8.45185 2
-2 -3 0 518.135 11.0522 3
2 3 0 532.979 14.094 2
2 3 0 555.049 11.3866 1
-3 -3 0 1267.75 21.5912 3
3 3 0 1290.46 23.2107 2
3 3 0 1265.09 21.3631 1
-4 -3 0 2067.65 32.6773 3
4 3 0 2035.25 32.2902 2
4 3 0 1988.65 31.6547 1
-5 -3 0 402.032 14.0223 3
5 3 0 407.396 11.2471 2
5 3 0 399.35 13.42 1
-6 -3 0 462.825 16.4277 3
6 3 0 484.711 15.9126 1
-7 -3 0 16.191 6.61024 3
7 3 0 5.1779 5.74565 1
-8 -3 0 24.9692 8.00099 3
8 3 0 30.5959 7.62467 1
-9 -3 0 8.03186 7.38034 3
9 3 0 17.3461 7.81274 1
-10 -3 0 35.8903 10.8301 3
10 3 0 39.7035 10.7006 1
8 -4 0 19.7372 8.29397 1
-8 4 0 9.71512 11.1724 3
7 -4 0 2.43759 7.1535 1
-7 4 0 -0.5211 9.61305 3
6 -4 0 16.024 6.59646 1
-6 4 0 14.3811 6.88457 1
-6 4 0 0.36084 6.4855 2
-6 4 0 -6.7203 7.25207 3
5 -4 0 176.356 11.8067 1
-5 4 0 190.537 11.5708 1
-5 4 0 175.329 12.8593 2
-5 4 0 177.499 13.7422 3
4 -4 0 24.6469 5.51801 1
-4 4 0 26.7397 5.81527 1
-4 4 0 15.5767 6.46475 2
-4 4 0 19.4508 6.66247 3
-3 4 0 29.0449 6.51187 3
-3 4 0 30.504 6.7161 2
-3 4 0 31.9031 5.32454 1
-2 4 0 80.4183 7.34595 3
-2 4 0 87.8513 8.78707 2
-2 4 0 88.5169 6.39251 1
-1 4 0 1.46414 3.84083 3
-1 4 0 -2.2647 5.15961 2
-1 4 0 -0.0532 2.92699 1
0 4 0 13.463 3.22011 1
0 4 0 20.2413 4.19448 3
0 4 0 17.9665 5.78299 2
-1 -4 0 156.446 6.59166 3
1 4 0 160.031 6.36063 1
1 4 0 148.132 10.0451 2
1 4 0 151.524 6.61997 3
-2 -4 0 -0.724 2.5763 3
2 4 0 3.26313 2.74723 1
2 4 0 3.52404 4.85432 2
-3 -4 0 914.09 17.7229 3
3 4 0 960.588 21.5274 2
3 4 0 937.849 17.9745 1
-4 -4 0 783.701 17.5151 3
4 4 0 791.967 19.2351 2
4 4 0 810.054 17.7079 1
-5 -4 0 971.823 21.8337 3
5 4 0 970.905 21.5796 1
5 4 0 963.895 21.3373 2
-6 -4 0 508.077 17.0066 3
6 4 0 495.823 14.4847 2
6 4 0 514.266 16.3922 1
-7 -4 0 215.147 13.1978 3
7 4 0 206.659 12.401 1
-8 -4 0 198.869 14.7151 3
8 4 0 203.38 14.0873 1
-9 -4 0 20.7355 8.84566 3
9 4 0 20.3551 8.14144 1
-10 -4 0 5.32907 8.65437 3
10 4 0 -0.4433 8.24536 1
8 -5 0 54.2052 10.7137 1
-8 5 0 50.0594 13.3799 3
7 -5 0 0.13882 7.4418 1
-7 5 0 11.7526 7.99053 1
-7 5 0 4.78829 10.197 3
6 -5 0 10.4946 7.60096 1
-6 5 0 14.91 9.83332 3
-6 5 0 23.6926 9.03007 2
-6 5 0 16.6868 7.63194 1
5 -5 0 8.56438 6.0529 1
-5 5 0 -6.158 5.62175 1
-5 5 0 2.64724 8.06752 2
-5 5 0 6.89948 7.81975 3
4 -5 0 71.1876 8.00876 1
-4 5 0 82.9667 10.9132 2
-4 5 0 85.5522 10.464 3
-4 5 0 78.2551 8.21456 1
-3 5 0 71.9829 8.79996 3
-3 5 0 91.825 10.7207 2
-3 5 0 86.5037 7.83953 1
-2 5 0 209.838 9.19174 1
-2 5 0 218.029 11.4442 3
-2 5 0 199.749 13.6672 2
-1 5 0 89.3002 6.47607 1
-1 5 0 75.6074 7.3611 3
-1 5 0 80.0716 9.60555 2
0 5 0 9.17574 4.22687 3
0 5 0 7.26403 6.1065 2
1 5 0 -0.7696 3.12152 3
1 5 0 2.74303 3.02894 1
1 5 0 0.72643 5.89859 2
-2 -5 0 22.5895 3.95551 3
2 5 0 22.4848 3.93297 1
2 5 0 27.4506 7.06723 2
2 5 0 34.7076 4.34997 3
-3 -5 0 46.5049 5.04895 3
3 5 0 39.0945 7.09482 2
3 5 0 54.0358 5.39632 1
-4 -5 0 -0.9905 3.54839 3
4 5 0 9.33689 5.47988 2
4 5 0 -1.5892 3.44685 1
-5 -5 0 5.28587 4.62122 3
5 5 0 13.3896 4.98542 1
5 5 0 9.65001 5.65037 2
-6 -5 0 68.4097 8.09333 3
6 5 0 51.6692 7.54816 1
6 5 0 53.4663 7.78676 2
-7 -5 0 241.66 13.6243 3
7 5 0 231.834 13.6958 1
-8 -5 0 58.1071 10.0016 3
8 5 0 78.9968 10.6127 1
-9 -5 0 97.4352 12.1379 3
9 5 0 106.512 12.7405 1
-10 -5 0 10.8111 8.63008 3
10 5 0 36.5276 10.4976 1
7 -6 0 18.6854 8.89224 1
-7 6 0 25.6104 9.83389 1
-7 6 0 21.2472 11.4797 3
6 -6 0 43.991 9.63132 1
-6 6 0 56.6297 12.2686 2
-6 6 0 56.6571 12.3264 3
-6 6 0 53.7657 9.96492 1
5 -6 0 8.89098 7.20537 1
-5 6 0 12.9892 8.94023 3
-5 6 0 -2.0076 9.07186 2
-5 6 0 11.9818 7.11301 1
4 -6 0 3.33342 5.95333 1
-4 6 0 0.5536 8.80114 2
-4 6 0 3.41916 8.2564 3
-4 6 0 8.47696 6.0073 1
-3 6 0 67.7671 7.59713 1
-3 6 0 56.9887 10.5976 2
-3 6 0 54.0147 9.16104 3
-2 6 0 1066.76 22.2484 1
-2 6 0 1136.1 31.4533 2
-2 6 0 1107.39 25.547 3
-1 6 0 1029.3 29.4306 2
-1 6 0 1020.05 20.5336 1
-1 6 0 1029.24 23.3527 3
0 6 0 922.506 27.18 2
0 6 0 966.992 21.0645 3
0 6 0 920.187 18.5992 1
1 6 0 495.06 20.1393 2
1 6 0 494.36 12.8603 1
1 6 0 491.352 13.8965 3
-2 -6 0 -4.1247 3.37315 3
2 6 0 1.26894 3.36859 3
2 6 0 -1.0929 6.49642 2
2 6 0 -0.4653 3.11932 1
-3 -6 0 59.3777 5.96411 3
3 6 0 54.4469 5.843 3
3 6 0 55.818 5.97692 1
3 6 0 48.3536 8.7926 2
-4 -6 0 337.581 11.6215 3
4 6 0 327.798 12.1592 1
4 6 0 326.665 15.7773 2
-5 -6 0 1599.53 29.9036 3
5 6 0 1620.54 35.5662 2
5 6 0 1591.73 30.3859 1
-6 -6 0 233.155 12.4951 3
6 6 0 217.455 14.2012 2
6 6 0 219.688 12.6609 1
-7 -6 0 4.81894 6.21389 3
7 6 0 -2.817 5.59104 1
-8 -6 0 0.75189 6.83538 3
8 6 0 -9.543 5.73866 1
-9 -6 0 -13.054 6.85687 3
9 6 0 8.89255 8.03821 1
-6 7 0 40.8887 12.5045 3
-6 7 0 27.0252 12.1329 2
5 -7 0 31.6668 9.16508 1
-5 7 0 14.7576 11.7517 2
-5 7 0 20.6459 10.8662 3
-5 7 0 6.40042 8.03771 1
4 -7 0 20.9905 7.37606 1
-4 7 0 30.3503 11.6386 2
-4 7 0 16.6212 9.28123 3
-4 7 0 21.1704 7.74694 1
-3 7 0 190.6 14.5643 3
-3 7 0 159.608 16.7517 2
-3 7 0 180.78 12.1415 1
-2 7 0 -0.6185 4.94162 1
-2 7 0 11.4915 10.0385 2
-2 7 0 -7.7589 6.4875 3
-1 7 0 32.4181 6.22603 1
-1 7 0 37.1403 7.81592 3
-1 7 0 30.7965 10.5308 2
0 7 0 698.792 19.4476 3
0 7 0 688.995 17.1608 1
0 7 0 695.854 25.8141 2
1 7 0 981.416 20.5415 1
1 7 0 1020.22 22.6315 3
1 7 0 1016.7 30.8556 2
2 7 0 95.7361 12.3771 2
2 7 0 99.0405 7.91534 1
2 7 0 117.771 8.48651 3
-3 -7 0 14.5866 4.63549 3
3 7 0 9.60474 4.37726 1
3 7 0 8.19982 4.34818 3
3 7 0 4.16844 7.41347 2
-4 -7 0 -6.4285 3.83071 3
4 7 0 5.99112 4.51668 1
4 7 0 -0.2954 7.21613 2
4 7 0 2.22743 4.34799 3
-5 -7 0 72.4641 7.8556 3
5 7 0 64.3938 7.90003 1
5 7 0 91.8954 11.8632 2
-6 -7 0 51.3947 7.88075 3
6 7 0 70.2417 10.6384 2
6 7 0 54.4512 8.18972 1
-7 -7 0 795.621 23.4761 3
7 7 0 828.952 24.5422 1
-8 -7 0 188.376 14.9824 3
8 7 0 171.264 14.4056 1
-9 -7 0 236.646 17.4625 3
9 7 0 211.844 17.254 1
-5 8 0 112.267 17.2807 2
-5 8 0 90.7902 14.5063 3
-4 8 0 38.0763 13.6797 2
-4 8 0 38.2381 10.8286 3
-3 8 0 22.965 12.2604 2
-3 8 0 35.7492 9.76487 3
-2 8 0 372.096 23.8932 2
-2 8 0 400.596 19.0248 3
-2 8 0 395.165 15.922 1
-1 8 0 1.05671 7.2075 3
-1 8 0 -7.1651 10.528 2
-1 8 0 4.88441 5.61073 1
0 8 0 33.7375 11.3115 2
0 8 0 41.2427 6.85283 1
0 8 0 43.4649 8.12959 3
1 8 0 1.60178 4.76445 1
1 8 0 -14.611 8.39191 2
1 8 0 5.51861 5.91623 3
2 8 0 3.82035 5.5304 3
2 8 0 -0.2743 8.78517 2
2 8 0 4.94554 4.61554 1
-3 -8 0 18.7815 5.74786 3
3 8 0 8.3973 5.51781 3
3 8 0 22.2662 5.49256 1
3 8 0 20.1994 9.47649 2
-4 -8 0 72.1799 7.7676 3
4 8 0 56.6863 11.6431 2
4 8 0 53.2547 7.40289 1
4 8 0 52.7521 7.27113 3
-5 -8 0 93.6526 9.16354 3
5 8 0 105.903 9.5378 3
5 8 0 79.8671 8.98587 1
5 8 0 87.9239 12.6547 2
-6 -8 0 110.905 10.4871 3
6 8 0 99.4202 10.3736 1
6 8 0 118.201 13.9578 2
-7 -8 0 135.575 12.5566 3
7 8 0 123.649 12.1014 1
-8 -8 0 116.152 12.4717 3
8 8 0 102.716 12.1124 1
-3 9 0 -0.2401 13.0378 2
-2 9 0 -6.6687 11.4301 2
-1 9 0 47.8874 14.2943 2
0 9 0 296.949 23.0589 2
0 9 0 275.854 14.257 1
1 9 0 254.377 13.2943 1
1 9 0 266.471 21.0318 2
2 9 0 251.44 12.9537 1
2 9 0 281.719 21.6575 2
3 9 0 253.783 13.2209 1
3 9 0 278.781 20.8564 2
4 9 0 29.0859 6.71831 1
4 9 0 23.5439 10.4491 2
5 9 0 6.37423 5.82622 1
5 9 0 11.6305 10.1674 2
6 9 0 18.0009 10.7705 2
6 9 0 7.13794 6.27168 1
7 9 0 0.09055 6.74444 1
-1 10 0 -2.5357 13.5033 2
0 10 0 176.945 20.8028 2
1 10 0 94.866 16.4984 2
2 10 0 8.76945 11.3832 2
3 10 0 111.135 11.0121 1
3 10 0 104.494 16.0795 2
4 10 0 267.851 15.0158 1
4 10 0 298.166 22.9907 2
5 10 0 206.437 14.1376 1
5 10 0 176.4 18.5425 2
5 10 -1 -1.4453 6.4344 1
5 10 -1 20.6009 11.3555 2
4 10 -1 -14.833 5.71173 1
4 10 -1 -22.617 8.52843 2
3 10 -1 5.22265 6.65461 1
3 10 -1 24.0193 11.8522 2
2 10 -1 6.79649 11.5884 2
2 10 -1 11.9741 6.78833 1
1 10 -1 15.8222 7.94025 1
1 10 -1 59.6634 14.9102 2
0 10 -1 11.2935 13.299 2
-1 10 -1 53.0611 16.7183 2
7 9 -1 27.6967 9.03947 1
6 9 -1 17.7196 7.51676 1
6 9 -1 3.31655 9.66311 2
5 9 -1 60.0303 9.1557 1
5 9 -1 47.3829 11.9756 2
4 9 -1 0.52552 5.52492 1
4 9 -1 1.45842 9.34469 2
3 9 -1 -7.9423 8.97343 2
3 9 -1 3.51586 5.78577 1
2 9 -1 134.262 10.9288 1
2 9 -1 112.427 16.0264 2
1 9 -1 2.19981 11.1679 2
1 9 -1 12.4264 6.3656 1
0 9 -1 190.906 13.2875 1
0 9 -1 145.331 18.1152 2
-1 9 -1 24.6307 7.87674 1
-1 9 -1 33.6875 12.9306 2
-2 9 -1 43.1187 9.15655 1
-2 9 -1 18.3888 13.1885 2
-3 9 -1 176.534 20.7189 2
8 8 -1 82.7122 11.7767 1
7 8 -1 11.8435 7.36153 1
6 8 -1 101.096 14.0079 2
6 8 -1 80.8147 9.69184 1
5 8 -1 293.363 14.303 1
5 8 -1 271.587 18.8996 2
4 8 -1 2.37838 5.41305 1
4 8 -1 9.78522 8.89696 2
3 8 -1 238.545 12.2207 1
3 8 -1 227.493 18.2212 2
2 8 -1 48.8318 7.18106 1
2 8 -1 39.3623 11.2537 2
1 8 -1 118.08 14.4013 2
1 8 -1 142.285 10.313 1
0 8 -1 5.71546 5.4698 1
0 8 -1 13.5386 10.2583 2
-1 8 -1 139.011 11.1282 1
-1 8 -1 109.207 15.8165 2
-2 8 -1 20.3868 7.49505 1
-2 8 -1 12.9118 11.462 2
-3 8 -1 -18.253 9.87573 2
-3 8 -1 -4.7979 7.03609 1
-4 8 -1 27.9062 8.55784 1
-4 8 -1 18.2232 12.5146 2
-5 8 -1 19.2107 13.1167 2
9 7 -1 26.3516 9.43547 1
-9 -7 1 32.2756 9.44088 3
8 7 -1 237.064 16.3942 1
-8 -7 1 228.525 16.1138 3
7 7 -1 32.9272 7.73687 1
-7 -7 1 32.8675 7.77253 3
6 7 -1 243.779 17.3723 2
6 7 -1 221.044 13.8639 1
-6 -7 1 243.735 12.7568 3
5 7 -1 74.2077 8.52481 1
5 7 -1 76.5055 11.2099 2
-5 -7 1 100.25 8.54385 3
4 7 -1 422.446 20.59 2
4 7 -1 388.119 14.2289 1
4 7 -1 415.615 13.0028 3
-4 -7 1 386.118 12.7271 3
3 7 -1 237.642 9.50503 3
3 7 -1 232.283 11.1003 1
3 7 -1 230.298 16.6804 2
-3 -7 1 248.211 10.0067 3
2 7 -1 1000.59 20.2414 3
2 7 -1 957.838 21.5304 1
2 7 -1 1013.62 30.5326 2
1 7 -1 362.381 12.7404 3
1 7 -1 353.933 19.6641 2
1 7 -1 364.989 13.0227 1
0 7 -1 108.333 8.53362 3
0 7 -1 112.111 8.89281 1
0 7 -1 120.326 13.9578 2
-1 7 -1 2.80897 5.78002 3
-1 7 -1 9.00327 9.28316 2
-1 7 -1 -7.7234 4.47147 1
-2 7 -1 259.935 14.0223 3
-2 7 -1 289.937 13.4261 1
-2 7 -1 271.158 19.5782 2
-3 7 -1 18.5737 6.81234 1
-3 7 -1 8.01819 10.2207 2
-3 7 -1 0.15871 6.81292 3
-4 7 -1 24.8739 11.0737 2
-4 7 -1 -5.1924 6.49606 1
-4 7 -1 33.4841 9.70848 3
-5 7 -1 15.4341 10.8487 2
-5 7 -1 14.3477 8.31709 1
-5 7 -1 0.41884 9.01398 3
5 -7 1 6.81837 7.28879 1
-6 7 -1 5.49525 10.0005 3
-6 7 -1 11.2176 9.26944 1
-6 7 -1 7.2803 11.1402 2
6 -7 1 -0.0565 7.48797 1
9 6 -1 44.1501 9.973 1
-9 -6 1 24.7792 9.38413 3
8 6 -1 54.2779 9.87211 1
-8 -6 1 49.4617 9.13529 3
7 6 -1 16.6635 6.58475 1
-7 -6 1 -1.2868 5.70679 3
6 6 -1 129.411 10.837 1
6 6 -1 133.158 12.5733 2
-6 -6 1 136.419 10.8129 3
5 6 -1 51.9943 7.3955 1
5 6 -1 45.4071 8.92906 2
-5 -6 1 68.8531 7.30617 3
4 6 -1 15.5393 7.21262 2
4 6 -1 13.6854 4.83361 1
-4 -6 1 10.929 4.16104 3
3 6 -1 69.9468 5.84279 3
3 6 -1 48.4064 9.05365 2
3 6 -1 61.4955 6.69634 1
-3 -6 1 59.9152 5.68583 3
2 6 -1 229.332 14.3873 2
2 6 -1 222.513 8.64028 3
2 6 -1 223.265 9.55181 1
-2 -6 1 231.98 8.58537 3
1 6 -1 46.2182 5.57693 3
1 6 -1 43.0313 9.11399 2
1 6 -1 48.3359 5.74157 1
0 6 -1 470.119 20.1631 2
0 6 -1 456.923 13.4472 3
0 6 -1 445.954 13.2681 1
-1 6 -1 27.1032 5.83608 3
-1 6 -1 32.668 5.51365 1
-1 6 -1 10.4959 8.25103 2
-2 6 -1 234.036 16.7043 2
-2 6 -1 243.671 12.4991 3
-2 6 -1 230.736 11.4052 1
-3 6 -1 48.6241 10.5888 2
-3 6 -1 48.6435 8.17747 3
-3 6 -1 38.452 6.85299 1
-4 6 -1 19.1703 9.17191 2
-4 6 -1 9.30936 6.33685 1
-4 6 -1 2.60648 7.53536 3
-5 6 -1 42.5425 11.3363 2
-5 6 -1 48.537 10.7486 3
-5 6 -1 73.2353 10.1263 1
5 -6 1 47.6117 8.78536 1
-6 6 -1 389.925 21.3263 3
-6 6 -1 420.114 22.4182 2
-6 6 -1 377.341 19.013 1
6 -6 1 422.78 19.2297 1
-7 6 -1 54.4646 11.3919 1
-7 6 -1 73.335 13.8284 3
7 -6 1 51.9172 10.8614 1
10 5 -1 264.808 18.7813 1
-10 -5 1 242.326 19.4867 3
9 5 -1 369.846 19.4934 1
-9 -5 1 363.486 19.7802 3
8 5 -1 414.402 18.1902 1
-8 -5 1 393.329 18.7154 3
7 5 -1 39.6225 7.58228 1
-7 -5 1 46.6952 8.24313 3
6 5 -1 267.028 13.4032 1
6 5 -1 304.056 14.1956 2
-6 -5 1 279.685 13.2577 3
5 5 -1 82.1 9.02585 2
5 5 -1 84.1211 8.29215 1
-5 -5 1 103.012 8.3543 3
4 5 -1 46.9456 7.57262 2
4 5 -1 56.2716 6.42356 1
-4 -5 1 48.372 5.54762 3
3 5 -1 47.1387 8.06313 2
3 5 -1 61.5678 6.15508 1
-3 -5 1 73.172 5.70114 3
2 5 -1 -4.625 2.81905 1
2 5 -1 3.71088 6.11836 2
2 5 -1 -5.0305 2.35382 3
-2 -5 1 4.10996 2.80957 3
1 5 -1 279.148 14.5001 2
1 5 -1 304.861 9.99033 1
1 5 -1 297.104 8.91027 3
0 5 -1 -0.1359 3.4754 3
0 5 -1 2.84157 3.34232 1
0 5 -1 2.39471 6.47249 2
-1 5 -1 763.343 16.8699 1
-1 5 -1 794.246 23.422 2
-1 5 -1 778.95 17.1655 3
-2 5 -1 684.306 17.6675 3
-2 5 -1 679.175 16.7527 1
-2 5 -1 684.753 22.2647 2
-3 5 -1 225.934 14.9144 2
-3 5 -1 231.463 12.1323 3
-3 5 -1 215.477 11.1048 1
-4 5 -1 57.7872 9.17219 3
-4 5 -1 65.6135 10.0609 2
-4 5 -1 64.4226 8.16097 1
-5 5 -1 103.741 11.9496 2
-5 5 -1 137.093 11.5058 1
-5 5 -1 114.65 12.1124 3
5 -5 1 74.9261 9.35715 1
-6 5 -1 64.102 10.0235 1
-6 5 -1 84.5717 11.8362 2
-6 5 -1 76.1208 12.264 3
6 -5 1 73.1236 10.0396 1
-7 5 -1 39.1629 11.2139 3
-7 5 -1 55.7179 10.9343 1
7 -5 1 56.9478 10.3759 1
-8 5 -1 185.03 18.3344 3
-8 5 -1 185.657 16.8355 1
8 -5 1 203.033 17.3266 1
10 4 -1 8.0767 8.62031 1
-10 -4 1 -6.9637 7.77756 3
9 4 -1 27.0986 8.34374 1
-9 -4 1 49.507 10.1899 3
8 4 -1 208.992 14.4001 1
-8 -4 1 202.998 14.8434 3
7 4 -1 394.183 16.2309 1
-7 -4 1 434.789 17.1482 3
6 4 -1 1004.42 23.9487 1
6 4 -1 978.168 22.2526 2
-6 -4 1 988.037 23.9422 3
5 4 -1 373.63 13.8043 2
5 4 -1 361.731 13.2545 1
-5 -4 1 380.842 13.4283 3
4 4 -1 106.16 9.12443 2
4 4 -1 111.527 7.92227 1
-4 -4 1 106.083 7.34234 3
3 4 -1 14.3239 3.88699 1
3 4 -1 8.63426 5.19132 2
-3 -4 1 13.0054 3.4813 3
2 4 -1 130.771 9.70089 2
2 4 -1 133.341 6.81043 1
-2 -4 1 127.941 5.68006 3
1 4 -1 2.45654 5.07351 2
1 4 -1 7.3887 2.70775 3
1 4 -1 1.62572 2.86072 1
-1 -4 1 9.54692 2.74683 3
0 4 -1 487.596 16.271 2
0 4 -1 490.478 10.9829 3
0 4 -1 483.956 11.4454 1
-1 4 -1 231.992 12.5547 2
-1 4 -1 253.953 9.17704 3
-1 4 -1 238.499 8.64948 1
-2 4 -1 113.403 10.0357 2
-2 4 -1 120.678 7.51544 1
-2 4 -1 125.08 8.37528 3
-3 4 -1 86.2397 9.29405 2
-3 4 -1 90.6395 7.78023 1
-3 4 -1 82.291 7.95212 3
-4 4 -1 421.5 16.1715 3
-4 4 -1 419.455 14.4918 1
-4 4 -1 416.806 16.688 2
4 -4 1 461.709 15.2243 1
-5 4 -1 39.5621 7.45702 1
-5 4 -1 54.1351 8.82561 2
-5 4 -1 35.8577 8.55898 3
5 -4 1 40.2977 7.28098 1
-6 4 -1 137.718 12.0265 1
-6 4 -1 144.579 12.1415 2
-6 4 -1 131.953 14.0756 3
6 -4 1 141.353 12.3323 1
-7 4 -1 -1.2711 9.00932 3
-7 4 -1 28.5952 8.97742 1
7 -4 1 5.36554 7.08605 1
-8 4 -1 54.6294 12.4265 3
8 -4 1 34.2824 10.1853 1
10 3 -1 38.7708 10.4856 1
-10 -3 1 48.7302 11.5895 3
9 3 -1 26.3398 8.58777 1
-9 -3 1 10.6429 8.33486 3
8 3 -1 8.29204 6.60195 1
-8 -3 1 10.11 7.01963 3
7 3 -1 161.53 11.9291 1
-7 -3 1 182.231 13.7081 3
6 3 -1 53.8641 7.31304 1
6 3 -1 45.167 5.60609 2
-6 -3 1 34.7994 7.12234 3
5 3 -1 21.6733 4.80894 2
5 3 -1 19.3808 4.78954 1
-5 -3 1 40.6759 6.31816 3
4 3 -1 7.64982 4.28764 2
4 3 -1 -3.9105 3.1863 1
-4 -3 1 -1.3778 3.79742 3
3 3 -1 2.31736 3.98984 2
3 3 -1 0.78668 3.03981 1
-3 -3 1 0.13924 2.95365 3
2 3 -1 32.5941 3.96057 1
2 3 -1 36.8458 5.7345 2
-2 -3 1 37.0013 3.6542 3
1 3 -1 356.812 7.34348 3
1 3 -1 364.476 12.3695 2
1 3 -1 355.081 8.83705 1
-1 -3 1 362.392 7.37437 3
0 3 -1 331.776 12.2984 2
0 3 -1 347.494 8.78242 1
0 3 -1 356.05 8.03295 3
-1 3 -1 732.54 18.1658 2
-1 3 -1 761.88 14.2225 1
-1 3 -1 744.492 13.8987 3
-2 3 -1 600.357 13.5545 1
-2 3 -1 567.315 16.1836 2
-2 3 -1 588.155 13.9724 3
-3 3 -1 584.972 16.7996 2
-3 3 -1 624.353 15.0637 1
-3 3 -1 602.203 15.9972 3
-4 3 -1 540.873 16.3596 2
-4 3 -1 530.068 16.8771 3
-4 3 -1 535.302 15.6105 1
4 -3 1 514.955 15.277 1
-5 3 -1 1.46445 6.012 3
-5 3 -1 7.07264 5.25859 1
-5 3 -1 0.68104 5.04454 2
5 -3 1 1.00124 4.89835 1
-6 3 -1 93.8739 9.97411 1
-6 3 -1 104.093 11.6823 3
-6 3 -1 81.7922 8.42213 2
6 -3 1 77.4489 9.48115 1
-7 3 -1 71.5052 9.92644 1
-7 3 -1 60.8076 11.1212 3
7 -3 1 61.109 9.51455 1
-8 3 -1 55.1012 11.7373 3
8 -3 1 58.6711 10.4747 1
-9 3 -1 104.553 15.9685 3
9 -3 1 66.4565 11.7887 1
10 2 -1 30.1906 9.96935 1
-10 -2 1 31.6188 10.5498 3
9 2 -1 20.1325 8.34944 1
-9 -2 1 25.8323 9.28479 3
8 2 -1 65.7976 9.29583 1
-8 -2 1 56.0661 9.89606 3
7 2 -1 36.0464 7.37886 1
-7 -2 1 24.9714 7.1634 3
6 2 -1 79.7705 8.24447 1
-6 -2 1 77.7205 8.87546 3
5 2 -1 43.646 6.06465 1
5 2 -1 33.8933 4.35022 2
-5 -2 1 26.9264 6.06211 3
4 2 -1 868.378 17.3987 2
4 2 -1 903.65 18.6585 1
-4 -2 1 927.76 19.4742 3
3 2 -1 2502.35 37.4664 2
3 2 -1 2546.76 35.1783 1
-3 -2 1 2560.61 36.2451 3
2 2 -1 758.428 13.6276 1
2 2 -1 731.526 15.4998 2
-2 -2 1 724.269 13.1923 3
1 2 -1 1031.52 15.4825 1
1 2 -1 1015.75 19.101 2
-1 -2 1 1011.5 13.9876 3
0 2 -1 1998.65 24.4115 3
0 2 -1 1995.46 31.0383 2
-1 2 -1 9999.99 125.488 2
-1 2 -1 9794.72 110.355 1
-1 2 -1 9709.98 112.58 3
-2 2 -1 174.137 8.25113 2
-2 2 -1 167.938 7.54868 3
-2 2 -1 179.131 7.31108 1
-3 2 -1 536.917 14.3906 3
-3 2 -1 555.085 13.6116 1
-3 2 -1 531.547 13.8094 2
3 -2 1 534.368 13.3653 1
-4 2 -1 12.2811 5.30293 3
-4 2 -1 18.6866 4.69298 2
-4 2 -1 14.9506 4.79693 1
4 -2 1 19.8395 4.80958 1
-5 2 -1 855.519 22.4458 3
-5 2 -1 854.171 20.6144 1
-5 2 -1 852.72 18.7092 2
5 -2 1 896.887 21.0719 1
-6 2 -1 273.956 13.5603 1
-6 2 -1 271.345 15.0158 3
6 -2 1 273.375 13.4387 1
-7 2 -1 9.96662 7.87285 3
7 -2 1 5.92191 6.45837 1
-8 2 -1 2.75859 8.42618 3
8 -2 1 -1.0964 6.65786 1
-9 2 -1 11.6074 10.8419 3
9 -2 1 -6.5097 7.92288 1
10 1 -1 222.053 18.34 1
-10 -1 1 184.04 18.014 3
9 1 -1 17.2939 7.90038 1
-9 -1 1 7.42359 8.22435 3
8 1 -1 142.187 12.4419 1
-8 -1 1 128.282 13.5068 3
7 1 -1 4.65433 5.74933 1
-7 -1 1 0.54803 6.71587 3
6 1 -1 336.101 13.4338 1
-6 -1 1 310.711 14.7172 3
5 1 -1 350.229 12.4995 1
5 1 -1 371.386 9.10776 2
-5 -1 1 374.387 14.3275 3
-5 -1 1 384.69 9.29172 2
4 1 -1 276.279 8.13285 2
4 1 -1 287.877 10.1715 1
-4 -1 1 273.617 11.2101 3
-4 -1 1 286.739 8.34281 2
3 1 -1 1517.82 23.7031 1
3 1 -1 1527.76 23.7453 2
-3 -1 1 1534.51 25.3693 3
2 1 -1 5009.02 59.364 1
2 1 -1 4983.38 65.3074 2
-2 -1 1 5080.67 61.3589 3
1 1 -1 743.274 11.4216 1
1 1 -1 740.467 13.6332 2
-1 -1 1 729.86 11.1031 3
0 1 -1 153.968 6.30248 2
-1 1 -1 -0.459 3.06991 2
-1 1 -1 -0.6748 2.43262 1
-1 1 -1 5.49576 2.44678 3
-2 1 -1 0.46267 3.38254 3
-2 1 -1 2.75418 3.17695 1
-2 1 -1 4.43315 3.14316 2
-3 1 -1 883.665 15.8067 2
-3 1 -1 916.853 17.5031 1
-3 1 -1 871.41 18.1077 3
3 -1 1 916.17 17.391 1
-4 1 -1 95.585 5.65048 2
-4 1 -1 101.588 7.53163 1
-4 1 -1 111.887 8.43953 3
4 -1 1 90.8642 7.38266 1
-5 1 -1 125.277 9.11439 1
-5 1 -1 151.277 10.5465 3
-5 1 -1 123.765 6.40808 2
5 -1 1 139.85 9.40187 1
-6 1 -1 156.057 11.9478 3
6 -1 1 145.257 10.7736 1
-7 1 -1 6.9934 7.20129 3
7 -1 1 10.9369 6.26058 1
-8 1 -1 75.4315 11.5455 3
8 -1 1 96.8962 11.4443 1
-9 1 -1 -2.7642 8.16519 3
9 -1 1 12.9755 8.00636 1
-10 1 -1 69.5697 13.7751 3
10 -1 1 85.3271 13.0004 1
10 0 -1 1.11781 8.56473 1
-10 0 1 2.14067 9.15684 3
9 0 -1 -0.9973 7.23558 1
-9 0 1 -5.5317 8.24012 3
8 0 -1 0.22345 5.95845 1
-8 0 1 -7.1096 6.50527 3
7 0 -1 72.1182 8.79575 1
-7 0 1 89.1306 11.3307 3
6 0 -1 103.051 9.35146 1
-6 0 1 97.0089 10.626 3
5 0 -1 356.392 12.5277 1
-5 0 1 351.22 14.6253 3
-5 0 1 364.883 9.45671 2
4 0 -1 241.425 9.5389 1
-4 0 1 263.609 7.96782 2
-4 0 1 240.377 11.2816 3
3 0 -1 261.394 8.55395 1
-3 0 1 263.943 7.99454 2
-3 0 1 250.107 9.96762 3
2 0 -1 1328.57 20.6211 2
2 0 -1 1314.39 19.2299 1
-2 0 1 1342.26 20.6985 2
-2 0 1 1327.14 21.3764 3
1 0 -1 1300.9 16.8539 1
1 0 -1 1352.1 19.9999 2
-1 0 1 1320.15 18.6822 3
0 0 -1 285.605 4.33247 1
0 0 -1 293.84 6.63666 2
0 0 -1 292.662 4.88297 3
0 0 1 286.789 4.86512 3
-1 0 -1 382.003 7.4908 2
-1 0 -1 390.876 7.3104 3
-1 0 -1 391.393 7.27842 1
-2 0 -1 405.998 7.37737 2
-2 0 -1 409.174 9.44205 1
-2 0 -1 423.099 9.75856 3
2 0 1 415.891 9.60065 1
-3 0 -1 19.6872 4.49236 3
-3 0 -1 20.493 4.03919 1
3 0 1 18.3212 3.87617 1
-4 0 -1 388.113 12.0742 1
-4 0 -1 357.463 12.4521 3
4 0 1 377.085 11.8597 1
-5 0 -1 517.166 16.5999 3
5 0 1 557.221 15.5915 1
-6 0 -1 391.86 15.9463 3
6 0 1 392.84 14.7017 1
-7 0 -1 888.534 25.4575 3
7 0 1 898.032 23.7211 1
-8 0 -1 109.768 12.3084 3
8 0 1 96.9192 11.2273 1
-9 0 -1 38.0933 9.87289 3
9 0 1 52.2771 9.9546 1
-10 0 -1 28.564 11.0585 3
10 0 1 56.5582 11.7224 1
9 -1 -1 50.7748 10.0118 1
-9 1 1 42.2266 11.792 3
8 -1 -1 164.104 13.6026 1
-8 1 1 177.12 16.3685 3
7 -1 -1 4.33307 6.28974 1
-7 1 1 4.15787 7.12813 3
6 -1 -1 22.2116 6.16547 1
-6 1 1 13.8325 4.42402 2
-6 1 1 9.08631 7.18483 3
5 -1 -1 125.329 8.70598 1
-5 1 1 120.539 7.392 2
-5 1 1 121.674 10.674 3
4 -1 -1 203.801 8.88183 1
-4 1 1 242.131 11.7512 3
-4 1 1 215.835 8.43722 2
3 -1 -1 31.0812 4.34722 1
-3 1 1 31.3784 4.3364 2
-3 1 1 30.6679 5.43235 3
2 -1 -1 100.152 5.34714 1
-2 1 1 111.269 7.22659 3
-2 1 1 117.361 6.53672 2
1 -1 -1 439.464 7.56171 1
-1 1 1 455.924 10.804 2
-1 1 1 448.594 7.63257 1
-1 1 1 442.935 10.1684 3
0 1 1 424.112 9.65582 2
0 1 1 436.517 8.21108 3
-1 -1 -1 312.359 6.95288 3
1 1 1 309.249 6.03175 1
1 1 1 320.189 7.27072 2
-2 -1 -1 30.8318 3.93324 3
2 1 1 30.8978 3.65173 1
2 1 1 32.4109 2.72799 2
-3 -1 -1 43.973 5.18421 3
3 1 1 37.251 4.59319 1
-4 -1 -1 569.339 15.059 3
4 1 1 578.624 14.2358 1
-5 -1 -1 173.499 10.2517 3
5 1 1 178.367 9.5058 1
-6 -1 -1 621.656 19.1393 3
6 1 1 630.045 18.186 1
-7 -1 -1 267.501 14.78 3
7 1 1 285.792 14.0341 1
-8 -1 -1 4.04759 6.93657 3
8 1 1 8.21193 6.41651 1
-9 -1 -1 118.6 13.4988 3
9 1 1 140.677 13.5352 1
-10 -1 -1 45.717 11.8462 3
10 1 1 46.5601 10.7352 1
9 -2 -1 147.817 14.5693 1
-9 2 1 135.486 16.7512 3
8 -2 -1 562.917 21.4767 1
-8 2 1 560.844 24.9291 3
7 -2 -1 373.856 15.8239 1
-7 2 1 357.916 19.454 3
6 -2 -1 350.869 14.5119 1
-6 2 1 373.965 17.5745 3
-6 2 1 359.525 13.0806 2
5 -2 -1 361.904 13.1101 1
-5 2 1 376.275 16.2433 3
-5 2 1 386.159 13.1955 2
4 -2 -1 225.845 9.52466 1
-4 2 1 218.7 11.9752 3
-4 2 1 204.701 9.38486 1
-4 2 1 228.031 10.2703 2
3 -2 -1 918.763 17.1678 1
-3 2 1 900.116 17.089 1
-3 2 1 958.407 21.1346 3
-3 2 1 915.374 19.7297 2
2 -2 -1 1978.88 27.1479 1
-2 2 1 2041.76 31.6249 3
-2 2 1 2001.21 32.732 2
-2 2 1 2013.33 27.3107 1
-1 2 1 453.02 11.495 3
-1 2 1 447.989 12.4532 2
-1 2 1 464.189 8.51687 1
0 2 1 1890.65 27.0341 3
0 2 1 2018.06 23.3643 1
0 2 1 2029.96 31.1292 2
-1 -2 -1 2133.96 28.5796 3
1 2 1 2152 26.2203 1
1 2 1 2189.85 32.4397 2
-2 -2 -1 11.6512 3.33921 3
2 2 1 12.0464 3.34458 2
2 2 1 6.26947 2.71736 1
-3 -2 -1 10.5844 3.65636 3
3 2 1 15.904 3.66294 1
3 2 1 14.9395 3.18454 2
-4 -2 -1 16.6962 4.54044 3
4 2 1 8.58088 3.9702 1
4 2 1 18.4698 2.90734 2
-5 -2 -1 27.0365 5.98029 3
5 2 1 31.0647 5.5416 1
-6 -2 -1 7.47069 5.41556 3
6 2 1 5.14169 4.54318 1
-7 -2 -1 285.823 14.9108 3
7 2 1 288.366 13.6471 1
-8 -2 -1 10.8309 7.48436 3
8 2 1 16.6461 6.84321 1
-9 -2 -1 22.4545 8.94634 3
9 2 1 33.7633 8.85063 1
-10 -2 -1 2.28305 8.5183 3
10 2 1 0.959 7.61944 1
9 -3 -1 39.3361 10.5616 1
-9 3 1 62.998 14.0899 3
8 -3 -1 46.3661 9.38279 1
-8 3 1 43.4556 12.0564 3
7 -3 -1 139.584 12.1464 1
-7 3 1 144.469 14.8072 3
6 -3 -1 156.01 11.4108 1
-6 3 1 154.257 14.211 3
-6 3 1 154.066 11.6459 2
5 -3 -1 208.808 11.2197 1
-5 3 1 203.887 11.0489 1
-5 3 1 226.72 12.477 2
-5 3 1 241.463 15.0881 3
4 -3 -1 39.9432 5.70525 1
-4 3 1 52.2799 8.0403 3
-4 3 1 50.2044 7.20463 2
-4 3 1 49.2971 6.17828 1
3 -3 -1 77.4915 6.12122 1
-3 3 1 75.25 7.97219 2
-3 3 1 82.072 8.10638 3
-3 3 1 87.9112 6.59788 1
-2 3 1 62.7825 6.84452 3
-2 3 1 68.5279 7.27919 2
-2 3 1 63.3419 4.95865 1
-1 3 1 111.876 5.20815 1
-1 3 1 102.606 8.24907 2
-1 3 1 112.073 7.65078 3
0 3 1 58.8527 5.16716 3
0 3 1 66.2842 3.8945 1
0 3 1 70.9487 6.98048 2
-1 -3 -1 783.845 14.3975 3
1 3 1 782.025 17.984 2
1 3 1 793.852 12.3683 1
1 3 1 794.953 14.5338 3
-2 -3 -1 771.192 14.6297 3
2 3 1 742.862 16.9181 2
2 3 1 778.283 13.5817 1
-3 -3 -1 958.888 18.4565 3
3 3 1 1000.79 17.8042 1
3 3 1 948.781 18.8662 2
-4 -3 -1 661.43 15.9203 3
4 3 1 625.223 14.2431 2
4 3 1 632.313 15.1027 1
-5 -3 -1 955.975 21.8883 3
5 3 1 975.26 21.3969 1
5 3 1 1001.6 18.0295 2
-6 -3 -1 103.313 9.57956 3
6 3 1 83.1809 8.39977 1
-7 -3 -1 422.555 17.4589 3
7 3 1 403.194 16.2652 1
-8 -3 -1 62.3761 9.71623 3
8 3 1 33.4252 8.01012 1
-9 -3 -1 233.338 16.3148 3
9 3 1 223.958 16.2256 1
-10 -3 -1 64.7309 11.8331 3
10 3 1 87.8315 12.4493 1
8 -4 -1 204.101 15.5656 1
-8 4 1 151.978 17.793 3
7 -4 -1 28.219 7.71683 1
-7 4 1 12.4461 9.97722 3
6 -4 -1 -7.4783 5.67866 1
-6 4 1 7.57014 7.17003 2
-6 4 1 -5.6138 8.09911 3
5 -4 -1 141.854 10.1349 1
-5 4 1 134.359 10.3549 1
-5 4 1 135.482 12.8868 3
-5 4 1 146.596 12.3834 2
4 -4 -1 207.963 10.2545 1
-4 4 1 189.929 12.7102 2
-4 4 1 229.592 13.6315 3
-4 4 1 210.032 10.3352 1
3 -4 -1 128.624 7.58581 1
-3 4 1 108.855 10.3697 2
-3 4 1 128.625 10.7841 3
-3 4 1 139.493 8.03373 1
-2 4 1 236.398 8.47471 1
-2 4 1 222.037 12.7394 2
-2 4 1 244.049 11.501 3
-1 4 1 1.99372 4.56432 3
-1 4 1 0.54073 2.79449 1
-1 4 1 5.61124 5.42398 2
0 4 1 108.923 7.46599 3
0 4 1 105.719 9.28168 2
0 4 1 110.575 5.27316 1
-1 -4 -1 49.364 5.03117 3
1 4 1 44.8405 3.86403 1
1 4 1 38.0484 6.55248 2
1 4 1 47.5838 5.0046 3
-2 -4 -1 57.5849 5.24347 3
2 4 1 31.6252 6.08785 2
2 4 1 42.5525 4.03248 1
2 4 1 44.6096 4.94004 3
-3 -4 -1 439.376 11.916 3
3 4 1 427.465 11.3114 1
3 4 1 438.407 13.9782 2
-4 -4 -1 1200.4 23.3798 3
4 4 1 1236.11 24.4599 2
4 4 1 1194.5 22.4372 1
-5 -4 -1 365.036 13.4071 3
5 4 1 384.071 13.068 1
5 4 1 378.018 12.4972 2
-6 -4 -1 105.403 9.56062 3
6 4 1 113.315 9.53444 1
6 4 1 111.873 7.87363 2
-7 -4 -1 107.847 10.663 3
7 4 1 108.345 10.3664 1
-8 -4 -1 -1.4117 6.14586 3
8 4 1 -0.1955 5.47401 1
-9 -4 -1 274.541 17.9864 3
9 4 1 268.937 17.0886 1
-10 -4 -1 544.759 24.4661 3
10 4 1 516.264 24.0227 1
7 -5 -1 120.508 12.0518 1
-7 5 1 156.402 16.6612 3
6 -5 -1 374.397 17.052 1
-6 5 1 375.412 20.912 3
-6 5 1 353.964 16.3133 1
-6 5 1 337.919 19.4757 2
5 -5 -1 552.206 17.685 1
-5 5 1 555.782 22.8223 3
-5 5 1 518.096 17.6253 1
-5 5 1 571.152 22.1891 2
4 -5 -1 362.586 13.4311 1
-4 5 1 369.703 18.1053 3
-4 5 1 360.318 13.707 1
-4 5 1 398.796 18.7813 2
3 -5 -1 330.64 11.7488 1
-3 5 1 372.176 17.3416 2
-3 5 1 292.544 15.4237 3
-3 5 1 335.795 11.9697 1
-2 5 1 386.267 11.5346 1
-2 5 1 406.657 15.4899 3
-2 5 1 398.517 17.4554 2
-1 5 1 8.65593 5.06803 3
-1 5 1 2.67815 3.32188 1
-1 5 1 -3.7041 5.86423 2
0 5 1 524.982 18.7939 2
0 5 1 573.456 15.4092 3
0 5 1 562.613 11.9893 1
-1 -5 -1 88.7002 6.89143 3
1 5 1 81.8639 9.38784 2
1 5 1 85.5079 7.02718 3
1 5 1 85.1641 5.60395 1
-2 -5 -1 28.5101 4.54615 3
2 5 1 24.8179 4.43966 3
2 5 1 28.3364 3.8738 1
2 5 1 26.0255 6.90261 2
-3 -5 -1 863.941 18.3867 3
3 5 1 919.194 23.0599 2
3 5 1 858.584 17.1296 1
-4 -5 -1 119.211 7.9319 3
4 5 1 123.892 7.92153 1
4 5 1 117.282 9.92536 2
-5 -5 -1 -3.5611 4.27146 3
5 5 1 9.99673 5.3643 2
5 5 1 -2.684 3.76763 1
-6 -5 -1 507.56 17.4375 3
6 5 1 504.445 17.0888 1
6 5 1 520.199 16.7587 2
-7 -5 -1 206.74 13.5749 3
7 5 1 221.908 13.2163 1
-8 -5 -1 73.2161 10.2037 3
8 5 1 51.9634 8.57429 1
-9 -5 -1 4.22921 7.28912 3
9 5 1 -2.0593 6.96475 1
-10 -5 -1 25.0584 9.83568 3
10 5 1 42.5365 10.4507 1
-7 6 1 13.5922 11.9807 3
-6 6 1 4.2336 10.251 3
-6 6 1 -3.4241 9.60628 2
5 -6 -1 39.5514 8.24139 1
-5 6 1 19.7629 7.02978 1
-5 6 1 12.4726 10.0808 2
-5 6 1 20.5301 9.70559 3
4 -6 -1 448.185 15.491 1
-4 6 1 393.951 21.0243 2
-4 6 1 373.98 15.096 1
-4 6 1 383.198 19.6201 3
-3 6 1 519.854 22.2848 2
-3 6 1 506.948 15.523 1
-3 6 1 534.689 20.481 3
-2 6 1 511.566 14.202 1
-2 6 1 521.073 21.9404 2
-2 6 1 500.353 18.2913 3
-1 6 1 467.902 20.5037 2
-1 6 1 458.895 12.5754 1
-1 6 1 463.913 16.6682 3
0 6 1 71.9209 6.00158 1
0 6 1 67.9507 7.93472 3
0 6 1 56.1776 9.76098 2
1 6 1 66.6712 9.94149 2
1 6 1 82.1634 7.68803 3
1 6 1 70.3735 5.79448 1
-2 -6 -1 551.827 14.8712 3
2 6 1 568.886 20.4897 2
2 6 1 526.278 12.9663 1
2 6 1 570.188 15.1704 3
-3 -6 -1 964.818 20.4531 3
3 6 1 972.095 20.5124 3
3 6 1 963.17 19.023 1
3 6 1 966.194 26.7156 2
-4 -6 -1 1092.89 22.6886 3
4 6 1 991.128 21.1865 1
4 6 1 1113.22 27.7969 2
-5 -6 -1 764.902 19.9008 3
5 6 1 762.675 19.3045 1
5 6 1 781.961 22.8997 2
-6 -6 -1 9.26194 5.90123 3
6 6 1 15.1069 6.95678 2
6 6 1 14.6832 5.55258 1
-7 -6 -1 106.378 11.0239 3
7 6 1 101.839 10.5024 1
-8 -6 -1 30.0564 8.80997 3
8 6 1 29.7066 7.70633 1
-9 -6 -1 41.715 10.2579 3
9 6 1 46.2739 9.72132 1
-6 7 1 -6.1585 10.4222 2
-6 7 1 16.0355 11.6449 3
-5 7 1 44.6791 12.2601 3
-5 7 1 18.9864 12.2532 2
-4 7 1 0.30284 10.3675 2
-4 7 1 9.78501 9.01542 3
-3 7 1 153.048 14.2306 3
-3 7 1 133.262 15.6785 2
-2 7 1 91.2837 11.322 3
-2 7 1 130.508 9.82228 1
-2 7 1 100.632 13.7644 2
-1 7 1 -13.191 7.42444 2
-1 7 1 4.66589 4.69986 1
-1 7 1 0.96018 6.33469 3
0 7 1 38.9414 5.745 1
0 7 1 36.2557 7.3376 3
0 7 1 41.6498 10.2102 2
1 7 1 24.2434 8.86144 2
1 7 1 3.75617 5.53517 3
1 7 1 20.5525 4.57731 1
-2 -7 -1 166.197 10.303 3
2 7 1 150.187 9.79369 3
2 7 1 167.019 8.79933 1
2 7 1 153.796 14.1394 2
-3 -7 -1 46.7306 6.53207 3
3 7 1 50.0774 5.80974 1
3 7 1 53.7533 10.1012 2
3 7 1 51.4321 6.86212 3
-4 -7 -1 833.004 20.424 3
4 7 1 853.1 26.7771 2
4 7 1 833.909 20.3859 3
4 7 1 856.922 19.592 1
-5 -7 -1 83.8853 8.7175 3
5 7 1 87.9622 11.3523 2
5 7 1 99.2861 8.81932 1
-6 -7 -1 117.558 10.6487 3
6 7 1 102.191 12.2401 2
6 7 1 112.469 10.1341 1
-7 -7 -1 339.775 16.457 3
7 7 1 374.757 17.0381 1
-8 -7 -1 37.8312 8.9165 3
8 7 1 27.5817 8.17031 1
-9 -7 -1 40.7232 10.4835 3
9 7 1 19.9517 8.70652 1
-5 8 1 37.1442 13.9647 2
-5 8 1 13.7553 12.1838 3
-4 8 1 146.366 16.112 3
-4 8 1 181.012 19.787 2
-3 8 1 295.971 19.1372 3
-3 8 1 306.27 23.2347 2
-2 8 1 439.644 20.1343 3
-2 8 1 443.587 25.4585 2
-1 8 1 114.835 12.1317 3
-1 8 1 112.915 15.6721 2
0 8 1 53.671 7.21067 1
0 8 1 52.9739 11.9876 2
0 8 1 48.1099 8.89612 3
1 8 1 205.053 12.6743 3
1 8 1 188.696 17.6012 2
1 8 1 205.004 10.2905 1
2 8 1 69.5707 8.3985 3
2 8 1 70.5448 7.32673 1
2 8 1 78.7821 12.9201 2
-3 -8 -1 15.1535 5.89101 3
3 8 1 9.9338 5.67471 3
3 8 1 13.6497 8.96735 2
3 8 1 13.2043 5.03278 1
-4 -8 -1 -2.8006 4.99302 3
4 8 1 3.48056 8.55961 2
4 8 1 8.46659 5.17602 3
4 8 1 7.73548 4.69689 1
-5 -8 -1 -0.7845 5.44848 3
5 8 1 6.90197 5.30298 3
5 8 1 9.25032 8.34763 2
5 8 1 9.10244 5.73852 1
-6 -8 -1 276.867 14.5156 3
6 8 1 290.723 14.9514 1
6 8 1 322.322 19.4363 2
-7 -8 -1 -4.2021 6.21227 3
7 8 1 23.0858 7.93967 1
-8 -8 -1 52.0102 10.2388 3
8 8 1 56.2499 10.0156 1
-3 9 1 112.586 18.4733 2
-2 9 1 83.8493 12.6548 3
-2 9 1 105.729 17.4337 2
-1 9 1 18.5673 9.16857 3
-1 9 1 6.74074 12.0194 2
0 9 1 110.429 16.5317 2
0 9 1 87.0116 11.2467 3
1 9 1 118.469 16.2424 2
1 9 1 82.7752 10.5095 3
2 9 1 83.7363 10.2775 3
2 9 1 85.2781 14.114 2
3 9 1 100.933 9.19343 1
3 9 1 75.7784 13.6587 2
3 9 1 87.7018 9.74606 3
-4 -9 -1 -5.4887 5.84259 3
4 9 1 2.90175 5.66666 3
4 9 1 1.84054 9.08346 2
4 9 1 -4.3691 4.82969 1
-5 -9 -1 135.997 12.0155 3
5 9 1 157.127 11.6704 1
5 9 1 124.491 15.4169 2
5 9 1 133.14 11.2213 3
-6 -9 -1 -3.5388 6.07888 3
6 9 1 0.4077 9.25274 2
6 9 1 1.44543 5.96342 1
6 9 1 5.36192 6.14672 3
-7 -9 -1 173.675 14.6357 3
7 9 1 193.989 14.24 1
7 9 1 215.948 14.2012 3
-1 10 1 1.56304 14.1416 2
0 10 1 6.44841 13.1535 2
1 10 1 2.14551 12.1835 2
2 10 1 103.416 16.7866 2
3 10 1 34.3723 12.6176 2
4 10 1 -9.4066 8.5027 2
5 10 1 -0.8859 9.72539 2
5 10 1 2.06827 5.85265 1
5 10 -2 8.26742 11.2255 2
5 10 -2 9.55008 7.27292 1
4 10 -2 156.31 18.3545 2
4 10 -2 221.994 14.8487 1
3 10 -2 -2.5007 6.33907 1
3 10 -2 17.6785 11.829 2
2 10 -2 121.749 18.1283 2
2 10 -2 139.852 12.3324 1
1 10 -2 177.4 14.1505 1
1 10 -2 176.47 21.0293 2
0 10 -2 134.544 20.4436 2
0 10 -2 115.074 12.1958 1
-1 10 -2 91.3149 12.2113 1
-1 10 -2 92.2334 18.5935 2
7 9 -2 3.01802 7.2334 1
6 9 -2 51.6843 13.4874 2
6 9 -2 71.5916 10.3052 1
5 9 -2 6.95494 6.96371 1
5 9 -2 16.9893 10.4587 2
4 9 -2 75.0924 9.63707 1
4 9 -2 76.2779 14.0767 2
3 9 -2 1.63464 5.59606 1
3 9 -2 12.5955 11.201 2
2 9 -2 5.50838 6.29265 1
2 9 -2 12.9813 11.3426 2
1 9 -2 11.2129 6.73039 1
1 9 -2 6.57719 11.0909 2
0 9 -2 5.63859 11.6555 2
0 9 -2 11.4394 6.86668 1
-1 9 -2 68.1251 9.78971 1
-1 9 -2 54.2628 14.8664 2
-2 9 -2 175.14 14.3839 1
-2 9 -2 175.179 20.8241 2
-3 9 -2 187.639 15.56 1
-3 9 -2 175.869 21.6438 2
8 8 -2 53.3891 10.5564 1
7 8 -2 127.828 12.4263 1
6 8 -2 169.23 16.6388 2
6 8 -2 159.63 13.1833 1
5 8 -2 25.7978 10.2616 2
5 8 -2 17.3896 6.83144 1
4 8 -2 142.301 15.5992 2
4 8 -2 192.016 12.4423 1
3 8 -2 100.62 14.1076 2
3 8 -2 115.936 10.3475 1
2 8 -2 12.6765 5.8072 1
2 8 -2 12.2355 9.48759 2
1 8 -2 13.6567 6.15479 1
1 8 -2 2.64835 9.40227 2
0 8 -2 42.0021 7.71041 1
0 8 -2 43.2575 12.0024 2
-1 8 -2 -3.9677 10.4191 2
-1 8 -2 15.7345 6.97177 1
-2 8 -2 26.1374 12.7234 2
-2 8 -2 53.7468 9.24897 1
-3 8 -2 34.491 13.2385 2
-3 8 -2 33.9358 8.8618 1
-4 8 -2 79.0853 11.4587 1
-4 8 -2 62.9349 15.4927 2
-5 8 -2 169.716 15.8302 1
-5 8 -2 166.028 20.3186 2
5 -8 2 143.899 14.2215 1
8 7 -2 13.1158 7.71675 1
-8 -7 2 8.036 6.94736 3
7 7 -2 17.4167 7.34377 1
-7 -7 2 0.22718 5.94383 3
6 7 -2 3.70736 5.77889 1
6 7 -2 -3.0285 8.28121 2
-6 -7 2 -1.3672 5.01227 3
5 7 -2 168.148 11.7365 1
5 7 -2 157.65 14.6567 2
4 7 -2 925.475 29.722 2
4 7 -2 885.199 22.2599 1
3 7 -2 511.445 15.9326 1
3 7 -2 454.666 21.9796 2
2 7 -2 454.688 22.1318 2
2 7 -2 460.57 15.2428 1
1 7 -2 134.611 9.87728 1
1 7 -2 130.524 14.4 2
0 7 -2 18.8015 9.86137 2
0 7 -2 16.4004 5.55659 1
-1 7 -2 59.0006 12.1306 2
-1 7 -2 62.2135 7.87858 1
-2 7 -2 10.4932 6.45175 1
-2 7 -2 1.1745 9.5644 2
-3 7 -2 249.517 20.6416 2
-3 7 -2 239.639 14.2819 1
-4 7 -2 116.096 11.902 1
-4 7 -2 131.666 16.282 2
-5 7 -2 59.0142 10.7257 1
-5 7 -2 59.865 14.2026 2
5 -7 2 53.0516 10.1473 1
-6 7 -2 7.77155 12.6205 2
-6 7 -2 -11.285 7.91306 1
6 -7 2 1.89762 8.49469 1
9 6 -2 -1.0491 7.19602 1
-9 -6 2 2.68093 7.70001 3
8 6 -2 10.9066 7.30461 1
-8 -6 2 -3.667 6.74217 3
7 6 -2 4.20332 6.21828 1
-7 -6 2 8.95956 6.20542 3
6 6 -2 11.6248 7.90633 2
6 6 -2 -6.6916 4.99802 1
-6 -6 2 -3.4166 4.78454 3
5 6 -2 394.426 18.6195 2
5 6 -2 408.469 15.5039 1
-5 -6 2 386.761 13.4944 3
4 6 -2 196.616 10.8307 1
4 6 -2 197.883 14.7661 2
-4 -6 2 207.879 8.88623 3
3 6 -2 -0.4086 6.84637 2
3 6 -2 3.0287 4.12897 1
-3 -6 2 2.31861 3.06185 3
2 6 -2 18.3925 3.53696 3
2 6 -2 16.3448 7.72929 2
2 6 -2 23.6529 5.12994 1
-2 -6 2 16.0499 3.53113 3
1 6 -2 74.4317 10.6157 2
1 6 -2 58.5497 6.52631 1
1 6 -2 75.2859 5.79484 3
0 6 -2 -4.0036 7.11329 2
0 6 -2 -2.5745 3.69347 3
0 6 -2 -1.143 3.90988 1
-1 6 -2 31.6971 9.37402 2
-1 6 -2 32.5805 5.88303 1
-1 6 -2 39.1073 5.54974 3
-2 6 -2 160.763 10.1148 3
-2 6 -2 159.442 10.3529 1
-2 6 -2 152.318 14.4519 2
-3 6 -2 -0.4759 5.28634 1
-3 6 -2 -3.9198 8.29441 2
-3 6 -2 -9.018 5.53946 3
-4 6 -2 64.9595 9.57765 3
-4 6 -2 71.3297 9.69334 1
-4 6 -2 64.9397 11.5779 2
-5 6 -2 347.722 17.694 1
-5 6 -2 385.97 21.5479 2
-5 6 -2 342.202 18.1293 3
5 -6 2 318.192 16.9686 1
-6 6 -2 24.2857 10.1402 3
-6 6 -2 9.88595 8.52337 1
-6 6 -2 9.56205 10.8537 2
6 -6 2 24.352 8.67896 1
-7 6 -2 1.00438 8.45844 1
-7 6 -2 -7.5352 9.82932 3
7 -6 2 -4.583 8.30293 1
9 5 -2 130.744 13.6949 1
-9 -5 2 112.682 13.4318 3
8 5 -2 253.003 15.9156 1
-8 -5 2 249.902 15.7092 3
7 5 -2 52.6749 8.77855 1
-7 -5 2 68.7411 9.18394 3
6 5 -2 115.807 11.2165 2
6 5 -2 94.5274 9.49558 1
-6 -5 2 115.999 9.80661 3
5 5 -2 20.5812 5.73356 1
5 5 -2 34.4339 7.7329 2
-5 -5 2 19.5798 5.44611 3
4 5 -2 423.711 14.0159 1
4 5 -2 419.869 17.4135 2
-4 -5 2 445.537 12.6318 3
3 5 -2 375.676 12.1806 1
3 5 -2 375.994 16.1307 2
-3 -5 2 380.846 9.94283 3
2 5 -2 250.692 9.90627 1
2 5 -2 243.57 14.0775 2
2 5 -2 237.524 7.03671 3
-2 -5 2 246.008 7.17278 3
1 5 -2 61.9096 4.6235 3
1 5 -2 51.3176 8.76839 2
1 5 -2 60.3317 6.01518 1
0 5 -2 1.22305 6.37334 2
0 5 -2 11.0362 4.12054 1
0 5 -2 7.86987 3.22699 3
-1 5 -2 47.7227 8.90231 2
-1 5 -2 38.6082 5.71754 1
-1 5 -2 34.2034 4.84833 3
-2 5 -2 477.594 19.2551 2
-2 5 -2 512.688 15.0514 1
-2 5 -2 502.299 14.0219 3
-3 5 -2 28.8495 8.05886 2
-3 5 -2 24.6518 5.92991 1
-3 5 -2 25.3854 6.40843 3
-4 5 -2 165.451 12.3083 3
-4 5 -2 177.09 14.3962 2
-4 5 -2 156.355 11.3843 1
-5 5 -2 33.6049 9.33855 2
-5 5 -2 46.5069 9.47754 3
-5 5 -2 60.7711 9.16563 1
5 -5 2 38.2871 8.1324 1
-6 5 -2 43.5355 10.3644 2
-6 5 -2 38.3149 9.15755 1
-6 5 -2 41.495 10.0178 3
6 -5 2 32.0628 9.08312 1
-7 5 -2 68.8637 11.1925 1
-7 5 -2 69.8081 12.615 3
7 -5 2 72.1808 11.9764 1
-8 5 -2 46.8719 13.062 3
-8 5 -2 32.4076 10.6233 1
8 -5 2 77.7948 12.3698 1
10 4 -2 -4.3603 8.08712 1
-10 -4 2 -9.5617 7.6402 3
9 4 -2 163.532 14.7997 1
-9 -4 2 141.72 14.5451 3
8 4 -2 17.4334 7.38825 1
-8 -4 2 16.836 8.01818 3
7 4 -2 5.31973 5.58845 1
-7 -4 2 1.88007 5.91679 3
6 4 -2 22.3735 6.75836 2
6 4 -2 32.1204 6.82013 1
-6 -4 2 44.4353 7.23513 3
5 4 -2 55.6157 6.88673 1
5 4 -2 54.3289 7.58567 2
-5 -4 2 59.5581 6.90165 3
4 4 -2 -2.2659 4.68975 2
4 4 -2 7.2774 4.24405 1
-4 -4 2 3.00102 3.5883 3
3 4 -2 197.118 11.3297 2
3 4 -2 180.122 8.74899 1
-3 -4 2 188.82 7.46842 3
2 4 -2 113.005 7.03604 1
2 4 -2 105.832 9.38546 2
-2 -4 2 103.858 4.75211 3
1 4 -2 16.1265 2.54575 3
1 4 -2 24.7604 6.26527 2
1 4 -2 15.7649 3.75967 1
-1 -4 2 18.5521 2.54273 3
0 4 -2 6.01735 2.62379 3
0 4 -2 8.16891 3.44692 1
0 4 -2 3.98603 5.37639 2
-1 4 -2 4370.34 67.1642 2
-1 4 -2 4347.97 56.2687 1
-1 4 -2 4314.14 54.1814 3
-2 4 -2 3135.56 52.5463 2
-2 4 -2 3090.06 43.3912 3
-2 4 -2 3160.84 44.4356 1
-3 4 -2 127.468 10.8952 2
-3 4 -2 114.971 8.78128 1
-3 4 -2 143.395 9.48535 3
-4 4 -2 14.0454 6.66541 2
-4 4 -2 12.9173 6.00711 3
-4 4 -2 15.4484 5.39233 1
-5 4 -2 0.72292 6.75119 2
-5 4 -2 2.82491 5.7464 1
-5 4 -2 5.9175 6.84464 3
5 -4 2 -2.0654 5.31957 1
-6 4 -2 15.7015 7.49779 2
-6 4 -2 -1.3428 6.5384 1
-6 4 -2 3.0673 7.18274 3
6 -4 2 -2.3916 6.13679 1
-7 4 -2 91.4268 12.9436 3
-7 4 -2 108.414 12.6458 1
7 -4 2 111.001 12.3335 1
-8 4 -2 22.6622 10.2125 1
-8 4 -2 9.01922 10.2337 3
8 -4 2 38.6529 10.1235 1
10 3 -2 -10.585 7.4644 1
-10 -3 2 9.70416 9.30823 3
9 3 -2 62.8344 10.4128 1
-9 -3 2 59.6992 11.1691 3
8 3 -2 216.308 14.2396 1
-8 -3 2 207.419 15.6172 3
7 3 -2 26.3349 6.68347 1
-7 -3 2 20.3766 7.19892 3
6 3 -2 59.6691 7.1028 2
6 3 -2 60.3916 7.70395 1
-6 -3 2 47.0323 7.59448 3
5 3 -2 377.056 13.3264 2
5 3 -2 374.809 13.3799 1
-5 -3 2 374.071 13.6991 3
4 3 -2 51.7805 6.68138 2
4 3 -2 43.15 5.57499 1
-4 -3 2 48.3144 6.02955 3
3 3 -2 1014.71 19.3246 1
3 3 -2 1032.19 22.4016 2
-3 -3 2 1029.07 18.6725 3
2 3 -2 -0.4505 2.64297 1
2 3 -2 1.94683 4.71131 2
-2 -3 2 0.05235 2.33939 3
1 3 -2 132.358 6.38247 1
1 3 -2 117.352 8.92209 2
-1 -3 2 122.979 3.62235 3
0 3 -2 31.7487 4.03303 1
0 3 -2 29.4096 2.40217 3
0 3 -2 35.7423 6.21837 2
-1 3 -2 143.114 7.05449 1
-1 3 -2 133.159 9.69134 2
-1 3 -2 158.97 5.86776 3
-2 3 -2 135.221 9.52124 2
-2 3 -2 125.816 7.48556 1
-2 3 -2 137.218 7.13315 3
-3 3 -2 1358.03 24.7512 3
-3 3 -2 1377.47 25.101 1
-3 3 -2 1352.11 27.6862 2
-4 3 -2 69.0181 8.00026 3
-4 3 -2 74.199 8.05236 2
-4 3 -2 67.845 7.47594 1
-5 3 -2 18.7438 6.1707 1
-5 3 -2 10.2293 6.29007 3
-5 3 -2 8.31488 5.62647 2
5 -3 2 5.64551 5.57432 1
-6 3 -2 21.3102 7.96681 3
-6 3 -2 17.6877 6.84906 1
-6 3 -2 20.2617 6.55443 2
6 -3 2 7.5306 6.26114 1
-7 3 -2 18.7561 8.48172 3
-7 3 -2 9.46122 7.69343 1
7 -3 2 1.17933 6.89952 1
-8 3 -2 227.486 17.772 3
-8 3 -2 184.673 15.8959 1
8 -3 2 247.717 16.8737 1
-9 3 -2 350.464 21.8099 3
9 -3 2 369.793 20.6805 1
10 2 -2 11.3898 9.10308 1
-10 -2 2 13.7035 9.90036 3
9 2 -2 -4.4688 6.81219 1
-9 -2 2 9.05625 8.2537 3
8 2 -2 87.1644 10.6432 1
-8 -2 2 71.6989 11.0054 3
7 2 -2 310.405 14.816 1
-7 -2 2 335.844 17.1164 3
6 2 -2 797.556 20.606 1
6 2 -2 779.604 17.4728 2
-6 -2 2 802.994 17.7447 2
-6 -2 2 793.597 22.656 3
5 2 -2 1538.76 28.084 1
5 2 -2 1497.66 27.2815 2
-5 -2 2 1530.51 29.7823 3
4 2 -2 1.78886 4.05732 2
4 2 -2 2.77656 3.57414 1
-4 -2 2 7.62614 4.66862 3
3 2 -2 10.789 3.6513 1
3 2 -2 14.057 4.50884 2
-3 -2 2 10.3586 3.69655 3
2 2 -2 280.484 8.44193 1
2 2 -2 297.666 11.1147 2
-2 -2 2 299.921 8.19148 3
1 2 -2 31.1082 3.63559 1
1 2 -2 29.0336 5.41983 2
-1 -2 2 29.5432 2.46064 3
0 2 -2 83.7998 7.111 2
0 2 -2 74.1653 5.01855 1
-1 2 -2 9127.63 104.228 3
-1 2 -2 9173.07 104.463 1
-1 2 -2 9217.26 118.91 2
-2 2 -2 877.219 16.6698 1
-2 2 -2 879.42 15.8472 3
-2 2 -2 889.87 18.8763 2
-3 2 -2 233.91 9.48255 3
-3 2 -2 250.096 10.1271 2
-3 2 -2 238.224 9.50427 1
-4 2 -2 41.5317 6.46294 3
-4 2 -2 31.0293 5.62175 1
-4 2 -2 48.446 5.98398 2
4 -2 2 37.0679 5.86617 1
-5 2 -2 7.58086 4.66852 2
-5 2 -2 2.4819 4.82662 1
-5 2 -2 0.98561 5.25894 3
5 -2 2 -5.3143 4.5437 1
-6 2 -2 -2.6788 5.26075 1
-6 2 -2 6.36046 6.71359 3
6 -2 2 0.41583 5.50082 1
-7 2 -2 -6.8187 5.80566 1
-7 2 -2 2.51573 7.08921 3
7 -2 2 -9.5193 5.84453 1
-8 2 -2 137.175 14.2903 3
8 -2 2 179.057 14.6128 1
-9 2 -2 254.842 20.0374 3
9 -2 2 212.198 17.3599 1
10 1 -2 0.95523 8.16353 1
-10 -1 2 13.4897 10.3075 3
9 1 -2 21.0824 8.03844 1
-9 -1 2 33.3469 10.6509 3
8 1 -2 135.565 12.3812 1
-8 -1 2 131.131 13.7634 3
7 1 -2 -0.186 5.41697 1
-7 -1 2 2.2145 6.75965 3
6 1 -2 636.705 18.21 1
-6 -1 2 633.304 20.5554 3
-6 -1 2 621.24 14.8368 2
5 1 -2 561.748 15.5144 1
5 1 -2 557.8 14.15 2
-5 -1 2 569.393 14.1743 2
-5 -1 2 588.795 18.0882 3
4 1 -2 1075.52 21.1325 2
4 1 -2 1125.47 20.9549 1
-4 -1 2 1128.71 23.492 3
3 1 -2 5172.5 63.8959 1
3 1 -2 5274.05 71.1245 2
-3 -1 2 5230.92 67.2068 3
2 1 -2 1092.74 20.6825 2
2 1 -2 1101.59 17.3616 1
-2 -1 2 1089.5 18.4027 3
1 1 -2 2143.17 26.6755 1
1 1 -2 2078.21 32.3493 2
-1 -1 2 2008.65 26.5685 3
0 1 -2 1718.54 27.6998 2
0 1 -2 1734.01 22.4421 1
0 -1 2 1742 20.5326 3
-1 1 -2 9653.06 106.568 1
-1 1 -2 9520.58 107.412 3
-1 1 -2 9361.05 120.259 2
-2 1 -2 919.803 16.3026 1
-2 1 -2 914.038 17.2626 2
-2 1 -2 915.694 15.6572 3
-3 1 -2 2582.43 36.3519 1
-3 1 -2 2541.9 37.0834 2
-3 1 -2 2485.06 36.6171 3
3 -1 2 2527.09 36.2838 1
-4 1 -2 373.739 12.8262 3
-4 1 -2 337.501 11.8483 1
-4 1 -2 357.972 10.0933 2
4 -1 2 345.364 11.915 1
-5 1 -2 109.218 6.39548 2
-5 1 -2 131.692 9.40033 1
-5 1 -2 127.845 9.96168 3
5 -1 2 123.987 9.40981 1
-6 1 -2 17.9523 6.47042 3
-6 1 -2 10.084 5.75044 1
6 -1 2 3.30146 5.2721 1
-7 1 -2 9.65393 7.22668 3
7 -1 2 6.96472 6.17996 1
-8 1 -2 27.1863 8.63078 3
8 -1 2 20.7737 7.66451 1
-9 1 -2 26.7578 10.1541 3
9 -1 2 24.718 9.29054 1
-10 1 -2 10.2369 10.3939 3
10 -1 2 4.15387 9.11182 1
9 0 -2 -5.3084 7.22361 1
-9 0 2 -7.9971 8.43723 3
8 0 -2 66.6348 9.66794 1
-8 0 2 62.7728 11.3711 3
7 0 -2 21.7129 6.45005 1
-7 0 2 24.9089 8.2893 3
6 0 -2 21.5266 5.80819 1
-6 0 2 25.3457 7.80473 3
-6 0 2 18.7468 4.40273 2
5 0 -2 143.713 8.80738 1
-5 0 2 146.447 10.9545 3
-5 0 2 143.696 8.07733 2
4 0 -2 887.867 18.2197 2
4 0 -2 833.722 17.4156 1
-4 0 2 872.366 18.2308 2
-4 0 2 834.329 20.5151 3
3 0 -2 255.902 9.31671 2
3 0 -2 246.133 8.31716 1
-3 0 2 246.586 10.2058 3
-3 0 2 241.407 9.40752 2
2 0 -2 3.36539 2.43761 1
2 0 -2 2.9864 3.76471 2
-2 0 2 -0.6435 3.66884 2
-2 0 2 1.34567 3.73825 3
1 0 -2 448.677 11.8061 2
1 0 -2 462.617 8.10519 1
-1 0 2 454.453 10.0772 3
0 0 -2 498.509 7.75257 1
0 0 -2 492.676 8.67099 3
0 0 -2 495.514 11.8435 2
0 0 2 493.307 8.70416 3
-1 0 -2 1111.75 15.8354 3
-1 0 -2 1118.1 15.6419 1
-1 0 -2 1098.69 18.7895 2
-2 0 -2 719.437 13.5562 2
-2 0 -2 698.399 13.0194 3
-2 0 -2 721.562 13.1832 1
2 0 2 684.698 13.0931 1
-3 0 -2 10.6599 3.91389 3
-3 0 -2 11.6869 3.07643 2
-3 0 -2 11.1176 3.8819 1
3 0 2 5.65368 3.54615 1
-4 0 -2 167.368 8.8881 1
-4 0 -2 170.331 8.94941 3
4 0 2 147.479 8.42365 1
-5 0 -2 832.183 19.68 1
-5 0 -2 842.354 20.7547 3
5 0 2 820.908 19.7327 1
-6 0 -2 186.754 12.1822 3
6 0 2 169.293 11.0838 1
-7 0 -2 184.125 13.0611 3
7 0 2 156.602 12.0253 1
-8 0 -2 -1.7395 6.99694 3
8 0 2 -4.0222 6.37769 1
-9 0 -2 8.82122 8.62206 3
9 0 2 -2.4393 7.35415 1
-10 0 -2 -8.9947 8.77133 3
10 0 2 2.72588 8.67141 1
9 -1 -2 186.252 15.4188 1
-9 1 2 146.049 16.7601 3
8 -1 -2 152.618 13.0948 1
-8 1 2 178.584 16.6286 3
7 -1 -2 18.327 6.46684 1
-7 1 2 19.3897 8.91089 3
6 -1 -2 620.242 18.0826 1
-6 1 2 645.136 16.7544 2
-6 1 2 620.724 21.5751 3
5 -1 -2 581.378 15.8853 1
-5 1 2 560.188 15.2343 2
-5 1 2 552.944 18.9168 3
4 -1 -2 436.751 12.1614 1
-4 1 2 453.356 15.7082 3
-4 1 2 441.074 13.1681 2
3 -1 -2 500.417 11.5466 1
-3 1 2 483.468 13.5237 2
-3 1 2 520.862 14.9883 3
2 -1 -2 3.49583 2.56228 1
-2 1 2 1.83412 3.85882 3
-2 1 2 0.81155 3.64177 2
1 -1 -2 1139.86 14.6418 1
1 -1 -2 1081.18 20.7415 2
-1 1 2 1165.59 19.4694 3
-1 1 2 1154.47 21.2033 2
0 -1 -2 3836.69 53.211 2
0 1 2 3848.01 53.3891 2
0 1 2 3908.21 47.7353 3
-1 -1 -2 2462.32 29.4906 1
-1 -1 -2 2432.12 35.5721 2
-1 -1 -2 2481.18 31.9759 3
1 1 2 2540.78 35.9496 2
1 1 2 2511.39 29.6081 1
-2 -1 -2 1048.15 17.535 2
-2 -1 -2 1086.57 16.7839 1
-2 -1 -2 1052.67 17.5625 3
2 1 2 1070.62 16.6003 1
2 1 2 1064.72 17.6909 2
-3 -1 -2 69.8675 5.88788 3
-3 -1 -2 60.8311 5.4907 1
3 1 2 55.0477 3.98375 2
3 1 2 69.174 5.59882 1
-4 -1 -2 253.255 10.3064 3
4 1 2 266.852 9.8196 1
-5 -1 -2 15.3879 5.46995 3
5 1 2 11.9719 4.36478 1
-6 -1 -2 303.074 14.1733 3
6 1 2 279.118 12.8425 1
-7 -1 -2 14.343 6.60955 3
7 1 2 19.0569 6.30363 1
-8 -1 -2 259.036 15.6305 3
8 1 2 244.449 15.04 1
-9 -1 -2 10.976 8.41646 3
9 1 2 -5.8523 6.38991 1
-10 -1 -2 7.51561 9.55427 3
10 1 2 14.0885 9.17067 1
9 -2 -2 159.407 14.6424 1
-9 2 2 129.797 16.8972 3
8 -2 -2 71.8765 10.1071 1
-8 2 2 55.2814 11.922 3
7 -2 -2 34.4107 7.67201 1
-7 2 2 25.181 9.45699 3
6 -2 -2 33.3328 6.79256 1
-6 2 2 30.775 8.68623 3
-6 2 2 23.4768 6.35144 2
5 -2 -2 24.9352 5.47999 1
-5 2 2 20.252 7.1907 3
-5 2 2 26.6961 6.17661 2
4 -2 -2 642.964 15.1603 1
-4 2 2 632.836 17.2593 2
-4 2 2 652.029 19.4612 3
3 -2 -2 452.444 10.9315 1
-3 2 2 454.182 15.1792 3
-3 2 2 431.308 13.8688 2
2 -2 -2 146.648 5.73331 1
-2 2 2 165.341 9.07298 3
-2 2 2 135.862 8.69981 2
1 -2 -2 433.658 7.36453 1
-1 2 2 425.586 12.7884 2
-1 2 2 438.135 7.40213 1
-1 2 2 427.819 11.9717 3
0 2 2 1318.07 21.4535 3
0 2 2 1372.36 24.5181 2
-1 -2 -2 6820.72 79.8846 3
1 2 2 6685.66 73.9793 1
1 2 2 6688.44 79.8567 3
1 2 2 6553.55 87.8002 2
-2 -2 -2 509.175 11.441 3
2 2 2 527.324 10.3144 1
2 2 2 493.507 11.9175 2
-3 -2 -2 799.229 16.3293 3
3 2 2 798.271 15.3949 1
3 2 2 796.446 14.9212 2
-4 -2 -2 3.86012 3.64504 3
4 2 2 4.83095 3.5391 1
4 2 2 1.90582 2.2444 2
-5 -2 -2 40.4197 6.25155 3
5 2 2 38.2406 5.86336 1
-6 -2 -2 356.732 14.4699 3
6 2 2 373.513 14.2951 1
-7 -2 -2 1424.53 32.1427 3
7 2 2 1478.98 31.3393 1
-8 -2 -2 0.52399 6.46193 3
8 2 2 26.3637 7.21439 1
-9 -2 -2 3.65196 7.24569 3
9 2 2 2.48464 6.52743 1
-10 -2 -2 5.73403 8.86363 3
10 2 2 19.8993 9.46382 1
8 -3 -2 25.4068 8.37788 1
-8 3 2 7.75212 10.7018 3
7 -3 -2 72.6904 9.3476 1
-7 3 2 73.5588 12.5096 3
6 -3 -2 18.8472 6.24556 1
-6 3 2 17.8042 8.78092 3
-6 3 2 2.10404 6.38779 2
5 -3 -2 1.09357 4.58455 1
-5 3 2 -2.9853 6.97802 3
-5 3 2 10.3602 6.34689 2
4 -3 -2 3.73111 3.79703 1
-4 3 2 -3.6156 5.69716 3
-4 3 2 -6.5498 5.04575 2
3 -3 -2 74.3723 5.70174 1
-3 3 2 72.7609 5.60285 1
-3 3 2 60.7372 7.7169 3
-3 3 2 75.1348 8.31008 2
2 -3 -2 475.042 10.3573 1
-2 3 2 483.255 10.3366 1
-2 3 2 459.384 14.943 3
-2 3 2 465.664 15.4888 2
-1 3 2 71.2347 7.40654 2
-1 3 2 72.3514 4.0357 1
-1 3 2 76.873 7.01842 3
0 3 2 12.9681 4.06457 3
0 3 2 -2.418 4.03181 2
0 3 2 1.74284 1.65528 1
-1 -3 -2 51.374 4.83236 3
1 3 2 47.7665 4.81897 3
1 3 2 50.603 3.26334 1
1 3 2 47.6568 5.99165 2
-2 -3 -2 2972.87 40.7676 3
2 3 2 2990.08 45.4304 2
2 3 2 2981.51 37.1965 1
-3 -3 -2 939.627 18.6843 3
3 3 2 975.227 19.3929 2
3 3 2 955.747 17.3182 1
-4 -3 -2 180.058 9.11719 3
4 3 2 175.161 8.28533 1
4 3 2 175.123 7.78999 2
-5 -3 -2 27.0192 5.65147 3
5 3 2 32.3441 4.40975 2
5 3 2 26.1742 5.26633 1
-6 -3 -2 18.8027 5.87133 3
6 3 2 22.3523 5.67703 1
-7 -3 -2 8.03675 5.78452 3
7 3 2 -1.3169 4.88035 1
-8 -3 -2 287.417 16.0222 3
8 3 2 274.95 15.4213 1
-9 -3 -2 537.515 22.4018 3
9 3 2 517.876 21.2881 1
-10 -3 -2 28.3585 9.88415 3
10 3 2 50.0841 10.7608 1
8 -4 -2 241.66 17.1935 1
-8 4 2 236.968 21.1334 3
7 -4 -2 664.63 21.2337 1
-7 4 2 608.053 26.6523 3
6 -4 -2 207.4 12.5098 1
-6 4 2 203.075 14.4489 2
-6 4 2 190.5 16.5173 3
5 -4 -2 62.127 7.56263 1
-5 4 2 71.5978 10.7437 3
-5 4 2 71.9899 10.1738 2
4 -4 -2 207.317 9.85244 1
-4 4 2 221.045 14.0216 2
-4 4 2 211.849 14.8378 3
-4 4 2 212.278 9.92671 1
3 -4 -2 137.005 7.56851 1
-3 4 2 155.808 12.1594 3
-3 4 2 135.486 11.3852 2
-3 4 2 146.458 7.58815 1
2 -4 -2 81.7998 5.50724 1
-2 4 2 93.4286 9.16152 3
-2 4 2 89.9275 9.4498 2
-2 4 2 86.1713 5.7833 1
-1 4 2 884.707 14.5016 1
-1 4 2 914.256 21.03 3
-1 4 2 906.272 23.5094 2
0 4 2 590.083 10.3105 1
0 4 2 605.152 18.5749 2
0 4 2 594.355 15.5878 3
-1 -4 -2 361.696 11.0686 3
1 4 2 354.366 14.1353 2
1 4 2 352.442 11.1782 3
1 4 2 348.638 7.68894 1
-2 -4 -2 134.391 7.22272 3
2 4 2 125.625 7.12024 3
2 4 2 122.36 5.45901 1
2 4 2 121.177 9.39269 2
-3 -4 -2 30.4553 4.88172 3
3 4 2 29.8497 4.01903 1
3 4 2 28.9026 5.54191 2
-4 -4 -2 489.449 14.307 3
4 4 2 459.87 14.3277 2
4 4 2 474.807 12.8999 1
-5 -4 -2 58.1704 6.9639 3
5 4 2 76.8464 7.25113 1
5 4 2 76.3265 7.06563 2
-6 -4 -2 141.799 10.9518 3
6 4 2 143.052 8.84233 2
6 4 2 156.571 10.305 1
-7 -4 -2 200.458 12.8764 3
7 4 2 204.929 12.6419 1
-8 -4 -2 228.657 14.7727 3
8 4 2 246.399 14.9577 1
-9 -4 -2 222.633 16.8416 3
9 4 2 222.049 15.8958 1
-10 -4 -2 198.397 17.4728 3
10 4 2 222.471 18.0082 1
-7 5 2 1.81942 10.9125 3
-6 5 2 260.169 17.8472 2
-6 5 2 269.823 20.3967 3
5 -5 -2 605.343 18.0993 1
-5 5 2 639.186 18.5378 1
-5 5 2 630.25 23.9376 2
-5 5 2 627.892 24.445 3
4 -5 -2 175.441 9.8949 1
-4 5 2 162.809 9.74751 1
-4 5 2 163.056 13.7685 3
-4 5 2 145.335 13.5461 2
3 -5 -2 464.946 12.9197 1
-3 5 2 409.526 17.9231 3
-3 5 2 451.272 19.7101 2
-3 5 2 417.172 12.6376 1
-2 5 2 99.6696 11.2252 2
-2 5 2 103.639 10.2661 3
-2 5 2 103.025 6.71425 1
-1 5 2 362.812 14.6707 3
-1 5 2 369.079 17.0761 2
-1 5 2 367.446 9.48169 1
0 5 2 752.79 19.2648 3
0 5 2 771.07 22.9012 2
0 5 2 764.139 13.5619 1
-1 -5 -2 2661.6 40.8061 3
1 5 2 2697.05 34.6693 1
1 5 2 2643.59 47.9712 2
1 5 2 2684.2 41.0081 3
-2 -5 -2 3478.69 49.8745 3
2 5 2 3533.04 44.6773 1
2 5 2 3571.8 50.2038 3
2 5 2 3595.81 58.6697 2
-3 -5 -2 651.732 16.3122 3
3 5 2 616.816 15.8723 3
3 5 2 633.792 13.8328 1
3 5 2 638.111 19.2958 2
-4 -5 -2 160.93 9.45251 3
4 5 2 176.758 8.54328 1
4 5 2 168.26 10.8431 2
-5 -5 -2 158.966 9.67432 3
5 5 2 152.825 9.13793 1
5 5 2 149.008 10.7344 2
-6 -5 -2 67.1178 8.58856 3
6 5 2 56.4896 7.23875 1
6 5 2 68.6506 7.91274 2
-7 -5 -2 11.4669 6.34751 3
7 5 2 12.9474 5.94194 1
-8 -5 -2 56.3686 9.5792 3
8 5 2 61.9514 9.52405 1
-9 -5 -2 -2.3658 7.22562 3
9 5 2 4.05305 7.02526 1
-10 -5 -2 -2.359 7.89487 3
10 5 2 -0.1312 7.87965 1
-6 6 2 20.27 11.5489 3
-6 6 2 27.7336 11.4363 2
-5 6 2 7.28313 9.86631 2
-5 6 2 27.8435 10.9084 3
-4 6 2 4.04019 8.48789 3
-4 6 2 4.18154 9.04925 2
-3 6 2 40.1723 9.14625 3
-3 6 2 19.8826 9.46431 2
-2 6 2 13.5333 8.04083 2
-2 6 2 20.4324 7.9588 3
-2 6 2 1.50165 4.17936 1
-1 6 2 316.122 15.2096 3
-1 6 2 353.664 10.3759 1
-1 6 2 349.013 18.6281 2
0 6 2 -2.3345 3.16868 1
0 6 2 -1.6954 5.44623 3
0 6 2 11.0116 7.3454 2
1 6 2 763.635 24.6894 2
1 6 2 753.573 14.807 1
1 6 2 768.928 19.7089 3
-2 -6 -2 805.597 19.3813 3
2 6 2 787.789 15.5003 1
2 6 2 811.509 24.608 2
2 6 2 787.415 19.5192 3
-3 -6 -2 575.059 16.0546 3
3 6 2 599.123 13.7405 1
3 6 2 583.043 20.6447 2
3 6 2 564.022 15.8868 3
-4 -6 -2 854.655 20.6979 3
4 6 2 811.248 18.127 1
4 6 2 856.395 24.3233 2
-5 -6 -2 767.725 20.5142 3
5 6 2 764.988 19.1721 1
5 6 2 791.964 23.3669 2
-6 -6 -2 712.263 20.9368 3
6 6 2 673.971 19.4547 1
6 6 2 709.659 21.6796 2
-7 -6 -2 20.274 7.30914 3
7 6 2 24.1498 7.10566 1
-8 -6 -2 11.3336 7.42672 3
8 6 2 34.6333 8.39369 1
-9 -6 -2 36.114 9.10177 3
9 6 2 28.5562 8.95893 1
-5 7 2 365.684 23.4856 3
-5 7 2 387.21 24.5573 2
-4 7 2 144.112 15.4133 3
-4 7 2 150.552 17.2228 2
-3 7 2 274.017 20.4445 2
-3 7 2 283.886 18.3249 3
-2 7 2 40.788 11.3845 2
-2 7 2 26.6132 9.22894 3
-1 7 2 228.304 14.7406 3
-1 7 2 258.336 18.8294 2
0 7 2 53.7272 11.0065 2
0 7 2 63.5982 6.37742 1
0 7 2 57.3318 9.03412 3
1 7 2 128.841 7.33658 1
1 7 2 105.069 9.94804 3
1 7 2 112.996 13.4719 2
-2 -7 -2 23.8928 6.20238 3
2 7 2 10.9949 8.44154 2
2 7 2 20.2859 4.5207 1
2 7 2 15.5887 5.94093 3
-3 -7 -2 131.29 10.1918 3
3 7 2 127.452 9.587 3
3 7 2 146.245 8.14866 1
3 7 2 131.957 12.9006 2
-4 -7 -2 102.688 9.44463 3
4 7 2 112.327 9.79405 3
4 7 2 94.8788 7.58563 1
4 7 2 103.884 11.8945 2
-5 -7 -2 259.496 13.2921 3
5 7 2 297.16 12.3127 1
5 7 2 291.466 16.9644 2
-6 -7 -2 216.198 13.0714 3
6 7 2 184.895 12.0403 1
6 7 2 191.981 15.1895 2
-7 -7 -2 29.6779 8.06879 3
7 7 2 29.3131 7.21398 1
-8 -7 -2 1.31414 6.90817 3
8 7 2 6.98598 6.21588 1
-9 -7 -2 50.5211 10.8791 3
9 7 2 72.8268 11.1441 1
-4 8 2 377.441 23.2045 3
-4 8 2 381.422 25.3543 2
-3 8 2 276.8 22.5534 2
-3 8 2 261.705 19.5135 3
-2 8 2 38.8795 10.6606 3
-2 8 2 59.5933 14.074 2
-1 8 2 496.166 21.3366 3
-1 8 2 513.438 26.1012 2
0 8 2 55.0918 12.6031 2
0 8 2 56.9629 9.90477 3
1 8 2 74.1766 13.0269 2
1 8 2 55.9755 9.28542 3
2 8 2 131.602 14.7723 2
2 8 2 114.129 10.6045 3
-3 -8 -2 63.3177 8.79145 3
3 8 2 72.0273 7.0842 1
3 8 2 57.7236 11.4047 2
3 8 2 75.3229 8.94031 3
-4 -8 -2 151.222 11.8561 3
4 8 2 153.83 9.64994 1
4 8 2 148.264 10.8641 3
4 8 2 148.697 14.9764 2
-5 -8 -2 648.308 20.5476 3
5 8 2 640.008 20.1864 3
5 8 2 670.415 26.0601 2
5 8 2 674.377 18.7084 1
-6 -8 -2 246.837 14.984 3
6 8 2 253.142 17.9851 2
6 8 2 203.839 12.8249 1
6 8 2 221.531 13.7436 3
-7 -8 -2 -4.4239 6.41175 3
7 8 2 3.35002 6.12484 1
-8 -8 -2 34.5277 9.45685 3
8 8 2 28.912 8.67195 1
-3 9 2 19.798 11.6663 3
-3 9 2 50.6145 16.3602 2
-2 9 2 316.273 25.395 2
-2 9 2 324.185 20.9363 3
-1 9 2 41.2509 10.9888 3
-1 9 2 36.86 13.9495 2
0 9 2 12.1719 8.56827 3
0 9 2 -13.392 10.1823 2
1 9 2 29.7481 12.2503 2
1 9 2 43.9791 9.58053 3
2 9 2 -1.656 9.34585 2
2 9 2 -0.7163 6.3806 3
3 9 2 17.1359 7.44788 3
3 9 2 29.3112 11.2919 2
-4 -9 -2 261.06 15.4043 3
4 9 2 282.878 20.5467 2
4 9 2 275.552 14.7733 3
-5 -9 -2 176.145 13.6392 3
5 9 2 146.224 12.1322 3
5 9 2 169.694 11.526 1
5 9 2 126.391 15.346 2
-6 -9 -2 28.8973 8.32716 3
6 9 2 20.8923 7.13006 1
6 9 2 38.4554 8.38149 3
6 9 2 20.05 9.92164 2
-7 -9 -2 360.414 19.4723 3
7 9 2 383.264 18.827 3
7 9 2 372.156 17.7775 1
-1 10 2 -11.838 13.5199 2
0 10 2 43.6383 15.6787 2
1 10 2 -3.657 12.1305 2
2 10 2 -0.1587 11.0198 2
3 10 2 18.883 11.0808 2
4 10 2 10.5661 10.0775 2
5 10 2 -5.9069 9.01662 2
4 10 -3 2.81942 10.6303 2
4 10 -3 18.3725 7.93559 1
3 10 -3 117.846 17.4657 2
3 10 -3 128.314 12.7051 1
2 10 -3 112.119 12.0245 1
2 10 -3 84.4839 16.7421 2
1 10 -3 221.328 22.825 2
1 10 -3 256.591 16.2728 1
0 10 -3 134.497 20.5215 2
0 10 -3 151.348 13.7962 1
-1 10 -3 31.8366 9.57548 1
-1 10 -3 18.0119 15.2823 2
6 9 -3 19.9524 12.1508 2
6 9 -3 21.1627 8.60007 1
5 9 -3 4.61678 6.87486 1
5 9 -3 8.73273 10.5069 2
4 9 -3 35.5559 12.0508 2
4 9 -3 50.262 9.07941 1
3 9 -3 4.19276 6.22707 1
3 9 -3 1.80547 10.0554 2
2 9 -3 23.3742 7.6502 1
2 9 -3 -7.3843 9.99222 2
1 9 -3 27.0275 7.94725 1
1 9 -3 1.9758 11.5718 2
0 9 -3 17.0225 7.59982 1
0 9 -3 2.11176 12.2333 2
-1 9 -3 7.44791 13.5608 2
-1 9 -3 48.6727 9.30039 1
-2 9 -3 164.493 21.0093 2
-2 9 -3 192.005 15.6136 1
-3 9 -3 413.127 20.7095 1
-3 9 -3 417.939 29.2653 2
7 8 -3 307.151 17.6917 1
6 8 -3 160.781 13.7519 1
6 8 -3 132.45 15.9066 2
5 8 -3 334.646 22.1004 2
5 8 -3 355.165 16.5812 1
4 8 -3 72.4466 13.0391 2
4 8 -3 50.6004 8.3181 1
3 8 -3 10.3535 9.94887 2
3 8 -3 -5.1177 5.28089 1
2 8 -3 253.031 20.704 2
2 8 -3 231.377 13.4021 1
1 8 -3 633.143 28.7821 2
1 8 -3 618.215 19.495 1
0 8 -3 104.36 15.5908 2
0 8 -3 102.567 10.3173 1
-1 8 -3 117.527 11.2026 1
-1 8 -3 106.822 16.2365 2
-2 8 -3 7.90162 7.49636 1
-2 8 -3 5.16851 11.9407 2
-3 8 -3 25.265 13.2741 2
-3 8 -3 42.6997 9.57533 1
-4 8 -3 86.1039 12.1093 1
-4 8 -3 115.207 18.2819 2
-5 8 -3 112.011 14.4525 1
-5 8 -3 125.703 19.2232 2
8 7 -3 4.3867 7.63495 1
7 7 -3 17.4521 7.61723 1
6 7 -3 243.361 19.1179 2
6 7 -3 258.032 14.7963 1
5 7 -3 78.0018 12.3598 2
5 7 -3 118.395 10.8589 1
4 7 -3 9.71824 5.49967 1
4 7 -3 4.48075 8.83973 2
3 7 -3 76.6406 12.4023 2
3 7 -3 77.5632 8.51357 1
2 7 -3 135.141 10.3719 1
2 7 -3 135.794 14.501 2
1 7 -3 173.008 11.2774 1
1 7 -3 159.791 15.7549 2
0 7 -3 552.337 25.4192 2
0 7 -3 579.145 17.7364 1
-1 7 -3 257.169 13.4736 1
-1 7 -3 247.988 19.5932 2
-2 7 -3 357.495 16.0604 1
-2 7 -3 368.322 22.4519 2
-3 7 -3 1343.17 39.9474 2
-3 7 -3 1422.83 31.863 1
-4 7 -3 103.548 15.7296 2
-4 7 -3 80.4162 11.2937 1
-5 7 -3 -4.6465 11.1135 2
-5 7 -3 17.1645 9.28225 1
-6 7 -3 4.32065 9.20488 1
6 -7 3 -2.827 8.34568 1
9 6 -3 27.5856 9.15653 1
-9 -6 3 24.7226 8.98348 3
8 6 -3 20.352 8.17526 1
-8 -6 3 12.8728 7.57679 3
7 6 -3 117.846 11.5124 1
-7 -6 3 100.396 10.697 3
6 6 -3 166.082 12.423 1
6 6 -3 185.433 15.5585 2
-6 -6 3 207.661 11.695 3
5 6 -3 18.2799 8.21293 2
5 6 -3 6.887 5.49185 1
-5 -6 3 12.263 5.01279 3
4 6 -3 552.301 22.3931 2
4 6 -3 551.291 17.1643 1
-4 -6 3 563.853 13.6304 3
3 6 -3 41.3888 6.25834 1
3 6 -3 39.2677 9.3048 2
2 6 -3 -5.6572 3.71588 1
2 6 -3 -5.549 6.98691 2
1 6 -3 3.37697 7.53071 2
1 6 -3 14.7668 4.93326 1
0 6 -3 56.3331 10.5521 2
0 6 -3 70.4731 7.26057 1
-1 6 -3 48.3454 6.9538 1
-1 6 -3 32.9151 9.97038 2
-2 6 -3 3863.28 69.844 2
-2 6 -3 3864.44 57.1732 1
-3 6 -3 1495.6 38.8492 2
-3 6 -3 1489.03 28.7731 3
-3 6 -3 1479.22 31.2792 1
-4 6 -3 51.9586 9.68108 1
-4 6 -3 64.7062 12.4233 2
-4 6 -3 64.6991 8.95579 3
-5 6 -3 84.6725 11.38 1
-5 6 -3 72.7647 13.0249 2
-5 6 -3 75.6643 10.8342 3
-6 6 -3 20.1222 9.44213 3
-6 6 -3 8.62029 11.544 2
-6 6 -3 11.5806 8.3726 1
6 -6 3 24.7461 8.99438 1
-7 6 -3 24.8328 10.8213 3
-7 6 -3 34.0567 11.4658 1
7 -6 3 38.6854 10.6763 1
9 5 -3 21.7829 9.34968 1
-9 -5 3 31.8768 9.4088 3
8 5 -3 -5.0238 6.14592 1
-8 -5 3 5.32677 6.62623 3
7 5 -3 50.0183 8.62776 1
-7 -5 3 47.1173 8.26206 3
6 5 -3 153.948 11.5073 1
6 5 -3 186.004 14.3193 2
-6 -5 3 185.844 11.5872 3
5 5 -3 74.4182 8.21123 1
5 5 -3 112.415 11.4791 2
-5 -5 3 94.1985 8.22172 3
4 5 -3 505.757 15.5535 1
4 5 -3 514.797 19.7267 2
-4 -5 3 496.202 13.243 3
3 5 -3 106.292 11.1867 2
3 5 -3 86.4413 7.50805 1
-3 -5 3 101.094 5.65828 3
2 5 -3 165.421 5.26944 3
2 5 -3 165.03 9.00889 1
2 5 -3 162.08 13.2674 2
-2 -5 3 169.474 5.36284 3
1 5 -3 295.937 16.0404 2
0 5 -3 19.3736 7.51053 2
0 5 -3 20.6644 2.63458 3
0 5 -3 14.4667 4.69418 1
-1 5 -3 59.9799 9.67103 2
-1 5 -3 65.5451 4.91885 3
-1 5 -3 75.6694 7.42211 1
-2 5 -3 -5.5237 4.28886 1
-2 5 -3 2.01225 3.77104 3
-2 5 -3 0.24872 7.25641 2
-3 5 -3 132.93 9.8355 3
-3 5 -3 131.617 10.3308 1
-3 5 -3 130.885 13.0984 2
-4 5 -3 109.591 9.87176 3
-4 5 -3 105.843 10.5585 1
-4 5 -3 108.58 12.592 2
-5 5 -3 3.2278 7.09675 3
-5 5 -3 10.7265 7.07889 1
-5 5 -3 -1.1115 8.24582 2
-6 5 -3 89.2525 12.5269 2
-6 5 -3 74.5452 11.4229 3
-6 5 -3 57.8315 10.3221 1
6 -5 3 78.6833 11.2198 1
-7 5 -3 247.683 18.0366 3
-7 5 -3 216.955 17.3498 1
7 -5 3 213.348 16.963 1
-8 5 -3 37.4969 11.7937 3
-8 5 -3 41.2646 11.4718 1
8 -5 3 27.1363 10.6849 1
9 4 -3 14.6645 8.20585 1
-9 -4 3 6.64213 7.84558 3
8 4 -3 9.02447 6.72481 1
-8 -4 3 14.8442 7.61379 3
7 4 -3 43.1049 8.02754 1
-7 -4 3 45.214 8.83273 3
6 4 -3 98.7147 9.60415 1
6 4 -3 113.899 10.9829 2
-6 -4 3 101.351 9.78386 3
5 4 -3 365.583 15.6671 2
5 4 -3 343.177 13.6269 1
-5 -4 3 338.77 12.934 3
4 4 -3 711.965 17.8289 1
4 4 -3 659.331 20.4955 2
-4 -4 3 699.706 16.4208 3
3 4 -3 14.4738 4.24868 1
3 4 -3 20.3574 6.39706 2
-3 -4 3 17.5898 3.54003 3
2 4 -3 28.7068 4.67829 1
2 4 -3 29.3499 7.18962 2
-2 -4 3 28.5138 2.91176 3
1 4 -3 20.7633 6.89917 2
1 4 -3 15.9231 4.23518 1
0 4 -3 30.4677 4.66867 1
0 4 -3 25.6028 7.11116 2
-1 4 -3 36.2771 7.87653 2
-1 4 -3 43.4451 5.50569 1
-1 4 -3 40.8057 3.70524 3
-2 4 -3 2934.41 51.3798 2
-2 4 -3 2956.79 43.5665 1
-2 4 -3 2985.9 40.4491 3
-3 4 -3 108.301 8.50694 3
-3 4 -3 96.9414 8.45707 1
-3 4 -3 114.482 10.9676 2
-4 4 -3 11.4834 5.48836 3
-4 4 -3 8.70008 5.52307 1
-4 4 -3 8.84946 6.87211 2
-5 4 -3 192.368 12.8664 3
-5 4 -3 189.211 12.9301 1
-5 4 -3 212.281 14.6141 2
5 -4 3 175.517 12.3253 1
-6 4 -3 186.712 14.0809 1
-6 4 -3 172.837 13.7228 3
-6 4 -3 159.251 13.3868 2
6 -4 3 146.08 12.8128 1
-7 4 -3 148.759 14.9619 3
-7 4 -3 157.869 14.1743 1
7 -4 3 140.382 13.819 1
-8 4 -3 -6.4553 8.16642 1
-8 4 -3 -5.6471 8.70352 3
8 -4 3 -2.4765 8.55122 1
9 3 -3 188.081 15.4617 1
-9 -3 3 171.189 16.2622 3
8 3 -3 111.716 11.7096 1
-8 -3 3 90.4765 12.0377 3
7 3 -3 0.66294 5.51205 1
-7 -3 3 16.8777 6.79216 3
6 3 -3 144.882 10.6301 1
6 3 -3 139.098 10.3216 2
-6 -3 3 152.615 11.306 3
5 3 -3 190.845 11.493 2
5 3 -3 173.212 10.0824 1
-5 -3 3 180.74 10.5639 3
4 3 -3 10.1161 4.28858 1
4 3 -3 11.6663 5.65558 2
-4 -3 3 13.502 4.5349 3
3 3 -3 48.8002 7.29842 2
3 3 -3 57.0923 5.60764 1
-3 -3 3 50.2034 5.02137 3
2 3 -3 73.9174 6.01096 1
2 3 -3 68.0719 7.8869 2
-2 -3 3 63.8203 4.53438 3
1 3 -3 100.908 8.90639 2
1 3 -3 108.467 6.38599 1
0 3 -3 1025.99 23.8126 2
0 3 -3 1019.57 18.4178 1
-1 3 -3 313.114 13.6321 2
-1 3 -3 331.98 10.2952 1
-1 3 -3 313.72 6.67753 3
-2 3 -3 261.206 10.1032 1
-2 3 -3 273.602 13.0409 2
-2 3 -3 270.208 8.24759 3
-3 3 -3 27.16 6.55396 2
-3 3 -3 23.9198 4.72897 3
-3 3 -3 27.0704 5.26844 1
-4 3 -3 87.4208 9.30893 2
-4 3 -3 97.7408 8.36268 3
-4 3 -3 103.577 8.73883 1
-5 3 -3 257.02 13.2691 1
-5 3 -3 279.55 13.5496 3
-5 3 -3 237.869 13.3438 2
5 -3 3 277.149 13.5018 1
-6 3 -3 938.05 25.5532 1
-6 3 -3 961.084 25.9371 2
-6 3 -3 946.258 25.9385 3
6 -3 3 920.161 25.3556 1
-7 3 -3 661.877 22.9483 1
-7 3 -3 656.729 23.2207 3
7 -3 3 653.167 23.0297 1
-8 3 -3 416.384 21.3979 3
-8 3 -3 399.661 20.5651 1
8 -3 3 413.638 20.2263 1
-9 3 -3 48.5221 12.0866 3
9 -3 3 68.2105 12.7204 1
9 2 -3 192.48 15.5057 1
-9 -2 3 215.237 17.9342 3
8 2 -3 113.472 11.5592 1
-8 -2 3 118.913 13.3601 3
7 2 -3 256.914 13.5746 1
-7 -2 3 244.092 15.4124 3
6 2 -3 306.322 13.3779 1
6 2 -3 289.444 12.4374 2
-6 -2 3 297.427 15.0398 3
-6 -2 3 305.53 12.4557 2
5 2 -3 254.041 11.3499 1
5 2 -3 251.144 11.6758 2
-5 -2 3 276.856 12.9169 3
4 2 -3 163.496 10.0505 2
4 2 -3 148.541 8.38664 1
-4 -2 3 146.771 9.00856 3
3 2 -3 88.3273 8.09872 2
3 2 -3 76.8608 6.09412 1
-3 -2 3 69.3856 6.16393 3
2 2 -3 270.458 8.6712 1
2 2 -3 271.537 11.7853 2
-2 -2 3 285.524 8.30516 3
1 2 -3 310.831 8.59556 1
1 2 -3 289.697 12.2142 2
-1 -2 3 300.898 6.48258 3
0 2 -3 286.075 11.8966 2
0 2 -3 273.112 8.13277 1
-1 2 -3 342.028 12.6972 2
-1 2 -3 349.608 9.5709 1
-1 2 -3 353.694 6.74395 3
-2 2 -3 9.61826 3.07797 3
-2 2 -3 5.47337 3.72665 1
-2 2 -3 15.605 5.0952 2
-3 2 -3 34.1389 4.78122 3
-3 2 -3 27.3026 5.03221 1
-3 2 -3 27.6153 5.6792 2
-4 2 -3 216.124 10.7914 1
-4 2 -3 228.892 10.3971 3
-4 2 -3 213.77 10.4629 2
-5 2 -3 121.662 8.80326 2
-5 2 -3 113.157 9.73539 1
-5 2 -3 126.334 9.9918 3
5 -2 3 105.437 9.34211 1
-6 2 -3 155.901 11.7907 3
-6 2 -3 166.969 12.0393 1
6 -2 3 154.17 12.12 1
-7 2 -3 170.935 13.9162 3
-7 2 -3 180.666 13.9247 1
7 -2 3 186.299 14.5053 1
-8 2 -3 62.384 11.3965 3
-8 2 -3 84.3337 12.0486 1
8 -2 3 68.3761 11.1215 1
-9 2 -3 87.6912 13.9594 3
9 -2 3 88.6009 12.8954 1
9 1 -3 17.9325 8.24405 1
-9 -1 3 24.4725 10.6434 3
8 1 -3 3.20859 6.49853 1
-8 -1 3 7.19599 8.31686 3
7 1 -3 29.8304 7.16678 1
-7 -1 3 26.5232 8.55741 3
6 1 -3 100.69 9.0929 1
6 1 -3 74.9509 7.50319 2
-6 -1 3 89.7429 7.83051 2
-6 -1 3 104.623 11.0487 3
5 1 -3 124.183 8.82723 2
5 1 -3 117.297 8.42789 1
-5 -1 3 130.786 10.7725 3
-5 -1 3 129.329 9.04362 2
4 1 -3 51.2376 6.45392 2
4 1 -3 62.0623 5.99793 1
-4 -1 3 42.851 6.51305 3
3 1 -3 411.953 13.587 2
3 1 -3 408.273 10.8328 1
-3 -1 3 419.522 12.6159 3
2 1 -3 115.021 9.0265 2
2 1 -3 111.799 5.71118 1
-2 -1 3 116.028 6.5055 3
1 1 -3 494.846 9.92216 1
1 1 -3 476.377 14.2456 2
-1 -1 3 473.23 9.84649 3
0 1 -3 2100.44 27.7693 1
0 1 -3 2115.12 35.0043 2
0 -1 3 2152.63 26.5275 3
-1 1 -3 51.194 6.26858 2
-1 1 -3 41.5446 3.09991 3
-1 1 -3 42.9437 4.16607 1
-2 1 -3 24.3687 4.9675 2
-2 1 -3 24.5149 3.5008 3
-2 1 -3 27.0042 4.02747 1
-3 1 -3 345.54 11.2353 2
-3 1 -3 332.754 10.2789 3
-3 1 -3 339.834 11.0597 1
-4 1 -3 332.033 10.868 2
-4 1 -3 327.67 12.0199 1
-4 1 -3 340.371 11.9397 3
4 -1 3 334.168 12.1487 1
-5 1 -3 142.633 9.69208 1
-5 1 -3 157.883 7.99111 2
-5 1 -3 155.608 9.97745 3
5 -1 3 145.859 9.74988 1
-6 1 -3 48.5385 7.94928 3
-6 1 -3 69.6909 8.55137 1
6 -1 3 73.842 8.7488 1
-7 1 -3 31.914 7.52302 1
-7 1 -3 39.1722 8.4736 3
7 -1 3 13.5737 6.74405 1
-8 1 -3 391.814 19.8225 3
8 -1 3 384.392 18.7669 1
-9 1 -3 35.4999 10.2538 3
9 -1 3 16.788 8.57631 1
-10 1 -3 7.34035 10.1753 3
10 -1 3 13.2519 9.79321 1
9 0 -3 39.3896 9.52083 1
-9 0 3 42.3928 12.2637 3
8 0 -3 60.6573 9.48433 1
-8 0 3 57.2929 11.3513 3
7 0 -3 599.821 19.1712 1
-7 0 3 604.21 23.5086 3
6 0 -3 75.6981 7.94792 1
-6 0 3 88.6951 10.6914 3
-6 0 3 79.7844 7.50235 2
5 0 -3 3.20051 3.94345 1
-5 0 3 0.90662 5.53689 3
-5 0 3 -0.893 4.261 2
4 0 -3 23.9141 5.33429 2
4 0 -3 14.6261 4.08431 1
-4 0 3 6.4121 5.12598 3
-4 0 3 17.4668 5.22931 2
3 0 -3 89.5587 5.64552 1
3 0 -3 85.8926 7.45188 2
-3 0 3 77.6119 7.17971 3
-3 0 3 98.1445 8.24672 2
2 0 -3 106.103 5.18502 1
2 0 -3 120.713 8.4777 2
-2 0 3 126.49 7.60287 3
-2 0 3 102.283 8.24183 2
1 0 -3 450.594 8.37858 1
1 0 -3 430.695 13.411 2
-1 0 3 449.189 10.7468 3
0 0 -3 2051.81 25.2786 1
0 0 -3 2019.87 33.3767 2
0 0 3 2039.65 27.3405 3
-1 0 -3 3174.49 39.2404 3
-1 0 -3 3126.04 38.433 1
-1 0 -3 3137.94 46.0444 2
-2 0 -3 266.014 9.91107 2
-2 0 -3 265.822 8.06806 3
-2 0 -3 270.638 8.44566 1
-3 0 -3 729.629 15.3468 2
-3 0 -3 726.243 15.4044 3
-3 0 -3 743.669 15.5783 1
3 0 3 736.342 15.6142 1
-4 0 -3 66.7291 6.70167 3
-4 0 -3 59.8691 4.97386 2
-4 0 -3 64.3415 6.55905 1
4 0 3 66.7731 6.73896 1
-5 0 -3 49.7535 6.91513 3
-5 0 -3 50.3097 6.7558 1
5 0 3 43.8331 6.53655 1
-6 0 -3 7.39378 5.55632 3
-6 0 -3 12.8872 5.57294 1
6 0 3 4.24644 4.88876 1
-7 0 -3 620.128 20.9541 3
7 0 3 602.718 20.2292 1
-8 0 -3 83.7281 11.3256 3
8 0 3 96.3635 11.2801 1
-9 0 -3 6.46758 8.64106 3
9 0 3 11.8843 7.83528 1
-10 0 -3 101.983 14.6308 3
10 0 3 82.2004 13.405 1
9 -1 -3 22.6242 8.36131 1
-9 1 3 28.4672 12.1179 3
8 -1 -3 28.1981 8.58171 1
-8 1 3 35.8717 10.627 3
7 -1 -3 59.5964 8.45251 1
-7 1 3 57.8358 11.1133 3
6 -1 -3 1015.2 23.2849 1
-6 1 3 1034 23.828 2
-6 1 3 1003.07 28.8424 3
5 -1 -3 1805.26 30.7437 1
-5 1 3 1831.45 37.4094 3
-5 1 3 1846.67 34.4748 2
4 -1 -3 522.772 13.2543 1
-4 1 3 526.473 17.6372 3
-4 1 3 522.417 15.9548 2
3 -1 -3 692.487 13.8696 1
-3 1 3 700.597 18.5024 3
-3 1 3 709.22 18.3631 2
2 -1 -3 204.919 10.0065 2
2 -1 -3 190.924 6.14039 1
-2 1 3 193.048 9.41893 3
-2 1 3 188.596 10.16 2
1 -1 -3 1047.82 21.9152 2
1 -1 -3 1092.38 14.1515 1
-1 1 3 1057.41 19.5943 3
-1 1 3 1051.88 22.1948 2
0 -1 -3 82.3322 2.8207 1
0 -1 -3 76.2256 6.72383 2
0 1 3 78.9145 6.95634 2
0 1 3 82.8177 5.60543 3
-1 -1 -3 4788.47 58.4268 3
-1 -1 -3 4806.22 54.5052 1
-1 -1 -3 4698.97 65.682 2
1 1 3 4724.1 65.7877 2
1 1 3 4795.92 58.6782 3
-2 -1 -3 3.1757 2.87151 1
-2 -1 -3 2.27587 2.98104 3
-2 -1 -3 4.0813 3.64938 2
2 1 3 6.87561 3.49967 2
2 1 3 8.71619 2.87466 1
-3 -1 -3 1380.45 22.985 2
-3 -1 -3 1396.22 23.477 3
-3 -1 -3 1421.64 23.0729 1
3 1 3 1455.25 23.4225 2
3 1 3 1359.57 22.5712 1
-4 -1 -3 68.3424 4.92682 2
-4 -1 -3 81.6744 7.15956 3
-4 -1 -3 65.5853 6.34408 1
4 1 3 69.9739 4.9585 2
4 1 3 60.0618 6.07063 1
-5 -1 -3 90.9486 8.2853 3
5 1 3 92.3883 8.10332 1
-6 -1 -3 54.2163 7.64006 3
6 1 3 63.5927 7.85009 1
-7 -1 -3 239.32 13.7745 3
7 1 3 228.087 13.4112 1
-8 -1 -3 250.133 15.9002 3
8 1 3 224.265 14.5496 1
-9 -1 -3 340.107 19.5814 3
9 1 3 371.882 19.4301 1
-10 -1 -3 51.3816 11.4062 3
10 1 3 48.2871 11.1844 1
9 -2 -3 -0.7216 7.57312 1
-9 2 3 27.7361 12.575 3
8 -2 -3 9.61859 6.8988 1
-8 2 3 9.58124 10.1891 3
7 -2 -3 73.9271 9.10266 1
-7 2 3 60.2824 11.6943 3
6 -2 -3 845.794 20.9286 1
-6 2 3 752.791 25.9195 3
-6 2 3 803.58 22.3745 2
5 -2 -3 78.1952 7.53036 1
-5 2 3 82.4772 10.6289 3
-5 2 3 65.6473 8.16733 2
4 -2 -3 179.232 8.54103 1
-4 2 3 177.853 10.9889 2
-4 2 3 188.914 12.5221 3
3 -2 -3 334.52 9.43275 1
-3 2 3 367.085 14.1738 3
-3 2 3 346.048 13.8715 2
2 -2 -3 500.871 9.48845 1
-2 2 3 498.099 15.538 2
-2 2 3 510.202 15.6237 3
-1 2 3 824.403 18.0712 3
-1 2 3 866.314 20.3511 2
0 2 3 504.162 12.5503 3
0 2 3 494.248 14.9014 2
-1 -2 -3 253.777 8.38962 3
1 2 3 236.128 10.3197 2
1 2 3 240.347 5.19568 1
1 2 3 230.585 8.26845 3
-2 -2 -3 700.844 14.5051 3
2 2 3 705.105 12.4168 1
2 2 3 699.697 16.1638 2
-3 -2 -3 190.471 8.45873 3
3 2 3 206.525 7.7368 1
3 2 3 204.539 8.32152 2
-4 -2 -3 119.972 7.90747 3
4 2 3 117.454 7.44697 1
4 2 3 105.591 6.05382 2
-5 -2 -3 505.184 15.5637 3
5 2 3 486.958 10.487 2
5 2 3 492.978 14.7978 1
-6 -2 -3 621.961 18.8214 3
6 2 3 648.694 18.3391 1
-7 -2 -3 19.0555 6.7511 3
7 2 3 21.4501 6.57388 1
-8 -2 -3 47.3528 8.87191 3
8 2 3 50.3365 8.81689 1
-9 -2 -3 22.1191 8.26036 3
9 2 3 27.3007 8.84 1
-10 -2 -3 -7.201 7.56728 3
10 2 3 19.0398 8.59204 1
8 -3 -3 20.9023 7.93474 1
-8 3 3 19.775 10.6569 3
7 -3 -3 42.5799 8.26971 1
-7 3 3 52.2776 11.9487 3
6 -3 -3 122.533 10.1579 1
-6 3 3 132.952 11.9626 2
-6 3 3 136.994 14.7513 3
5 -3 -3 11.5143 5.17207 1
-5 3 3 4.61408 7.55634 3
-5 3 3 15.8034 6.96389 2
4 -3 -3 61.4233 6.16997 1
-4 3 3 57.8808 8.29554 2
-4 3 3 44.3423 8.62311 3
3 -3 -3 376.306 10.0869 1
-3 3 3 387.381 15.5274 3
-3 3 3 378.113 15.4093 2
2 -3 -3 511.009 9.98834 1
-2 3 3 512.268 17.024 2
-2 3 3 526.986 16.4858 3
-1 3 3 -1.399 4.12276 3
-1 3 3 9.01671 5.20079 2
0 3 3 5.43308 3.98921 3
0 3 3 10.0134 5.18661 2
-1 -3 -3 741.576 16.1407 3
1 3 3 761.991 16.3778 3
1 3 3 764.206 10.534 1
1 3 3 743.366 19.0378 2
-2 -3 -3 175.068 8.13604 3
2 3 3 183.613 5.8188 1
2 3 3 182.841 9.78753 2
2 3 3 170.171 8.01073 3
-3 -3 -3 876.034 18.4024 3
3 3 3 867.025 19.0092 2
3 3 3 870.192 16.1159 1
-4 -3 -3 103.547 7.87271 3
4 3 3 106.037 7.06959 2
4 3 3 129.552 7.30369 1
-5 -3 -3 654.738 18.0592 3
5 3 3 678.418 17.2731 1
5 3 3 680.48 14.9309 2
-6 -3 -3 518.027 17.2019 3
6 3 3 502.895 16.3857 1
-7 -3 -3 683.439 21.3572 3
7 3 3 668.682 20.4497 1
-8 -3 -3 204.938 14.1918 3
8 3 3 208.583 13.8725 1
-9 -3 -3 19.7731 8.34807 3
9 3 3 18.4745 8.11836 1
-10 -3 -3 4.31432 7.99856 3
10 3 3 10.1263 8.27818 1
-8 4 3 126.742 17.5778 3
-7 4 3 -5.4603 9.28138 3
6 -4 -3 72.1003 9.09609 1
-6 4 3 60.8634 10.6601 2
-6 4 3 61.8538 12.1289 3
5 -4 -3 71.7634 7.45581 1
-5 4 3 58.4308 10.9308 3
-5 4 3 52.6962 9.43638 2
4 -4 -3 57.9811 6.21207 1
-4 4 3 58.5007 10.1266 3
-4 4 3 52.1055 9.36872 2
3 -4 -3 307.295 9.46111 1
-3 4 3 321.201 15.6068 3
-3 4 3 310.676 16.171 2
2 -4 -3 1469.89 21.0513 1
-2 4 3 1443.11 21.0827 1
-2 4 3 1443.71 30.2859 3
-2 4 3 1410.17 32.3056 2
1 -4 -3 2087.19 25.8587 1
-1 4 3 2057.2 39.8118 2
-1 4 3 2056.52 36.2574 3
-1 4 3 2060.71 25.9286 1
0 4 3 206.219 12.2289 2
0 4 3 209.072 10.3843 3
-1 -4 -3 196.645 9.35062 3
1 4 3 212.064 11.6698 2
1 4 3 207.817 5.21218 1
1 4 3 203.755 9.84803 3
-2 -4 -3 553.637 14.3276 3
2 4 3 537.295 10.382 1
2 4 3 530.037 17.0776 2
2 4 3 543.812 14.3779 3
-3 -4 -3 21.1964 4.78278 3
3 4 3 28.3611 5.7105 2
3 4 3 23.9868 3.62205 1
-4 -4 -3 103.805 8.18375 3
4 4 3 112.95 7.15653 1
4 4 3 119.435 8.67789 2
-5 -4 -3 104.33 8.70497 3
5 4 3 106.045 8.09802 2
5 4 3 102.567 8.11081 1
-6 -4 -3 70.1098 8.44405 3
6 4 3 51.8139 7.07149 1
6 4 3 62.4557 6.81366 2
-7 -4 -3 686.38 21.7683 3
7 4 3 746.325 21.5388 1
-8 -4 -3 81.809 10.5983 3
8 4 3 78.8455 10.2074 1
-9 -4 -3 69.1412 11.0545 3
9 4 3 58.7048 10.3558 1
-10 -4 -3 12.0818 8.91558 3
10 4 3 20.7185 9.34256 1
-7 5 3 1.41103 11.8201 3
-6 5 3 41.1755 11.295 2
-6 5 3 25.2765 11.2985 3
-5 5 3 145.802 14.3637 2
-5 5 3 126.518 14.4293 3
-4 5 3 40.7178 9.80859 2
-4 5 3 62.3452 11.0967 3
-3 5 3 86.9958 11.4822 2
-3 5 3 89.5185 11.3221 3
2 -5 -3 1324.29 20.7782 1
-2 5 3 1344.21 21.0168 1
-2 5 3 1310.19 33.2086 2
-2 5 3 1351.77 30.6753 3
-1 5 3 627.806 19.5901 3
-1 5 3 683.387 22.964 2
-1 5 3 683.911 12.0925 1
0 5 3 639.505 18.801 3
0 5 3 679.625 11.3441 1
0 5 3 638.656 21.7693 2
1 5 3 785.909 19.4102 3
1 5 3 824.647 13.1823 1
1 5 3 792.811 23.6281 2
-2 -5 -3 841.725 19.5653 3
2 5 3 800.716 19.2382 3
2 5 3 802.103 13.9522 1
2 5 3 836.38 23.3961 2
-3 -5 -3 64.4349 7.06792 3
3 5 3 62.6286 7.01544 3
3 5 3 58.0648 8.09464 2
3 5 3 64.0716 5.19031 1
-4 -5 -3 10.1195 4.78925 3
4 5 3 14.5366 5.59034 2
4 5 3 3.07241 3.41658 1
-5 -5 -3 255.258 12.4836 3
5 5 3 247.807 10.6814 1
5 5 3 244.656 12.5731 2
-6 -5 -3 9.5215 5.83386 3
6 5 3 2.37781 5.20949 2
6 5 3 11.4893 5.03957 1
-7 -5 -3 0.41755 5.51025 3
7 5 3 -0.5408 5.21916 1
-8 -5 -3 69.8809 10.6087 3
8 5 3 72.5569 9.74472 1
-9 -5 -3 55.0346 10.7135 3
9 5 3 22.8031 8.34141 1
-10 -5 -3 11.0448 8.78557 3
10 5 3 10.1379 8.78026 1
-6 6 3 31.7221 11.8076 2
-6 6 3 40.8612 12.8242 3
-5 6 3 -1.2561 10.1445 3
-5 6 3 -7.6056 9.52501 2
-4 6 3 35.9307 10.7832 3
-4 6 3 34.4606 10.6504 2
-3 6 3 2.32053 8.69354 2
-3 6 3 20.3835 9.04771 3
-2 6 3 33.7676 8.82907 3
-2 6 3 14.965 8.87594 2
-1 6 3 7.42459 7.15694 3
-1 6 3 20.0842 8.55127 2
0 6 3 251.76 16.5362 2
0 6 3 234.449 13.3843 3
1 6 3 561.45 21.9838 2
1 6 3 548.693 17.3435 3
1 6 3 567.916 11.6143 1
-2 -6 -3 0.23858 4.33121 3
2 6 3 -1.948 4.17543 3
2 6 3 -9.7821 6.12063 2
2 6 3 -0.0994 2.66525 1
-3 -6 -3 45.8995 6.55791 3
3 6 3 41.1605 6.52926 3
3 6 3 51.1717 4.87985 1
3 6 3 46.6984 8.60739 2
-4 -6 -3 197.375 11.5691 3
4 6 3 230.716 9.39615 1
4 6 3 208.23 13.8767 2
4 6 3 216.256 11.4788 3
-5 -6 -3 30.8315 6.80733 3
5 6 3 28.5931 5.52817 1
5 6 3 31.1787 7.3995 2
-6 -6 -3 210.531 12.8706 3
6 6 3 242.514 14.3493 2
6 6 3 200.425 11.5036 1
-7 -6 -3 231 14.5777 3
7 6 3 241.238 13.617 1
-8 -6 -3 35.2853 8.72997 3
8 6 3 51.5884 9.12161 1
-9 -6 -3 125.012 14.1064 3
9 6 3 120.565 13.1646 1
-5 7 3 545.717 28.6943 2
-4 7 3 18.0141 12.1332 2
-4 7 3 16.6813 10.1375 3
-3 7 3 -13.219 8.05641 3
-3 7 3 0.1426 9.85586 2
-2 7 3 30.2761 10.0302 3
-2 7 3 27.9438 10.9479 2
-1 7 3 252.265 19.1408 2
-1 7 3 242.495 15.104 3
0 7 3 277.665 19.1815 2
0 7 3 271.591 15.5822 3
1 7 3 84.6295 9.76542 3
1 7 3 87.6073 12.5004 2
2 7 3 90.9345 12.1156 2
2 7 3 85.3581 9.02306 3
-3 -7 -3 5.96255 5.04608 3
3 7 3 -3.9284 3.26668 1
3 7 3 9.19449 5.46692 3
3 7 3 7.22804 7.42809 2
-4 -7 -3 90.2928 9.22455 3
4 7 3 71.6 8.22267 3
4 7 3 71.2431 6.75895 1
4 7 3 58.7634 10.1318 2
-5 -7 -3 -9.0037 4.71993 3
5 7 3 4.03721 5.21499 3
5 7 3 5.78901 6.8687 2
5 7 3 -0.5852 4.30295 1
-6 -7 -3 4.59755 5.90832 3
6 7 3 -3.0367 4.73863 1
6 7 3 -3.5014 6.78585 2
-7 -7 -3 46.3265 8.85134 3
7 7 3 43.8125 7.9482 1
-8 -7 -3 44.4586 9.71948 3
8 7 3 40.268 8.5542 1
-9 -7 -3 60.6458 11.4387 3
9 7 3 39.3521 9.60956 1
-4 8 3 129.103 16.9666 3
-4 8 3 116.698 18.119 2
-3 8 3 35.9859 11.6589 3
-3 8 3 50.9559 14.7133 2
-2 8 3 13.3569 9.9288 3
-2 8 3 8.30964 11.9068 2
-1 8 3 27.5536 9.40479 3
-1 8 3 19.701 11.4892 2
0 8 3 78.5316 13.7668 2
0 8 3 103.012 11.9836 3
1 8 3 88.3378 13.6262 2
1 8 3 77.8184 10.5292 3
2 8 3 169.023 16.8105 2
2 8 3 192.531 13.4061 3
-3 -8 -3 318.353 15.8544 3
3 8 3 331.126 15.7376 3
3 8 3 334.551 20.8506 2
-4 -8 -3 282.485 15.0031 3
4 8 3 320.65 15.0718 3
4 8 3 292.433 18.7608 2
-5 -8 -3 148.706 12.5457 3
5 8 3 164.782 10.4226 1
5 8 3 141.929 11.8895 3
5 8 3 150.079 15.1147 2
-6 -8 -3 545.221 20.8247 3
6 8 3 564.348 23.8361 2
6 8 3 566.519 20.65 3
6 8 3 545.948 18.2799 1
-7 -8 -3 82.5469 11.0695 3
7 8 3 59.3101 8.98502 1
-8 -8 -3 16.9086 8.56065 3
8 8 3 10.1225 7.49664 1
-2 9 3 147.967 20.1588 2
-2 9 3 191.624 18.2704 3
-1 9 3 393.796 26.5463 2
-1 9 3 334.857 20.6 3
0 9 3 1.98216 9.00617 3
0 9 3 -11.253 11.3331 2
1 9 3 24.1013 9.18294 3
1 9 3 23.3314 11.8517 2
2 9 3 1.84706 7.46645 3
2 9 3 -1.1776 9.34 2
3 9 3 129.404 15.5958 2
3 9 3 143.938 13.2282 3
-4 -9 -3 126.949 12.4923 3
4 9 3 114.374 14.8542 2
4 9 3 119.173 11.9801 3
-5 -9 -3 296.863 16.7272 3
5 9 3 296.012 16.0419 3
-6 -9 -3 194.807 15.0962 3
6 9 3 220.694 14.7533 3
6 9 3 185.208 17.6936 2
-7 -9 -3 38.116 9.81532 3
7 9 3 38.1576 8.5605 1
7 9 3 43.757 9.71868 3
0 10 3 151.288 16.2086 3
0 10 3 144.285 20.2997 2
1 10 3 3.11967 12.319 2
1 10 3 10.3837 9.18677 3
2 10 3 49.8635 14.2451 2
2 10 3 60.9964 10.8974 3
3 10 3 169.665 18.8188 2
3 10 3 185.32 15.5593 3
4 10 3 84.9756 14.6929 2
4 10 3 93.3072 11.8913 3
-5 -10 -3 -4.822 7.81534 3
5 10 3 -5.4635 7.05332 3
5 10 3 -2.9797 9.44483 2
3 10 -4 93.974 11.8773 1
3 10 -4 73.9736 16.512 2
2 10 -4 95.8437 11.7736 1
2 10 -4 81.1979 16.8666 2
1 10 -4 3.65492 7.74169 1
1 10 -4 46.3677 15.7361 2
0 10 -4 40.6341 10.1306 1
0 10 -4 23.0211 15.2943 2
6 9 -4 -1.4931 11.1713 2
6 9 -4 -5.2827 6.85268 1
5 9 -4 7.11712 11.9199 2
5 9 -4 -10.956 6.30202 1
4 9 -4 49.9236 9.69761 1
4 9 -4 39.8666 12.7278 2
3 9 -4 181.858 20.4214 2
3 9 -4 235.333 15.45 1
2 9 -4 49.2212 13.967 2
2 9 -4 62.6865 9.52386 1
1 9 -4 17.0159 7.47456 1
1 9 -4 1.66427 12.4475 2
0 9 -4 -0.9874 6.7026 1
0 9 -4 10.9268 13.1703 2
-1 9 -4 -15.483 6.47901 1
-1 9 -4 15.4251 13.492 2
-2 9 -4 145.941 20.8738 2
-2 9 -4 127.771 13.5292 1
-3 9 -4 -5.1165 13.4614 2
-3 9 -4 -2.6302 8.79078 1
7 8 -4 174.274 14.9172 1
6 8 -4 4.33827 10.5544 2
6 8 -4 -3.2322 6.58589 1
5 8 -4 2.12333 6.36531 1
5 8 -4 -5.6183 9.12197 2
4 8 -4 73.8273 9.51522 1
4 8 -4 77.0472 13.7257 2
3 8 -4 154.07 17.4673 2
3 8 -4 154.881 12.5318 1
2 8 -4 405.564 17.1026 1
2 8 -4 410.691 24.5655 2
1 8 -4 586.892 28.747 2
1 8 -4 563.231 19.589 1
0 8 -4 497.043 18.6583 1
0 8 -4 491.611 27.1538 2
-1 8 -4 3.59633 11.4065 2
-1 8 -4 -1.1573 6.56892 1
-2 8 -4 9.27182 7.68483 1
-2 8 -4 23.6818 12.7744 2
-3 8 -4 219.349 21.9275 2
-3 8 -4 196.291 15.5509 1
-4 8 -4 12.2598 9.22312 1
-4 8 -4 21.7758 13.327 2
8 7 -4 38.2567 9.64609 1
7 7 -4 21.9118 7.99045 1
6 7 -4 53.8461 12.1759 2
6 7 -4 20.0952 7.69597 1
5 7 -4 49.1971 11.8434 2
5 7 -4 36.0017 7.67016 1
4 7 -4 89.964 13.5449 2
4 7 -4 80.6427 9.0718 1
3 7 -4 109.156 9.6972 1
3 7 -4 102.02 13.8029 2
2 7 -4 21.5574 6.53605 1
2 7 -4 21.4797 10.0178 2
1 7 -4 192.637 11.8857 1
1 7 -4 181.469 17.2551 2
0 7 -4 491.842 24.2221 2
0 7 -4 525.629 17.9753 1
-1 7 -4 328.779 22.0649 2
-1 7 -4 332.344 15.1795 1
-2 7 -4 169.876 17.8043 2
-2 7 -4 193.784 13.4065 1
-3 7 -4 5.62105 10.7739 2
-3 7 -4 6.06661 6.98697 1
-4 7 -4 32.9166 9.49238 1
-4 7 -4 41.035 13.6086 2
-5 7 -4 13.7753 11.8768 2
-5 7 -4 20.1093 9.48804 1
-6 7 -4 54.9087 12.4697 1
6 -7 4 48.0804 12.0048 1
8 6 -4 117.741 13.4083 1
7 6 -4 185.108 14.0765 1
6 6 -4 27.9474 10.225 2
6 6 -4 17.4447 6.52298 1
5 6 -4 213.926 12.7494 1
5 6 -4 191.245 16.1153 2
4 6 -4 6.64308 8.52247 2
4 6 -4 13.7493 5.67832 1
3 6 -4 130.592 13.9616 2
3 6 -4 146.026 10.3939 1
2 6 -4 154.075 10.5945 1
2 6 -4 91.0029 12.5643 2
1 6 -4 27.9127 5.79785 1
1 6 -4 25.7184 9.41548 2
0 6 -4 0.54682 4.61593 1
0 6 -4 -2.4711 8.39974 2
-1 6 -4 282.247 18.9754 2
-1 6 -4 235.339 12.6044 1
-2 6 -4 -5.3654 8.48885 2
-2 6 -4 0.58522 5.71147 1
-3 6 -4 23.6441 10.5722 2
-3 6 -4 20.1501 7.03963 1
-4 6 -4 27.1441 10.7507 2
-4 6 -4 23.6681 7.95519 1
-5 6 -4 31.959 11.8316 2
-5 6 -4 37.6128 9.54033 1
-6 6 -4 5.64283 8.61747 1
6 -6 4 -5.2841 8.10858 1
-7 6 -4 108.393 14.5075 1
7 -6 4 89.6604 13.5313 1
9 5 -4 -3.0761 7.98948 1
-9 -5 4 0.34986 7.41882 3
8 5 -4 277.621 16.751 1
-8 -5 4 285.161 17.1214 3
7 5 -4 10.0874 6.36167 1
-7 -5 4 14.1529 7.17962 3
6 5 -4 145.162 13.9313 2
6 5 -4 95.0593 10.0664 1
-6 -5 4 112.925 9.86033 3
5 5 -4 192.922 11.6184 1
5 5 -4 221.725 15.5637 2
-5 -5 4 225.529 10.6799 3
4 5 -4 9.32632 7.32694 2
4 5 -4 -6.789 3.92641 1
-4 -5 4 2.51499 3.68554 3
3 5 -4 53.7184 6.78341 1
3 5 -4 41.9484 9.10279 2
-3 -5 4 43.1947 4.15061 3
2 5 -4 129.388 8.94961 1
2 5 -4 140.229 13.1348 2
1 5 -4 5.4509 7.21629 2
1 5 -4 -0.5894 3.99423 1
0 5 -4 20.7163 8.35874 2
0 5 -4 24.3863 5.42303 1
-1 5 -4 70.5149 7.61025 1
-1 5 -4 77.7619 11.276 2
-2 5 -4 429.067 10.8902 3
-2 5 -4 443.067 15.4648 1
-2 5 -4 458.895 20.4514 2
-3 5 -4 629.733 24.0459 2
-3 5 -4 633.959 15.6339 3
-3 5 -4 611.237 18.8529 1
-4 5 -4 731.172 21.9942 1
-4 5 -4 718.955 25.7843 2
-4 5 -4 698.562 19.2326 3
-5 5 -4 18.8717 9.61104 2
-5 5 -4 10.3867 6.89085 3
-5 5 -4 14.9558 7.46124 1
-6 5 -4 4.18163 7.65363 1
-6 5 -4 15.2531 8.38706 3
-6 5 -4 17.2724 10.0189 2
6 -5 4 8.89427 7.94399 1
-7 5 -4 17.3695 9.15244 3
-7 5 -4 -14.657 8.0498 1
7 -5 4 -9.3401 7.90882 1
-8 5 -4 1.74567 9.86591 1
-8 5 -4 0.03259 9.95323 3
8 -5 4 5.78491 9.9865 1
9 4 -4 -8.4115 7.45488 1
-9 -4 4 -9.5463 7.21961 3
8 4 -4 8.18926 7.18145 1
-8 -4 4 23.525 8.31005 3
7 4 -4 16.1928 6.91236 1
-7 -4 4 13.3506 6.96696 3
6 4 -4 157.393 13.4138 2
6 4 -4 148.868 11.6692 1
-6 -4 4 143.145 11.3092 3
5 4 -4 31.8794 6.1098 1
5 4 -4 36.1046 8.33016 2
-5 -4 4 24.7623 5.95995 3
4 4 -4 131.134 9.21544 1
4 4 -4 141.081 12.2685 2
-4 -4 4 134.663 8.3663 3
3 4 -4 478.426 18.6139 2
3 4 -4 469.666 14.0511 1
-3 -4 4 483.942 11.6299 3
2 4 -4 327.086 11.4916 1
2 4 -4 306.518 15.5683 2
-2 -4 4 314.975 6.91162 3
1 4 -4 4.28748 6.49036 2
1 4 -4 6.38873 3.76997 1
0 4 -4 122.272 11.5704 2
0 4 -4 140.306 8.25636 1
-1 4 -4 245.573 10.5848 1
-1 4 -4 227.887 14.5431 2
-2 4 -4 221.865 14.3598 2
-2 4 -4 232.607 11.0078 1
-2 4 -4 219.929 7.3629 3
-3 4 -4 853.839 20.9863 1
-3 4 -4 824.255 17.3903 3
-3 4 -4 844.505 24.9181 2
-4 4 -4 413.17 18.6192 2
-4 4 -4 408.192 15.9611 1
-4 4 -4 394.132 14.0167 3
-5 4 -4 196.583 12.9726 1
-5 4 -4 192.817 15.208 2
-5 4 -4 212.663 12.8087 3
-6 4 -4 240.538 15.3057 3
-6 4 -4 276.152 16.4509 2
-6 4 -4 234.906 15.4723 1
6 -4 4 251.067 15.7553 1
-7 4 -4 37.2639 9.48426 3
-7 4 -4 48.8464 10.4918 1
7 -4 4 31.5947 9.51055 1
-8 4 -4 -12.527 8.34777 1
-8 4 -4 5.45942 8.90109 3
8 -4 4 -11.942 7.75579 1
9 3 -4 34.7025 9.81688 1
-9 -3 4 52.0429 11.2205 3
8 3 -4 26.2815 7.81364 1
-8 -3 4 11.5838 8.18969 3
7 3 -4 158.634 12.603 1
-7 -3 4 157.278 13.5793 3
6 3 -4 1.27087 5.07741 1
6 3 -4 7.34126 6.41044 2
-6 -3 4 -7.1333 5.39983 3
5 3 -4 85.8673 9.68367 2
5 3 -4 78.6355 8.07692 1
-5 -3 4 86.4759 8.5218 3
4 3 -4 160.601 11.9835 2
4 3 -4 159.05 9.23109 1
-4 -3 4 170.204 9.27198 3
3 3 -4 79.1068 6.5606 1
3 3 -4 79.5672 9.38165 2
-3 -3 4 74.7119 6.13121 3
2 3 -4 69.6115 6.07266 1
2 3 -4 79.478 9.04258 2
-2 -3 4 82.0108 5.0344 3
1 3 -4 74.2254 8.99823 2
1 3 -4 93.8935 6.81628 1
0 3 -4 5.40332 5.85297 2
0 3 -4 8.44382 3.55673 1
-1 3 -4 152.327 8.18526 1
-1 3 -4 170.331 11.7585 2
-2 3 -4 538.927 18.0089 2
-2 3 -4 561.033 11.2435 3
-2 3 -4 552.276 14.7579 1
-3 3 -4 3.35556 5.45087 2
-3 3 -4 -3.3274 3.1508 3
-3 3 -4 1.36484 4.39656 1
-4 3 -4 283.496 14.0294 2
-4 3 -4 268.654 12.6773 1
-4 3 -4 289.213 11.5799 3
-5 3 -4 515.73 18.3305 1
-5 3 -4 524.153 18.299 2
-5 3 -4 543.778 17.3544 3
-6 3 -4 196.908 13.6127 3
-6 3 -4 197.198 13.9855 1
-6 3 -4 178.394 13.5374 2
6 -3 4 194.025 13.9104 1
-7 3 -4 594.288 22.1792 3
-7 3 -4 592.369 22.4444 1
7 -3 4 589.678 22.494 1
-8 3 -4 32.7045 9.76529 3
-8 3 -4 45.0886 10.6372 1
8 -3 4 50.4906 10.9044 1
-9 3 -4 132.685 15.4236 3
-9 3 -4 141.523 16.0623 1
9 -3 4 85.2754 14.0058 1
9 2 -4 26.8633 8.90424 1
-9 -2 4 28.0637 10.7559 3
8 2 -4 201.432 14.6745 1
-8 -2 4 199.283 16.5686 3
7 2 -4 52.9423 8.37119 1
-7 -2 4 40.3681 9.31224 3
6 2 -4 127.25 10.5158 2
6 2 -4 114.003 9.70561 1
-6 -2 4 98.7412 9.59331 2
-6 -2 4 131.188 11.8094 3
5 2 -4 79.2635 7.75936 1
5 2 -4 75.1039 8.79756 2
-5 -2 4 78.1483 8.69782 3
4 2 -4 5.44331 3.76433 1
4 2 -4 5.64448 5.19165 2
-4 -2 4 15.4721 4.98749 3
3 2 -4 1091.71 20.3803 1
3 2 -4 1088.69 25.7027 2
-3 -2 4 1056.21 20.7554 3
2 2 -4 2597.17 36.2902 1
2 2 -4 2634.36 45.4247 2
-2 -2 4 2608.33 35.9321 3
1 2 -4 182.878 11.5241 2
1 2 -4 191.569 7.37338 1
-1 -2 4 188.962 5.87984 3
0 2 -4 191.624 11.5164 2
0 2 -4 206.784 7.6551 1
0 -2 4 210.536 4.90359 3
-1 2 -4 17.3986 3.8655 1
-1 2 -4 20.8266 6.08494 2
-1 2 -4 16.5469 2.24435 3
-2 2 -4 2.80253 3.50919 1
-2 2 -4 4.50648 2.65245 3
-2 2 -4 -4.0581 4.71857 2
-3 2 -4 513.777 14.5226 1
-3 2 -4 476.816 15.9892 2
-3 2 -4 492.524 12.3017 3
-4 2 -4 93.3982 7.70892 3
-4 2 -4 87.7661 8.60887 2
-4 2 -4 79.4442 8.05192 1
-5 2 -4 9.18108 5.45322 2
-5 2 -4 4.84979 5.28709 3
-5 2 -4 4.19579 5.05831 1
5 -2 4 7.15053 5.2678 1
-6 2 -4 20.6836 6.87552 1
-6 2 -4 40.4572 8.00177 3
6 -2 4 25.6253 7.06211 1
-7 2 -4 47.0511 8.86812 1
-7 2 -4 10.7248 7.38331 3
7 -2 4 24.1535 7.72149 1
-8 2 -4 65.3401 11.0585 3
-8 2 -4 72.4089 11.2601 1
8 -2 4 68.8025 10.6409 1
-9 2 -4 60.4348 12.3935 3
9 -2 4 71.921 12.6934 1
9 1 -4 24.4832 9.03673 1
-9 -1 4 34.1791 11.0415 3
8 1 -4 24.6456 7.54406 1
-8 -1 4 14.0654 8.91156 3
7 1 -4 7.52238 5.99755 1
-7 -1 4 7.52997 7.70883 3
6 1 -4 25.9172 6.20864 1
6 1 -4 30.8408 6.63616 2
-6 -1 4 3.56933 5.37867 2
-6 -1 4 26.1679 8.00828 3
5 1 -4 143.356 10.5103 2
5 1 -4 132.162 8.88544 1
-5 -1 4 135.095 10.4964 2
-5 -1 4 140.365 11.4288 3
4 1 -4 367.437 11.6241 1
4 1 -4 361.049 14.4273 2
-4 -1 4 371.676 14.1758 3
3 1 -4 683.031 19.1874 2
3 1 -4 637.308 14.3426 1
-3 -1 4 659.623 16.4483 3
2 1 -4 319.711 13.379 2
2 1 -4 313.342 8.96398 1
-2 -1 4 325.865 10.2431 3
1 1 -4 1202.6 26.0429 2
1 1 -4 1204.03 18.6927 1
-1 -1 4 1171.09 19.2143 3
0 1 -4 1912.51 34.8455 2
0 1 -4 1901.06 26.644 1
0 -1 4 1966.33 26.0958 3
-1 1 -4 81.1723 5.59405 1
-1 1 -4 69.0612 7.84584 2
-1 1 -4 73.2942 4.3266 3
-2 1 -4 318.973 9.87166 1
-2 1 -4 350.834 12.9666 2
-2 1 -4 332.914 8.77602 3
-3 1 -4 179.762 7.78247 3
-3 1 -4 167.823 8.83904 1
-3 1 -4 173.69 9.95547 2
-4 1 -4 57.6128 6.34536 3
-4 1 -4 52.0282 6.53289 2
-4 1 -4 42.4588 6.39133 1
4 -1 4 59.3308 6.70673 1
-5 1 -4 358.155 13.7325 3
-5 1 -4 381.665 12.7776 2
-5 1 -4 389.879 14.7761 1
5 -1 4 363.222 14.3125 1
-6 1 -4 534.526 18.1115 1
-6 1 -4 507.641 18.1944 3
6 -1 4 525.907 18.5329 1
-7 1 -4 292.469 15.7095 1
-7 1 -4 279.41 15.4921 3
7 -1 4 298.09 15.9012 1
-8 1 -4 23.4463 8.74098 1
-8 1 -4 31.7581 8.97361 3
8 -1 4 21.6993 8.48792 1
-9 1 -4 66.3909 11.8448 3
9 -1 4 59.8738 11.3922 1
-10 1 -4 109.626 15.2588 3
10 -1 4 97.8713 14.2651 1
9 0 -4 182.435 15.2079 1
-9 0 4 147.799 17.4694 3
8 0 -4 206.83 14.082 1
-8 0 4 211.691 18.5418 3
7 0 -4 312.538 14.9215 1
-7 0 4 312.259 19.1523 3
6 0 -4 163.111 10.6034 1
-6 0 4 171.023 14.1288 3
-6 0 4 180.645 11.4575 2
5 0 -4 56.0746 7.70203 2
5 0 -4 55.8974 6.47804 1
-5 0 4 51.8012 7.52882 2
-5 0 4 48.4135 8.68354 3
4 0 -4 33.2974 4.81074 1
4 0 -4 33.0263 6.26808 2
-4 0 4 23.6812 5.96872 3
-4 0 4 33.0201 6.36912 2
3 0 -4 58.4441 7.44789 2
3 0 -4 67.3398 5.37935 1
-3 0 4 50.8422 6.75468 3
-3 0 4 53.3404 7.24457 2
2 0 -4 44.5903 6.8756 2
2 0 -4 42.4698 3.89721 1
-2 0 4 47.9166 5.86754 3
-2 0 4 34.1689 6.37608 2
1 0 -4 1631.64 22.0509 1
1 0 -4 1614.78 31.1802 2
-1 0 4 1613.98 25.7387 3
0 0 -4 634.984 17.6427 2
0 0 -4 657.846 11.3286 1
0 0 4 668.122 13.0538 3
-1 0 -4 641.107 17.1969 2
-1 0 -4 615.125 12.1222 3
-1 0 -4 623.085 11.8764 1
1 0 4 643.321 12.3393 3
-2 0 -4 0.24767 2.99426 1
-2 0 -4 4.30535 2.88175 3
-2 0 -4 -0.0859 4.37609 2
-3 0 -4 -4.9842 3.72652 2
-3 0 -4 -0.4759 3.35955 1
-3 0 -4 2.42893 3.29247 3
-4 0 -4 237.46 9.76227 2
-4 0 -4 243.422 9.9921 3
-4 0 -4 232.761 10.2777 1
4 0 4 270.52 10.8557 1
-5 0 -4 475.26 15.2465 1
-5 0 -4 442.271 14.6872 3
-5 0 -4 457.695 12.1504 2
5 0 4 446.081 15.3066 1
-6 0 -4 559.431 18.3297 1
-6 0 -4 567.36 18.291 3
6 0 4 547.275 18.1867 1
-7 0 -4 614.017 20.8108 3
-7 0 -4 618.475 20.9746 1
7 0 4 623.788 21.0575 1
-8 0 -4 6.10025 7.47647 3
8 0 4 8.94183 7.21828 1
-9 0 -4 39.0178 10.071 3
9 0 4 53.9585 10.9176 1
-10 0 -4 167.48 16.8811 3
10 0 4 158.239 16.5451 1
9 -1 -4 49.4763 10.0272 1
-9 1 4 33.4312 12.7182 3
8 -1 -4 228.291 14.8215 1
-8 1 4 204.49 18.8796 3
7 -1 -4 7.6773 6.22379 1
-7 1 4 1.39974 7.97322 3
6 -1 -4 70.3619 7.98412 1
-6 1 4 69.1893 11.1211 3
-6 1 4 66.0964 8.9397 2
5 -1 -4 74.7138 7.29057 1
-5 1 4 77.6182 9.15925 2
-5 1 4 65.0469 9.9567 3
4 -1 -4 194.056 8.63376 1
-4 1 4 198.099 12.4845 3
-4 1 4 205.508 11.9692 2
3 -1 -4 20.759 3.59147 1
3 -1 -4 9.67976 5.321 2
-3 1 4 18.0819 5.73839 3
-3 1 4 19.8688 6.0333 2
2 -1 -4 44.2902 3.6659 1
2 -1 -4 43.4553 6.77407 2
-2 1 4 35.2631 6.64478 2
-2 1 4 36.0837 5.86507 3
1 -1 -4 494.707 16.1078 2
1 -1 -4 515.187 8.71126 1
-1 1 4 550.795 16.6716 2
-1 1 4 509.435 13.5758 3
0 -1 -4 305.035 6.1046 1
0 -1 -4 313.511 12.6437 2
0 1 4 311.941 12.6697 2
0 1 4 320.11 9.82875 3
-1 -1 -4 114.491 4.8661 1
-1 -1 -4 129.432 9.14766 2
-1 -1 -4 120.613 6.25712 3
1 1 4 118.422 8.91295 2
1 1 4 108.954 5.98272 3
-2 -1 -4 434.289 13.4195 2
-2 -1 -4 411.129 10.757 3
-2 -1 -4 417.046 10.0045 1
2 1 4 414.063 12.9714 2
2 1 4 436.928 10.0597 1
-3 -1 -4 1077.47 20.1154 3
-3 -1 -4 1049.43 21.2175 2
-3 -1 -4 1027.98 19.2852 1
3 1 4 1079.17 19.4825 1
3 1 4 1066.49 21.3182 2
-4 -1 -4 2110.4 33.8735 2
-4 -1 -4 2117.43 34.316 3
-4 -1 -4 2209.5 34.0745 1
4 1 4 2164.59 33.7274 1
4 1 4 2138.41 33.9267 2
-5 -1 -4 10.7947 3.3279 2
-5 -1 -4 9.06531 4.67496 1
-5 -1 -4 8.64372 4.6999 3
5 1 4 13.771 4.92662 1
5 1 4 13.083 3.50148 2
-6 -1 -4 139.258 10.3853 3
6 1 4 142.868 10.7623 1
-7 -1 -4 20.7558 6.51343 3
7 1 4 21.0741 6.81966 1
-8 -1 -4 3.49921 6.23213 3
8 1 4 10.0747 6.70273 1
-9 -1 -4 23.877 9.05999 3
9 1 4 26.2959 8.6738 1
-10 -1 -4 11.8456 9.05474 3
10 1 4 12.274 9.21114 1
8 -2 -4 41.5221 8.75836 1
-8 2 4 16.0951 11.5732 3
7 -2 -4 -0.2801 5.58479 1
-7 2 4 20.2553 9.6043 3
6 -2 -4 88.9449 8.8904 1
-6 2 4 63.2245 11.6338 3
-6 2 4 75.0547 9.65578 2
5 -2 -4 -0.3928 4.23421 1
-5 2 4 -1.4585 5.57259 2
-5 2 4 10.024 7.22897 3
4 -2 -4 34.7168 4.98988 1
-4 2 4 32.2358 7.29568 2
-4 2 4 36.0354 8.31701 3
3 -2 -4 12.7882 3.14923 1
-3 2 4 16.9217 6.12361 2
-3 2 4 8.47039 5.94767 3
2 -2 -4 505.951 9.41961 1
-2 2 4 511.294 17.2277 2
-2 2 4 537.653 16.3536 3
-1 2 4 790.665 21.096 2
-1 2 4 795.414 18.784 3
0 2 4 168.163 8.70642 3
0 2 4 163.635 10.6756 2
-1 -2 -4 525.688 8.76544 1
-1 -2 -4 529.303 15.9437 2
-1 -2 -4 517.886 13.0044 3
1 2 4 534.503 16.044 2
1 2 4 514.266 13.0501 3
1 2 4 521.39 8.63971 1
-2 -2 -4 64.0561 4.51889 1
-2 -2 -4 61.8093 5.87784 3
2 2 4 60.4772 4.29797 1
2 2 4 70.9519 6.14507 3
2 2 4 52.8264 6.44345 2
-3 -2 -4 845.52 17.87 3
3 2 4 806.708 18.644 2
3 2 4 827.581 16.0198 1
-4 -2 -4 224.833 10.4436 3
4 2 4 227.017 9.23305 1
4 2 4 221.381 9.32116 2
-5 -2 -4 125.535 9.87076 3
5 2 4 110.831 6.63296 2
5 2 4 120.228 8.42522 1
-6 -2 -4 80.7181 8.90295 3
6 2 4 81.4943 8.45149 1
-7 -2 -4 8.23993 6.09416 3
7 2 4 4.91066 5.64852 1
-8 -2 -4 301.053 16.4362 3
8 2 4 311.164 16.402 1
-9 -2 -4 4.53885 7.42257 3
9 2 4 -3.6232 7.01884 1
-10 -2 -4 90.4737 13.0564 3
10 2 4 83.1419 12.788 1
-8 3 4 25.3283 11.1539 3
-7 3 4 19.3011 10.1819 3
6 -3 -4 75.3543 8.31351 1
-6 3 4 72.6313 10.5554 2
-6 3 4 62.0376 11.4648 3
5 -3 -4 314.182 11.7761 1
-5 3 4 299.857 18.3259 3
-5 3 4 315.432 16.218 2
4 -3 -4 467.365 12.4135 1
-4 3 4 454.807 18.1148 2
-4 3 4 487.168 20.2324 3
3 -3 -4 445.454 10.2729 1
-3 3 4 428.224 17.1045 3
-3 3 4 434.364 17.302 2
2 -3 -4 1053.86 14.9737 1
-2 3 4 1028.31 26.2097 2
-2 3 4 1036.51 24.6236 3
-1 3 4 682.732 18.6761 3
-1 3 4 711.014 21.1529 2
0 3 4 17.4415 5.90821 2
0 3 4 20.8202 5.43027 3
-1 -3 -4 759.192 17.224 3
1 3 4 752.839 17.5181 3
1 3 4 721.906 20.3973 2
-2 -3 -4 399.878 12.4665 3
2 3 4 428.737 8.84857 1
2 3 4 434.626 12.9318 3
2 3 4 422.497 14.9126 2
-3 -3 -4 -1.8709 3.42484 3
3 3 4 3.16536 2.59115 1
3 3 4 0.99126 3.63434 2
-4 -3 -4 22.4673 4.83223 3
4 3 4 27.2556 4.87465 2
4 3 4 28.1806 4.57442 1
-5 -3 -4 577.528 16.9815 3
5 3 4 566.943 14.6412 2
5 3 4 541.04 15.5658 1
-6 -3 -4 26.1955 6.54676 3
6 3 4 13.5085 5.27176 1
-7 -3 -4 311.887 15.0746 3
7 3 4 297.21 14.8043 1
-8 -3 -4 129.456 12.0547 3
8 3 4 154.087 13.4172 1
-9 -3 -4 172.488 15.1191 3
9 3 4 225.033 15.8736 1
-10 -3 -4 343.499 20.223 3
10 3 4 315.474 19.4866 1
-7 4 4 56.2065 13.7401 3
-6 4 4 109.266 13.069 2
-6 4 4 105.446 15.0185 3
-5 4 4 53.8153 10.2997 2
-5 4 4 43.7668 10.4816 3
-4 4 4 461.933 20.1897 2
-4 4 4 439.515 20.2894 3
-3 4 4 444.756 19.2772 2
-3 4 4 447.17 18.715 3
-2 4 4 544.735 20.0358 2
-2 4 4 542.518 18.866 3
-1 4 4 292.65 14.0403 3
-1 4 4 296.58 15.0753 2
0 4 4 309.375 14.5244 2
0 4 4 295.285 12.7956 3
-1 -4 -4 106.729 8.1461 3
1 4 4 108.043 10.0172 2
1 4 4 105.1 8.6113 3
-2 -4 -4 22.2537 4.84693 3
2 4 4 36.3848 5.59527 3
2 4 4 35.5486 3.072 1
2 4 4 26.9494 6.2465 2
-3 -4 -4 1105.22 22.848 3
3 4 4 1038.95 24.6193 2
3 4 4 1051.46 22.4989 3
3 4 4 1050.55 18.1094 1
-4 -4 -4 7.87035 4.52523 3
4 4 4 10.1767 3.58855 1
4 4 4 10.3561 4.78612 2
-5 -4 -4 16.5861 5.389 3
5 4 4 10.9723 4.82478 2
5 4 4 16.2009 4.68693 1
-6 -4 -4 257.462 13.2823 3
6 4 4 281.257 12.6707 1
6 4 4 281.072 11.3918 2
-7 -4 -4 100.76 10.7693 3
7 4 4 75.1976 8.86044 1
-8 -4 -4 13.6175 7.11198 3
8 4 4 20.9439 7.47227 1
-9 -4 -4 7.37024 7.48322 3
9 4 4 4.36201 6.81254 1
-10 -4 -4 79.5531 12.6182 3
10 4 4 78.9349 12.2934 1
-7 5 4 184.225 19.5337 3
-6 5 4 115.009 14.9095 2
-6 5 4 75.8822 14.5328 3
-5 5 4 56.1594 12.6778 3
-5 5 4 70.1403 12.2837 2
-4 5 4 8.14581 8.58995 2
-4 5 4 5.10012 8.67495 3
-3 5 4 -6.3221 7.13159 3
-3 5 4 -8.7229 6.78576 2
-2 5 4 143.678 13.6986 2
-2 5 4 157.696 13.1225 3
-1 5 4 807.767 25.7919 2
-1 5 4 788.829 23.0925 3
0 5 4 247.053 13.5527 3
0 5 4 257.503 15.3803 2
1 5 4 19.4939 5.54032 3
1 5 4 21.7681 7.35166 2
-2 -5 -4 76.0914 7.78607 3
2 5 4 68.0781 4.10832 1
2 5 4 76.6573 8.09299 3
2 5 4 61.5363 8.91204 2
-3 -5 -4 27.0735 5.7107 3
3 5 4 36.0129 7.46814 2
3 5 4 28.5878 3.84833 1
3 5 4 22.893 5.46444 3
-4 -5 -4 540.223 16.7714 3
4 5 4 507.655 13.2275 1
4 5 4 516.834 18.1983 2
-5 -5 -4 1073.19 25.0926 3
5 5 4 1041.77 25.6487 2
5 5 4 1050.52 22.2207 1
-6 -5 -4 196.7 12.1553 3
6 5 4 205.715 11.179 1
6 5 4 225.181 12.1348 2
-7 -5 -4 118.827 11.4276 3
7 5 4 104.726 10.1294 1
-8 -5 -4 131.608 12.8474 3
8 5 4 138.099 12.4433 1
-9 -5 -4 68.9202 11.3769 3
9 5 4 57.0955 9.86371 1
-10 -5 -4 5.29939 8.89122 3
10 5 4 11.7734 8.06119 1
-6 6 4 72.3254 14.9163 2
-6 6 4 99.4752 17.1371 3
-5 6 4 24.7104 11.8712 2
-5 6 4 46.2487 12.8322 3
-4 6 4 32.5109 11.1002 3
-4 6 4 57.3638 12.396 2
-3 6 4 24.1004 9.36594 3
-3 6 4 31.5477 10.6774 2
-2 6 4 117.592 14.1591 2
-2 6 4 154.064 14.0966 3
-1 6 4 -5.5986 7.78437 2
-1 6 4 1.53612 6.9745 3
0 6 4 29.3975 7.56651 3
0 6 4 23.3554 9.11064 2
1 6 4 246.959 16.5084 2
1 6 4 243.96 13.4717 3
-2 -6 -4 34.6699 7.07334 3
2 6 4 28.8208 6.57382 3
2 6 4 17.3784 7.76356 2
-3 -6 -4 80.9972 8.67206 3
3 6 4 68.494 8.05117 3
3 6 4 75.6357 5.60028 1
3 6 4 67.8966 9.96171 2
-4 -6 -4 146.082 11.0817 3
4 6 4 145.313 8.02361 1
4 6 4 126.16 12.1117 2
4 6 4 137.608 10.5978 3
-5 -6 -4 81.6533 9.10931 3
5 6 4 88.8862 7.71256 1
5 6 4 79.6699 10.0382 2
-6 -6 -4 42.9987 7.9968 3
6 6 4 51.8512 7.06932 1
6 6 4 50.2533 8.57425 2
-7 -6 -4 243.91 15.3699 3
7 6 4 272.818 14.1134 1
-8 -6 -4 162.706 14.132 3
8 6 4 164.671 13.6522 1
-9 -6 -4 4.2496 7.29532 3
9 6 4 -16.495 5.73368 1
-5 7 4 -4.3391 10.8786 3
-5 7 4 -1.8491 11.5685 2
-4 7 4 3.73667 10.7365 3
-4 7 4 4.17507 11.3096 2
-3 7 4 82.371 14.5431 2
-3 7 4 83.0733 13.356 3
-2 7 4 20.1271 11.2435 2
-2 7 4 25.4319 10.3433 3
-1 7 4 82.2108 13.5635 2
-1 7 4 88.5054 11.44 3
0 7 4 111.419 12.5606 3
0 7 4 88.3524 13.0902 2
1 7 4 161.894 15.5515 2
1 7 4 188.524 13.8712 3
2 7 4 457.866 17.641 3
2 7 4 474.443 22.2876 2
-3 -7 -4 57.1447 8.60493 3
3 7 4 47.9575 10.0343 2
3 7 4 66.0814 8.95166 3
-4 -7 -4 55.3651 8.66303 3
4 7 4 54.6117 6.09203 1
4 7 4 41.6595 8.00505 3
4 7 4 42.2272 9.44707 2
-5 -7 -4 6.41104 6.06745 3
5 7 4 -7.0868 6.78209 2
5 7 4 7.76889 5.89725 3
5 7 4 -6.8056 3.81728 1
-6 -7 -4 37.5043 8.38404 3
6 7 4 33.7783 8.785 2
6 7 4 42.0822 6.94873 1
-7 -7 -4 28.9623 7.9547 3
7 7 4 26.2885 7.09088 1
-8 -7 -4 4.74023 7.53702 3
8 7 4 4.49268 6.52566 1
-9 -7 -4 67.3207 11.3043 3
9 7 4 68.6699 10.9784 1
-4 8 4 9.66868 11.3659 3
-4 8 4 7.4365 12.8205 2
-3 8 4 3.70945 12.5583 2
-3 8 4 -0.7309 10.0433 3
-2 8 4 123.253 17.2217 2
-2 8 4 124.755 15.0129 3
-1 8 4 175.052 18.6807 2
-1 8 4 189.17 16.6005 3
0 8 4 12.8059 8.06909 3
0 8 4 3.86732 10.0916 2
1 8 4 403.875 19.4352 3
2 8 4 169.098 16.9441 2
2 8 4 225.367 14.982 3
-3 -8 -4 39.6974 8.66894 3
3 8 4 37.8658 8.22139 3
3 8 4 31.0685 10.3465 2
-4 -8 -4 33.4947 8.28618 3
4 8 4 22.4106 7.35484 3
4 8 4 32.4158 10.0241 2
-5 -8 -4 -8.3096 5.66463 3
5 8 4 -5.8811 5.76882 3
5 8 4 -9.0395 7.21128 2
-6 -8 -4 109.163 12.1485 3
6 8 4 115.529 13.8989 2
6 8 4 133.084 12.6021 3
-7 -8 -4 9.64497 7.52402 3
7 8 4 9.19618 6.89552 1
7 8 4 10.7368 7.22642 3
-8 -8 -4 64.851 11.5562 3
8 8 4 71.5915 10.3974 1
-2 9 4 97.9473 18.3751 2
-2 9 4 96.6718 15.142 3
-1 9 4 9.52572 9.40843 3
-1 9 4 2.91503 12.7429 2
0 9 4 -1.197 11.3822 2
0 9 4 6.58741 9.64464 3
1 9 4 -2.5132 10.7345 2
1 9 4 -15.547 7.10614 3
2 9 4 17.1209 8.51009 3
2 9 4 24.7915 11.8331 2
3 9 4 90.2699 14.2364 2
3 9 4 94.0434 12.2211 3
-4 -9 -4 0.33249 7.5727 3
4 9 4 18.7093 8.13947 3
4 9 4 11.6332 9.39073 2
-5 -9 -4 176.898 14.817 3
5 9 4 116.1 15.1177 2
5 9 4 177.594 14.7119 3
-6 -9 -4 144.079 13.9111 3
6 9 4 175.408 15.1742 3
6 9 4 104.101 14.4367 2
-7 -9 -4 2.85059 8.11676 3
7 9 4 16.8737 8.39666 3
1 10 4 141.297 19.9168 2
1 10 4 118.945 14.9442 3
2 10 4 54.748 11.4066 3
2 10 4 44.4603 14.0584 2
3 10 4 57.4123 13.8831 2
3 10 4 69.741 11.9442 3
4 10 4 0.41861 10.6779 2
4 10 4 28.754 9.62053 3
5 9 -5 141.738 13.6305 1
5 9 -5 99.1416 17.3279 2
4 9 -5 178.014 19.6823 2
4 9 -5 191.734 15.3515 1
3 9 -5 361.02 25.8315 2
3 9 -5 329.271 17.7809 1
2 9 -5 139.642 18.6755 2
2 9 -5 115.057 12.6685 1
1 9 -5 47.8049 9.72781 1
1 9 -5 43.3673 15.2222 2
0 9 -5 56.6482 10.1442 1
0 9 -5 62.387 16.5412 2
-1 9 -5 20.0107 8.86327 1
-1 9 -5 5.86794 14.1204 2
-2 9 -5 5.28146 8.64288 1
-2 9 -5 9.21126 14.2534 2
6 8 -5 13.5549 8.11662 1
6 8 -5 -17.401 9.38263 2
5 8 -5 37.0672 8.40799 1
5 8 -5 32.7812 12.6586 2
4 8 -5 377.195 24.5557 2
4 8 -5 365.051 17.5143 1
3 8 -5 755.324 23.6021 1
3 8 -5 771.765 32.1926 2
2 8 -5 251.663 14.9571 1
2 8 -5 326.696 23.4517 2
1 8 -5 84.4901 10.5188 1
1 8 -5 83.7811 15.9698 2
0 8 -5 79.6208 15.6688 2
0 8 -5 90.1027 11.0441 1
-1 8 -5 9.70841 12.1219 2
-1 8 -5 10.3028 7.23974 1
-2 8 -5 12.9365 7.87398 1
-2 8 -5 -4.6484 12.0582 2
-3 8 -5 623.799 31.9987 2
-3 8 -5 583.925 23.4005 1
-4 8 -5 519.385 31.9942 2
-4 8 -5 546.238 23.8472 1
7 7 -5 20.9359 8.24185 1
6 7 -5 172.135 17.6019 2
6 7 -5 112.275 11.6542 1
5 7 -5 84.7209 13.904 2
5 7 -5 93.6614 10.4557 1
4 7 -5 30.8351 7.42412 1
4 7 -5 33.4282 11.5244 2
3 7 -5 47.8809 8.18196 1
3 7 -5 58.4606 12.3581 2
2 7 -5 71.8155 12.948 2
2 7 -5 69.2303 8.68405 1
1 7 -5 854.891 31.6614 2
1 7 -5 826.524 22.9565 1
0 7 -5 175.536 12.4352 1
0 7 -5 161.754 17.3216 2
-1 7 -5 117.178 11.0346 1
-1 7 -5 125.497 16.2893 2
-2 7 -5 2.74191 6.63737 1
-2 7 -5 3.68033 11.7713 2
-3 7 -5 218.805 20.8704 2
-3 7 -5 240.043 15.6335 1
-4 7 -5 105.601 12.9869 1
-4 7 -5 126.75 17.1235 2
-5 7 -5 370.116 25.8529 2
-5 7 -5 400.235 21.2358 1
8 6 -5 83.5958 12.0303 1
7 6 -5 113.857 12.3082 1
6 6 -5 -7.3154 5.8753 1
6 6 -5 -0.6467 9.19904 2
5 6 -5 -5.3152 4.85323 1
5 6 -5 1.99894 8.41154 2
4 6 -5 9.73077 5.48011 1
4 6 -5 5.46651 8.23624 2
3 6 -5 336.917 20.4194 2
3 6 -5 321.803 14.1956 1
2 6 -5 7.80389 9.03127 2
2 6 -5 3.5184 5.01682 1
1 6 -5 -0.6894 4.76677 1
1 6 -5 7.50333 9.03488 2
0 6 -5 97.7367 13.4372 2
0 6 -5 115.336 9.93598 1
-1 6 -5 7.83468 5.7509 1
-1 6 -5 3.88091 9.36127 2
-2 6 -5 117.29 15.149 2
-2 6 -5 94.2072 9.99009 1
-3 6 -5 170.559 17.2326 2
-3 6 -5 185.384 13.3784 1
-4 6 -5 90.6963 11.3947 1
-4 6 -5 85.1623 14.2964 2
-5 6 -5 19.0399 8.48518 1
-5 6 -5 10.4015 11.0153 2
-6 6 -5 29.0623 10.3915 1
6 -6 5 7.53916 8.44815 1
8 5 -5 114.963 12.8966 1
7 5 -5 143.965 13.2379 1
6 5 -5 222.153 13.561 1
6 5 -5 220.972 17.9628 2
5 5 -5 169.41 15.5518 2
5 5 -5 122.593 10.8163 1
4 5 -5 251.371 12.287 1
4 5 -5 249.801 16.981 2
3 5 -5 251.929 12.1779 1
3 5 -5 297.489 17.6809 2
2 5 -5 34.4158 6.25211 1
2 5 -5 39.3601 9.80516 2
1 5 -5 494.282 15.5826 1
1 5 -5 516.344 21.9506 2
0 5 -5 282.257 17.7398 2
0 5 -5 251.968 11.9759 1
-1 5 -5 907.562 21.9301 1
-1 5 -5 903.879 28.4641 2
-2 5 -5 98.5701 9.50326 1
-2 5 -5 104.407 12.8582 2
-3 5 -5 87.7432 9.67469 1
-3 5 -5 81.2737 11.7536 2
-4 5 -5 159.206 14.9449 2
-4 5 -5 155.288 12.8673 1
-5 5 -5 17.5432 9.53487 2
-5 5 -5 26.6109 8.31828 1
-6 5 -5 34.1479 9.74752 1
-6 5 -5 33.4033 11.3506 2
6 -5 5 14.9509 7.82006 1
-7 5 -5 144.437 15.828 1
7 -5 5 110.635 14.4721 1
9 4 -5 36.6662 9.86619 1
-9 -4 5 23.7687 9.94189 3
8 4 -5 22.8346 8.09003 1
-8 -4 5 14.5096 7.89958 3
7 4 -5 -0.3272 6.16469 1
-7 -4 5 -4.4803 6.04399 3
6 4 -5 12.7044 8.41846 2
6 4 -5 0.23508 5.3671 1
-6 -4 5 5.09388 5.38423 3
5 4 -5 156.648 14.4607 2
5 4 -5 148.84 10.7575 1
-5 -4 5 148.649 10.07 3
4 4 -5 8.17946 7.20057 2
4 4 -5 6.01151 4.73952 1
-4 -4 5 7.12302 4.3233 3
3 4 -5 418.067 18.9789 2
3 4 -5 405.254 13.6046 1
-3 -4 5 418.527 11.0553 3
2 4 -5 41.7517 5.90052 1
2 4 -5 23.2351 8.20302 2
-2 -4 5 32.028 2.95297 3
1 4 -5 37.9973 8.92259 2
1 4 -5 36.5766 5.79514 1
0 4 -5 -1.4281 6.45606 2
0 4 -5 0.54497 3.77403 1
-1 4 -5 334.802 12.5447 1
-1 4 -5 306.871 16.5545 2
-2 4 -5 612.718 21.9551 2
-2 4 -5 577.935 10.9653 3
-2 4 -5 592.78 16.9316 1
-3 4 -5 1589.48 37.0564 2
-3 4 -5 1663.61 26.2323 3
-3 4 -5 1671.67 32.0299 1
-4 4 -5 487.244 14.5808 3
-4 4 -5 464.062 19.7442 2
-4 4 -5 443.451 17.2687 1
-5 4 -5 243.747 13.1334 3
-5 4 -5 250.108 16.3333 2
-5 4 -5 225.769 14.6742 1
-6 4 -5 23.2015 8.39825 1
-6 4 -5 44.0603 10.4658 2
-6 4 -5 27.2691 8.24082 3
6 -4 5 16.1806 7.96886 1
-7 4 -5 136.951 14.6071 1
-7 4 -5 123.855 13.2958 3
7 -4 5 143.747 14.443 1
-8 4 -5 309.886 20.2451 1
-8 4 -5 311.284 19.5744 3
8 -4 5 288.387 20.4772 1
9 3 -5 7.5404 8.14205 1
-9 -3 5 -1.9199 7.82717 3
8 3 -5 153.447 13.78 1
-8 -3 5 113.412 13.6015 3
7 3 -5 73.6982 9.61822 1
-7 -3 5 65.9581 10.0579 3
6 3 -5 136.581 12.6964 2
6 3 -5 118.577 10.3723 1
-6 -3 5 136.657 11.8339 3
5 3 -5 589.461 21.6567 2
5 3 -5 608.097 17.6696 1
-5 -3 5 552.422 17.6522 3
4 3 -5 674.306 17.5244 1
4 3 -5 662.533 22.6104 2
-4 -3 5 662.69 17.3351 3
3 3 -5 268.154 15.1142 2
3 3 -5 271.879 10.7672 1
-3 -3 5 273.41 9.81595 3
2 3 -5 40.8561 8.14503 2
2 3 -5 22.8232 4.61636 1
-2 -3 5 32.6751 3.98725 3
1 3 -5 57.7605 5.96467 1
1 3 -5 49.0262 8.54886 2
0 3 -5 57.1204 6.00603 1
0 3 -5 68.4869 9.26469 2
-1 3 -5 195.989 12.8713 2
-1 3 -5 148.062 8.68402 1
-2 3 -5 157.333 9.37198 1
-2 3 -5 155.345 5.77123 3
-2 3 -5 151.732 12.7541 2
-3 3 -5 -6.1041 4.11673 1
-3 3 -5 0.38902 6.21011 2
-3 3 -5 -4.4732 3.07486 3
-4 3 -5 194.209 9.70123 3
-4 3 -5 197.426 13.5999 2
-4 3 -5 186.766 11.7903 1
-5 3 -5 403.1 17.5604 2
-5 3 -5 408.526 16.7955 1
-5 3 -5 387.114 14.8086 3
-6 3 -5 41.3842 9.41607 2
-6 3 -5 55.3978 8.93797 3
-6 3 -5 37.1348 8.53091 1
6 -3 5 43.2196 8.69416 1
-7 3 -5 4.48607 7.74252 3
-7 3 -5 27.6803 8.91556 1
7 -3 5 11.4609 7.62135 1
-8 3 -5 1.55238 8.29782 3
-8 3 -5 14.7025 8.94586 1
8 -3 5 -0.1272 8.38548 1
-9 3 -5 13.6444 10.1139 3
-9 3 -5 25.1601 11.2769 1
9 -3 5 29.3747 10.8904 1
9 2 -5 1.2291 7.32173 1
-9 -2 5 13.4468 9.66526 3
8 2 -5 20.2495 7.54237 1
-8 -2 5 27.9004 9.46898 3
7 2 -5 24.5235 7.01778 1
-7 -2 5 23.718 8.35507 3
6 2 -5 146.257 10.9962 1
6 2 -5 154.481 12.7896 2
-6 -2 5 177.267 13.1341 3
-6 -2 5 166.111 12.764 2
5 2 -5 559.961 20.0195 2
5 2 -5 581.593 16.8088 1
-5 -2 5 594.79 19.0005 3
4 2 -5 783.556 18.3832 1
4 2 -5 752.733 23.0826 2
-4 -2 5 797.075 19.844 3
3 2 -5 952.91 19.348 1
3 2 -5 1021.12 26.3785 2
-3 -2 5 997.342 20.6104 3
2 2 -5 663.59 21.0071 2
2 2 -5 662.671 14.7701 1
-2 -2 5 646.625 14.2237 3
1 2 -5 178.027 7.91914 1
1 2 -5 188.352 12.7243 2
-1 -2 5 179.91 6.35736 3
0 2 -5 -3.1216 5.33854 2
0 2 -5 0.05911 2.88387 1
0 -2 5 -2.2064 1.83526 3
-1 2 -5 1212.52 17.134 3
-1 2 -5 1126.71 27.4025 2
-1 2 -5 1200.44 21.5083 1
1 -2 5 1169.5 17.095 3
-2 2 -5 1100.74 21.5383 1
-2 2 -5 1091.2 26.326 2
-2 2 -5 1118.37 17.8158 3
-3 2 -5 1066.49 25.894 2
-3 2 -5 1072.45 22.4516 1
-3 2 -5 1090.64 19.5006 3
-4 2 -5 592.167 15.3577 3
-4 2 -5 598.181 19.1489 2
-4 2 -5 615.221 17.9955 1
-5 2 -5 332.008 14.7472 2
-5 2 -5 312.923 13.2963 3
-5 2 -5 328.752 14.7723 1
5 -2 5 326.333 14.7561 1
-6 2 -5 9.78419 6.49852 1
-6 2 -5 15.048 6.43595 3
6 -2 5 3.40923 6.29992 1
-7 2 -5 9.10875 7.28214 3
-7 2 -5 1.39098 6.87831 1
7 -2 5 0.29001 6.81344 1
-8 2 -5 16.5101 8.86105 3
-8 2 -5 5.58858 8.44014 1
8 -2 5 15.1199 8.78115 1
-9 2 -5 203.85 18.3159 1
-9 2 -5 207.6 17.8497 3
9 -2 5 269.285 20.5228 1
9 1 -5 11.7036 8.2172 1
-9 -1 5 12.0861 10.5839 3
8 1 -5 7.4047 7.11432 1
-8 -1 5 13.8974 9.33744 3
7 1 -5 -6.4096 4.79982 1
-7 -1 5 -6.8115 6.72198 3
6 1 -5 90.3443 8.76686 1
6 1 -5 98.3284 10.5562 2
-6 -1 5 97.2575 10.1159 2
-6 -1 5 95.9907 11.2287 3
5 1 -5 164.294 12.7538 2
5 1 -5 155.727 9.64481 1
-5 -1 5 156.895 12.263 3
-5 -1 5 153.872 12.7044 2
4 1 -5 0.37812 3.30409 1
4 1 -5 7.14148 5.91451 2
-4 -1 5 6.93023 5.71983 2
-4 -1 5 -2.7564 4.87804 3
3 1 -5 1057.66 26.7353 2
3 1 -5 1139.46 20.4469 1
-3 -1 5 1096.63 23.1747 3
2 1 -5 379.609 15.8111 2
2 1 -5 342.615 9.79248 1
-2 -1 5 353.242 11.3873 3
1 1 -5 441.684 10.5803 1
1 1 -5 423.754 16.3806 2
-1 -1 5 430.895 11.0967 3
0 1 -5 342.605 15.0098 2
0 1 -5 342.797 9.5373 1
0 -1 5 362.354 9.23365 3
-1 1 -5 41.6017 4.82647 1
-1 1 -5 34.1169 7.26203 2
-1 1 -5 42.213 3.90551 3
1 -1 5 37.082 3.69717 3
-2 1 -5 195.356 8.68457 1
-2 1 -5 193.431 7.1449 3
-2 1 -5 189.178 11.5395 2
-3 1 -5 903.089 17.8024 3
-3 1 -5 898.644 19.6941 1
-3 1 -5 952.151 22.9819 2
-4 1 -5 3445.45 50.9181 1
-4 1 -5 3420.84 49.2311 3
-4 1 -5 3550.7 55.0931 2
-5 1 -5 1041.06 23.3463 3
-5 1 -5 1043.99 23.8834 2
-5 1 -5 1048.7 24.5995 1
5 -1 5 1097.38 25.0732 1
-6 1 -5 202.975 12.5071 3
-6 1 -5 221.206 13.1089 1
6 -1 5 210.081 13.0607 1
-7 1 -5 298.647 15.4257 3
-7 1 -5 313.957 16.1403 1
7 -1 5 313.959 16.2659 1
-8 1 -5 125.722 13.0161 3
-8 1 -5 109.432 12.4795 1
8 -1 5 134.745 13.3102 1
-9 1 -5 72.7403 12.0178 3
9 -1 5 83.9244 12.9214 1
9 0 -5 72.3845 11.2504 1
-9 0 5 72.9549 14.4078 3
8 0 -5 116.33 11.8168 1
-8 0 5 109.246 14.8039 3
7 0 -5 91.5267 9.87859 1
-7 0 5 98.7727 13.0959 3
6 0 -5 -3.8545 4.42545 1
-6 0 5 -2.1641 7.25908 3
-6 0 5 -0.9727 5.80052 2
5 0 -5 1211.13 29.961 2
5 0 -5 1301.21 24.8341 1
-5 0 5 1292.49 30.8352 3
-5 0 5 1244.3 30.2149 2
4 0 -5 159.278 8.15444 1
4 0 -5 147.051 11.882 2
-4 0 5 145.451 11.0929 3
-4 0 5 153.352 11.9186 2
3 0 -5 0.33486 5.53388 2
3 0 -5 -2.2058 2.49506 1
-3 0 5 3.79636 4.68808 3
-3 0 5 6.09214 5.53622 2
2 0 -5 527.344 11.2696 1
2 0 -5 510.815 18.0601 2
-2 0 5 530.878 18.2386 2
-2 0 5 544.633 15.0992 3
1 0 -5 204.852 12.4833 2
1 0 -5 208.975 6.57687 1
-1 0 5 232.869 9.36752 3
0 0 -5 407.247 9.14152 1
0 0 -5 406.719 15.5746 2
0 0 5 391.991 10.6992 3
-1 0 -5 321.555 13.9067 2
-1 0 -5 346.815 9.53874 3
-1 0 -5 331.159 8.91941 1
1 0 5 343.162 9.4587 3
-2 0 -5 119.64 6.47277 3
-2 0 -5 142.167 7.10324 1
-2 0 -5 136.095 10.0234 2
-3 0 -5 163.4 8.44056 1
-3 0 -5 157.788 7.90595 3
-3 0 -5 143.815 9.79172 2
-4 0 -5 100.704 8.3483 2
-4 0 -5 84.8988 7.38122 3
-4 0 -5 87.065 7.73918 1
4 0 5 82.2079 7.61893 1
-5 0 -5 86.1797 7.45753 2
-5 0 -5 91.2818 8.3971 3
-5 0 -5 81.0741 8.47411 1
5 0 5 87.9689 8.82553 1
-6 0 -5 375.791 15.1934 3
-6 0 -5 361.948 15.5284 1
6 0 5 383.496 15.7311 1
-7 0 -5 134.44 12.3796 3
-7 0 -5 148.714 12.9079 1
7 0 5 114.111 11.4654 1
-8 0 -5 631.751 23.1407 3
8 0 5 599.343 22.936 1
-9 0 -5 455.947 21.5684 3
9 0 5 472.307 22.1606 1
-10 0 -5 51.2867 12.2649 3
10 0 5 53.0794 12.0692 1
8 -1 -5 4.85733 6.69295 1
-8 1 5 -1.5819 9.5065 3
7 -1 -5 218.481 12.8971 1
-7 1 5 218.517 18.6736 3
6 -1 -5 1.05598 4.92736 1
-6 1 5 -3.3308 7.29907 3
-6 1 5 3.68554 5.92243 2
5 -1 -5 126.492 8.90274 1
-5 1 5 109.17 11.6989 3
-5 1 5 114.237 11.2321 2
4 -1 -5 72.9263 9.65205 2
4 -1 -5 79.5958 6.38609 1
-4 1 5 88.2645 10.4405 3
-4 1 5 77.9262 9.36928 2
3 -1 -5 726.505 14.2618 1
3 -1 -5 703.254 21.7429 2
-3 1 5 741.975 22.216 2
-3 1 5 746.429 20.7487 3
2 -1 -5 48.8786 3.75811 1
2 -1 -5 45.7796 7.59623 2
-2 1 5 45.2101 6.73929 3
-2 1 5 46.5332 7.54596 2
1 -1 -5 1432.1 30.7648 2
1 -1 -5 1395.13 19.1457 1
-1 1 5 1417.93 26.1373 3
-1 1 5 1396.77 30.5722 2
0 -1 -5 662.53 19.5921 2
0 -1 -5 636.545 10.6941 1
0 1 5 618.422 19.1876 2
0 1 5 647.546 15.3393 3
-1 -1 -5 236.514 6.81495 1
-1 -1 -5 234.646 8.7675 3
-1 -1 -5 220.525 11.7925 2
1 1 5 233.613 12.1497 2
1 1 5 236.93 8.85794 3
-2 -1 -5 134.827 6.50879 1
-2 -1 -5 133.707 7.1726 3
-2 -1 -5 116.471 9.46227 2
2 1 5 135.368 7.0806 3
2 1 5 135.673 9.48342 2
-3 -1 -5 9.94573 3.76566 1
-3 -1 -5 7.84081 4.74461 2
-3 -1 -5 5.07278 3.58678 3
3 1 5 3.37109 3.03058 1
3 1 5 8.4074 4.27058 2
-4 -1 -5 161.868 9.11706 2
-4 -1 -5 154.913 8.86238 3
-4 -1 -5 150.184 8.79167 1
4 1 5 145.199 8.81018 2
4 1 5 160.552 8.73073 1
-5 -1 -5 9.40368 3.98432 2
-5 -1 -5 8.28405 4.70695 1
-5 -1 -5 6.89179 4.72094 3
5 1 5 16.1634 5.16065 1
5 1 5 7.01117 3.8782 2
-6 -1 -5 132.622 10.2843 3
-6 -1 -5 140.12 11.0713 1
6 1 5 132.35 10.6495 1
-7 -1 -5 152.792 12.2945 3
7 1 5 132.119 11.9765 1
-8 -1 -5 11.3657 7.13291 3
8 1 5 2.03762 6.29938 1
-9 -1 -5 24.3522 9.19467 3
9 1 5 10.7737 8.19799 1
-10 -1 -5 -1.4822 8.76692 3
10 1 5 6.02365 8.59807 1
-8 2 5 24.5251 11.1351 3
-7 2 5 90.7526 13.8844 3
6 -2 -5 -1.5412 4.90418 1
-6 2 5 5.39926 7.0165 2
-6 2 5 -13.591 7.3311 3
5 -2 -5 664.995 16.6571 1
-5 2 5 691.708 24.6776 3
-5 2 5 677.363 23.0195 2
4 -2 -5 56.5878 5.54111 1
-4 2 5 71.0313 10.5113 3
-4 2 5 76.6035 9.65056 2
3 -2 -5 104.083 5.52015 1
-3 2 5 113.824 11.1757 2
-3 2 5 106.369 10.2677 3
2 -2 -5 30.769 2.81704 1
-2 2 5 26.2803 6.55542 3
-2 2 5 35.5977 7.6925 2
1 -2 -5 257.508 13.7256 2
-1 2 5 260.907 11.8104 3
-1 2 5 252.004 13.6782 2
0 -2 -5 55.773 7.7201 2
0 2 5 41.0916 7.15067 2
0 2 5 59.2147 6.28123 3
-1 -2 -5 2309.21 35.8765 3
-1 -2 -5 2231.1 41.6432 2
-1 -2 -5 2363.64 29.0002 1
1 2 5 2377.44 36.6818 3
1 2 5 2293.54 28.6998 1
1 2 5 2372.26 42.4952 2
-2 -2 -5 1813.46 34.8401 2
-2 -2 -5 1835.12 25.9257 1
-2 -2 -5 1877.26 30.4644 3
2 2 5 1857.25 25.988 1
2 2 5 1828.42 35.2019 2
2 2 5 1881.55 30.6461 3
-3 -2 -5 40.4597 6.38558 2
-3 -2 -5 47.0324 5.5711 3
-3 -2 -5 41.2692 4.79394 1
3 2 5 23.6744 3.89999 1
3 2 5 39.3722 6.05098 2
-4 -2 -5 87.5309 7.45875 3
-4 -2 -5 72.0573 6.72623 1
4 2 5 85.6742 6.94814 1
4 2 5 81.5413 7.84982 2
-5 -2 -5 15.1141 5.4129 3
5 2 5 9.90793 4.53283 1
5 2 5 6.43799 4.269 2
-6 -2 -5 199.116 12.3218 3
6 2 5 198.615 11.4314 1
-7 -2 -5 1087.23 27.6735 3
7 2 5 1127.78 27.5425 1
-8 -2 -5 1575.1 35.9295 3
8 2 5 1545.04 35.2903 1
-9 -2 -5 103.244 12.3991 3
9 2 5 101.721 12.5144 1
-10 -2 -5 44.3642 11.1929 3
10 2 5 50.8285 11.5061 1
-7 3 5 165.092 17.9473 3
-6 3 5 55.6258 12.0741 3
-6 3 5 70.8483 10.8956 2
-5 3 5 137.732 13.1999 2
-5 3 5 149.368 14.725 3
-4 3 5 1025.16 29.3037 3
-4 3 5 1003.51 28.6794 2
3 -3 -5 96.9395 5.27473 1
-3 3 5 92.5355 11.1823 2
-3 3 5 81.8972 10.2029 3
-2 3 5 28.7265 7.51653 2
-2 3 5 32.5 6.99357 3
-1 3 5 229.068 12.3155 3
-1 3 5 250.75 14.2884 2
0 3 5 11.5722 6.02351 2
0 3 5 22.4607 5.61071 3
-1 -3 -5 88.2482 7.59793 3
1 3 5 74.7365 7.16425 3
1 3 5 90.6255 9.79179 2
-2 -3 -5 671.304 16.8621 3
2 3 5 661.735 19.9522 2
2 3 5 671.918 17.1322 3
2 3 5 685.781 12.0303 1
-3 -3 -5 49.9328 6.66666 3
3 3 5 58.4099 4.93558 1
3 3 5 57.0695 7.16512 2
3 3 5 52.3247 6.41464 3
-4 -3 -5 58.4767 6.77005 3
4 3 5 56.4779 5.71202 1
4 3 5 62.7702 7.24347 2
-5 -3 -5 -0.5387 4.37819 3
5 3 5 1.19932 3.88794 2
5 3 5 4.80782 3.82051 1
-6 -3 -5 -2.7627 4.92148 3
6 3 5 -1.2393 4.14391 1
-7 -3 -5 59.9584 9.13274 3
7 3 5 59.9769 8.65354 1
-8 -3 -5 66.3012 9.89913 3
8 3 5 73.6101 10.1832 1
-9 -3 -5 376.843 19.4846 3
9 3 5 348.126 18.9531 1
-10 -3 -5 505.689 24.0902 3
10 3 5 462.842 22.7088 1
-7 4 5 70.8053 14.9193 3
-6 4 5 174.12 16.2052 2
-6 4 5 159.667 16.677 3
-5 4 5 588.353 24.0476 2
-5 4 5 563.565 25.3696 3
-4 4 5 153.036 14.8855 3
-4 4 5 182.13 15.0525 2
-3 4 5 585.168 22.2749 2
-3 4 5 515.58 20.9486 3
-2 4 5 7.14832 6.82028 3
-2 4 5 7.07971 6.71789 2
-1 4 5 234.366 14.6994 2
-1 4 5 217.738 13.0215 3
0 4 5 6.59169 6.07484 2
0 4 5 9.31859 5.55729 3
-1 -4 -5 364.686 13.741 3
1 4 5 389.394 16.7257 2
1 4 5 392.241 14.2718 3
-2 -4 -5 155.095 9.43843 3
2 4 5 175.386 5.15288 1
2 4 5 168.872 9.83187 3
2 4 5 181.201 12.3383 2
-3 -4 -5 177.865 10.2496 3
3 4 5 176.685 6.92065 1
3 4 5 189.792 11.9011 2
3 4 5 181.987 10.1443 3
-4 -4 -5 50.602 6.96061 3
4 4 5 38.886 6.62133 2
4 4 5 49.8821 5.42829 1
-5 -4 -5 3.92226 4.98482 3
5 4 5 9.20153 4.09618 1
5 4 5 3.37824 4.58335 2
-6 -4 -5 5.15508 5.29225 3
6 4 5 1.03905 4.31418 2
6 4 5 0.60735 4.22786 1
-7 -4 -5 29.462 7.30917 3
7 4 5 33.9888 6.93386 1
-8 -4 -5 8.93987 6.99483 3
8 4 5 5.98222 6.25984 1
-9 -4 -5 94.7545 12.3591 3
9 4 5 70.0287 10.8649 1
-10 -4 -5 5.61719 8.76631 3
10 4 5 -0.9998 7.88892 1
-6 5 5 11.8892 9.82195 2
-6 5 5 28.7968 12.2862 3
-5 5 5 25.2515 11.1284 2
-5 5 5 3.21604 10.2369 3
-4 5 5 -0.4675 8.89028 3
-4 5 5 20.7757 10.4563 2
-3 5 5 18.6706 8.27625 3
-3 5 5 15.7373 9.03892 2
-2 5 5 1.55931 6.67847 3
-2 5 5 -7.3734 7.11225 2
-1 5 5 306.942 15.7626 3
-1 5 5 237.834 16.4213 2
0 5 5 33.8949 8.62269 2
0 5 5 36.877 7.97412 3
1 5 5 4.06969 5.34747 3
1 5 5 -0.5601 6.31372 2
-2 -5 -5 460.104 15.9067 3
2 5 5 481.177 19.3227 2
2 5 5 449.006 16.0958 3
-3 -5 -5 448.279 15.8743 3
3 5 5 438.39 10.1964 1
3 5 5 428.165 15.7224 3
3 5 5 454.272 18.4552 2
-4 -5 -5 316.98 14.0227 3
4 5 5 298.314 15.2821 2
4 5 5 290.419 13.7124 3
4 5 5 320.762 10.2039 1
-5 -5 -5 465.594 17.1024 3
5 5 5 484.168 18.1501 2
5 5 5 467.639 14.2916 1
-6 -5 -5 36.6749 7.21926 3
6 5 5 47.2547 7.58189 2
6 5 5 37.0046 6.67004 1
-7 -5 -5 -0.0065 6.08317 3
7 5 5 -6.789 4.82303 1
-8 -5 -5 8.52389 7.08909 3
8 5 5 7.71995 6.69751 1
-9 -5 -5 84.3109 12.0338 3
9 5 5 57.4994 10.4523 1
-5 6 5 321.612 22.8442 2
-4 6 5 343.271 21.4517 3
-4 6 5 324.241 22.3553 2
-3 6 5 137.359 15.1424 3
-3 6 5 146.045 16.3711 2
-2 6 5 40.3177 10.0236 3
-2 6 5 34.5961 10.7347 2
-1 6 5 130.095 14.7986 2
-1 6 5 139.602 13.3991 3
0 6 5 -4.4725 5.91052 3
0 6 5 -0.4554 7.69057 2
1 6 5 12.5011 6.83578 3
1 6 5 30.0285 9.46092 2
-2 -6 -5 120.717 10.712 3
2 6 5 98.8313 9.93731 3
2 6 5 120.275 12.9691 2
-3 -6 -5 13.4356 6.03034 3
3 6 5 8.82286 5.72756 3
3 6 5 7.37355 7.3326 2
-4 -6 -5 77.7932 9.14976 3
4 6 5 74.1061 10.5875 2
4 6 5 76.1738 8.88704 3
4 6 5 70.98 5.99076 1
-5 -6 -5 0.11326 5.76243 3
5 6 5 3.36854 4.14495 1
5 6 5 8.9137 5.91946 3
5 6 5 6.86753 6.93659 2
-6 -6 -5 19.2613 6.74783 3
6 6 5 3.74805 6.54478 2
6 6 5 9.12316 4.83666 1
-7 -6 -5 31.9213 8.41875 3
7 6 5 43.8239 7.80316 1
-8 -6 -5 8.45509 7.77335 3
8 6 5 7.3649 6.87564 1
-9 -6 -5 -8.6033 6.95116 3
9 6 5 6.44162 7.72385 1
-4 7 5 165.932 19.2912 2
-4 7 5 160.523 17.9282 3
-3 7 5 59.6287 12.7101 3
-3 7 5 49.9064 13.7488 2
-2 7 5 131.826 14.8497 3
-2 7 5 108.908 15.6127 2
-1 7 5 438.737 24.5442 2
-1 7 5 412.778 20.6172 3
0 7 5 724.836 25.6433 3
0 7 5 702.59 28.564 2
1 7 5 357.502 18.189 3
1 7 5 379.176 21.9142 2
2 7 5 -2.065 7.75105 2
2 7 5 -9.3605 5.80975 3
-3 -7 -5 102.493 10.7407 3
3 7 5 93.7089 10.7652 3
3 7 5 89.3685 12.5491 2
-4 -7 -5 -7.2605 5.14407 3
4 7 5 6.341 7.5602 2
4 7 5 9.0517 6.05444 3
-5 -7 -5 82.4518 10.1455 3
5 7 5 82.8864 10.1956 3
5 7 5 66.1491 10.7182 2
-6 -7 -5 30.9295 8.07421 3
6 7 5 25.3716 7.52877 3
6 7 5 35.8905 6.51636 1
6 7 5 40.6124 9.74873 2
-7 -7 -5 97.8764 11.7563 3
7 7 5 90.9384 9.80225 1
-8 -7 -5 41.8143 10.0536 3
8 7 5 40.6869 8.83577 1
-3 8 5 8.09468 10.402 3
-3 8 5 -13.216 11.631 2
-2 8 5 -12.671 11.2864 2
-2 8 5 -4.6191 9.90286 3
-1 8 5 94.1144 13.2613 3
-1 8 5 106.196 16.5823 2
0 8 5 682.723 26.3465 3
0 8 5 720.083 31.1471 2
1 8 5 83.2199 13.813 2
1 8 5 70.2734 11.2896 3
2 8 5 13.175 7.95983 3
2 8 5 9.63287 9.7823 2
-3 -8 -5 24.3396 8.34782 3
3 8 5 13.8032 7.326 3
3 8 5 44.3799 11.216 2
-4 -8 -5 -0.5856 6.44966 3
4 8 5 -5.1884 7.83385 2
4 8 5 -8.5918 6.30535 3
-5 -8 -5 -0.4208 7.25495 3
5 8 5 8.01787 7.21986 3
5 8 5 19.1966 8.64611 2
-6 -8 -5 276.487 16.6889 3
6 8 5 277.977 16.3794 3
6 8 5 281.487 18.9474 2
-7 -8 -5 364.785 19.3845 3
7 8 5 348.591 18.7032 3
-1 9 5 35.1602 14.8959 2
-1 9 5 23.6184 11.2273 3
0 9 5 429.267 27.3912 2
0 9 5 367.08 21.6033 3
1 9 5 404.798 26.6147 2
1 9 5 390.577 22.0679 3
2 9 5 17.2767 11.1489 2
2 9 5 13.6562 8.76029 3
3 9 5 -10.415 9.02942 2
3 9 5 -4.9739 7.35323 3
-4 -9 -5 67.441 10.8468 3
4 9 5 54.4814 12.8499 2
4 9 5 37.1778 9.83115 3
-5 -9 -5 1.30763 7.65573 3
5 9 5 0.81608 7.71259 3
5 9 5 6.96818 9.08211 2
-6 -9 -5 26.6366 9.26179 3
6 9 5 35.078 10.8887 2
6 9 5 21.234 8.52056 3
4 9 -6 66.3767 11.4652 1
4 9 -6 64.3183 16.0192 2
3 9 -6 35.2187 9.41734 1
3 9 -6 66.2078 15.9912 2
2 9 -6 -1.3856 7.55202 1
2 9 -6 0.32332 12.4124 2
1 9 -6 23.8207 14.341 2
1 9 -6 -1.8694 7.33797 1
0 9 -6 15.1061 14.3041 2
0 9 -6 8.67695 8.24254 1
-1 9 -6 123.488 20.6756 2
-1 9 -6 82.9184 12.4317 1
-2 9 -6 -8.3447 8.46078 1
6 8 -6 9.40183 7.93453 1
6 8 -6 23.6984 13.0227 2
5 8 -6 58.0507 10.1241 1
5 8 -6 37.2435 13.3541 2
4 8 -6 116.423 17.6452 2
4 8 -6 120.446 12.4461 1
3 8 -6 120.926 18.2015 2
3 8 -6 139.508 12.8682 1
2 8 -6 95.9793 16.2757 2
2 8 -6 85.3736 10.6671 1
1 8 -6 49.7734 14.6509 2
1 8 -6 30.6285 8.27027 1
0 8 -6 5.45314 12.9658 2
0 8 -6 5.32346 7.34158 1
-1 8 -6 15.1151 7.82619 1
-1 8 -6 15.2141 12.8363 2
-2 8 -6 155.123 19.525 2
-2 8 -6 132.083 13.8287 1
-3 8 -6 293.493 25.2424 2
-3 8 -6 250.456 18.5482 1
-4 8 -6 -0.8959 14.1959 2
-4 8 -6 6.51825 10.1441 1
7 7 -6 95.8956 12.3926 1
6 7 -6 51.6365 9.79906 1
6 7 -6 77.6932 14.92 2
5 7 -6 -7.0738 5.94232 1
5 7 -6 -3.721 10.4345 2
4 7 -6 43.5037 8.60001 1
4 7 -6 39.6894 12.2386 2
3 7 -6 19.7162 7.05047 1
3 7 -6 21.6456 11.7797 2
2 7 -6 1.9191 10.4551 2
2 7 -6 2.6997 5.77094 1
1 7 -6 11.3647 6.7496 1
1 7 -6 13.5085 11.0936 2
0 7 -6 46.0971 13.1884 2
0 7 -6 23.0794 7.36871 1
-1 7 -6 -0.8432 10.8878 2
-1 7 -6 -1.8618 6.0214 1
-2 7 -6 66.9335 14.5316 2
-2 7 -6 95.4658 11.6403 1
-3 7 -6 -5.4265 11.4911 2
-3 7 -6 11.3514 7.73422 1
-4 7 -6 14.0288 12.8453 2
-4 7 -6 3.60205 8.14878 1
-5 7 -6 65.6282 12.1502 1
-5 7 -6 49.547 14.3603 2
7 6 -6 -3.4331 6.84501 1
6 6 -6 10.1842 6.81113 1
6 6 -6 1.18494 9.84724 2
5 6 -6 269.746 20.7491 2
5 6 -6 274.762 14.9069 1
4 6 -6 211.942 13.2379 1
4 6 -6 219.975 19.0526 2
3 6 -6 101.932 14.4715 2
3 6 -6 101.593 9.99518 1
2 6 -6 283.405 14.0959 1
2 6 -6 302.97 20.9293 2
1 6 -6 474.52 17.0975 1
1 6 -6 461.146 24.226 2
0 6 -6 230.208 13.2418 1
0 6 -6 234.02 19.2647 2
-1 6 -6 11.2257 6.08962 1
-1 6 -6 3.63101 9.97702 2
-2 6 -6 14.1349 6.70259 1
-2 6 -6 6.282 10.1653 2
-3 6 -6 70.1028 13.252 2
-3 6 -6 74.0667 9.96545 1
-4 6 -6 104.698 12.2813 1
-4 6 -6 99.4944 15.1311 2
-5 6 -6 89.1978 14.9874 2
-5 6 -6 59.5628 11.1774 1
-6 6 -6 19.0928 10.2841 1
8 5 -6 12.0144 8.40105 1
7 5 -6 27.3013 8.39436 1
6 5 -6 -4.7885 8.61077 2
6 5 -6 2.72616 6.00645 1
5 5 -6 22.155 6.66476 1
5 5 -6 2.30603 8.88961 2
4 5 -6 55.2519 11.7295 2
4 5 -6 95.1087 9.80679 1
3 5 -6 1014.34 23.7607 1
3 5 -6 994.04 31.8536 2
2 5 -6 497 23.0285 2
2 5 -6 457.008 16.0987 1
1 5 -6 454.186 22.4951 2
1 5 -6 450.043 15.7856 1
0 5 -6 654.472 18.8983 1
0 5 -6 673.824 26.3288 2
-1 5 -6 687.329 26.0344 2
-1 5 -6 674.027 19.7274 1
-2 5 -6 236.614 18.1689 2
-2 5 -6 207.143 12.7194 1
-3 5 -6 79.7306 9.70899 1
-3 5 -6 80.9529 12.6757 2
-4 5 -6 114.926 14.5811 2
-4 5 -6 107.565 11.2689 1
-5 5 -6 4.72702 9.61095 2
-5 5 -6 3.30411 7.18384 1
-6 5 -6 254.413 18.4459 1
-7 5 -6 129.197 15.5642 1
7 -5 6 138.995 15.4852 1
8 4 -6 22.9628 8.47282 1
-8 -4 6 24.2805 8.70497 3
7 4 -6 68.3401 9.83446 1
-7 -4 6 56.3767 9.29867 3
6 4 -6 165.22 15.8519 2
6 4 -6 124.031 11.1189 1
-6 -4 6 152.79 12.1133 3
5 4 -6 3.7231 5.24118 1
5 4 -6 9.83906 8.2968 2
-5 -4 6 -3.5585 5.0024 3
4 4 -6 80.6553 8.53551 1
4 4 -6 82.484 11.7974 2
3 4 -6 43.7761 6.9009 1
3 4 -6 21.5325 8.62805 2
2 4 -6 134.258 13.9839 2
2 4 -6 107.677 8.75622 1
1 4 -6 44.1966 6.4744 1
1 4 -6 38.7173 9.69448 2
0 4 -6 -1.6178 4.15604 1
0 4 -6 5.1203 7.47298 2
-1 4 -6 499.709 15.8555 1
-1 4 -6 497.296 21.7221 2
-2 4 -6 164.311 14.7466 2
-2 4 -6 147.752 10.5329 1
-3 4 -6 177.452 15.2985 2
-3 4 -6 122.528 10.4184 1
-4 4 -6 410.999 17.1222 1
-4 4 -6 433.745 20.7343 2
-5 4 -6 13.7878 9.18766 2
-5 4 -6 25.2553 7.12715 3
-5 4 -6 13.214 7.35744 1
-6 4 -6 130.547 13.4015 1
-6 4 -6 150.479 12.3456 3
6 -4 6 126.053 13.1666 1
-7 4 -6 178.684 16.4849 3
-7 4 -6 168.164 15.9378 1
7 -4 6 141.22 14.9785 1
-8 4 -6 605.664 27.1902 1
8 -4 6 670.103 27.6426 1
8 3 -6 101.886 12.0225 1
-8 -3 6 110.486 14.1193 3
7 3 -6 511.768 18.9466 1
-7 -3 6 467.99 20.3377 3
6 3 -6 160.634 11.6333 1
6 3 -6 178.15 15.2184 2
-6 -3 6 149.69 12.5399 3
5 3 -6 83.3899 11.9308 2
5 3 -6 85.8078 8.58503 1
-5 -3 6 74.8263 8.8558 3
4 3 -6 81.8683 11.4208 2
4 3 -6 88.4918 8.20324 1
-4 -3 6 104.192 8.77255 3
3 3 -6 316.826 12.0019 1
3 3 -6 326.894 17.562 2
-3 -3 6 300.182 10.8669 3
2 3 -6 116.703 12.1944 2
2 3 -6 104.853 8.06858 1
-2 -3 6 120.193 6.4335 3
1 3 -6 1059.78 29.6037 2
1 3 -6 1093.37 21.885 1
-1 -3 6 1068.89 16.4737 3
0 3 -6 218.915 15.4206 2
0 3 -6 216.341 10.0763 1
-1 3 -6 176.16 14.2494 2
-1 3 -6 200.498 9.81268 1
-2 3 -6 224.404 15.0173 2
-2 3 -6 222.291 10.978 1
-2 3 -6 210.013 6.46706 3
-3 3 -6 276.841 9.1724 3
-3 3 -6 303.789 13.0924 1
-3 3 -6 297.888 16.3377 2
-4 3 -6 2.36884 5.50035 1
-4 3 -6 9.96372 7.45917 2
-4 3 -6 9.1897 4.41332 3
-5 3 -6 307.252 13.3486 3
-5 3 -6 305.366 17.0587 2
-5 3 -6 319.005 15.8839 1
-6 3 -6 10.7976 6.33798 3
-6 3 -6 6.37241 6.91541 1
6 -3 6 -6.1837 5.78662 1
-7 3 -6 11.6731 8.37013 1
-7 3 -6 -1.1373 6.92681 3
7 -3 6 3.03927 7.53647 1
-8 3 -6 6.67723 8.75772 1
-8 3 -6 16.4501 8.6109 3
8 -3 6 -6.0561 8.39086 1
8 2 -6 4.09059 7.15661 1
-8 -2 6 -3.8107 7.24976 3
7 2 -6 3.93081 6.09999 1
-7 -2 6 15.1685 8.37002 3
6 2 -6 296.954 17.4267 2
6 2 -6 307.184 14.051 1
-6 -2 6 280.518 16.8839 2
-6 -2 6 258.975 15.9482 3
5 2 -6 162.522 13.8613 2
5 2 -6 160.671 10.5297 1
-5 -2 6 160.899 12.4066 3
4 2 -6 8.83412 4.24683 1
4 2 -6 13.6081 7.81682 2
-4 -2 6 13.6925 5.4623 3
3 2 -6 205.228 9.30581 1
3 2 -6 216.236 14.377 2
-3 -2 6 202.098 9.99603 3
2 2 -6 17.2896 7.39794 2
2 2 -6 19.2918 4.14191 1
-2 -2 6 17.9725 4.12918 3
1 2 -6 314.079 16.3965 2
1 2 -6 328.617 10.7694 1
-1 -2 6 308.533 9.13977 3
0 2 -6 1936.04 30.6734 1
0 2 -6 1979.7 40.863 2
0 -2 6 1968.57 27.7312 3
-1 2 -6 3748.92 63.9101 2
-1 2 -6 3816.84 52.023 1
-1 2 -6 3785.19 47.6225 3
1 -2 6 3917.08 48.0755 3
-2 2 -6 776.208 18.3272 1
-2 2 -6 776.694 23.4658 2
-2 2 -6 767.35 14.2536 3
-3 2 -6 480.167 15.3181 1
-3 2 -6 508.742 19.2033 2
-3 2 -6 493.75 12.3903 3
-4 2 -6 546.721 17.6796 1
-4 2 -6 562.009 19.9537 2
-4 2 -6 561.084 14.8361 3
-5 2 -6 37.2236 6.37779 3
-5 2 -6 50.563 9.1134 2
-5 2 -6 39.4859 7.73713 1
-6 2 -6 -3.5228 5.66291 1
-6 2 -6 11.8989 6.03287 3
6 -2 6 1.69224 6.17005 1
-7 2 -6 60.4408 10.3233 1
-7 2 -6 60.702 9.50677 3
7 -2 6 48.1158 9.74267 1
-8 2 -6 143.182 14.9842 1
-8 2 -6 185.536 15.5273 3
8 -2 6 164.598 15.8664 1
-9 2 -6 79.3966 13.423 1
-9 2 -6 74.9373 12.5203 3
9 -2 6 67.8062 12.6151 1
8 1 -6 44.3374 9.39307 1
-8 -1 6 48.4307 11.3115 3
7 1 -6 117.949 11.0708 1
-7 -1 6 127.853 14.6884 3
6 1 -6 20.9844 6.19469 1
6 1 -6 21.8001 8.1274 2
-6 -1 6 20.017 7.74441 3
-6 -1 6 11.0624 6.90692 2
5 1 -6 0.12083 4.14509 1
5 1 -6 1.56744 6.52125 2
-5 -1 6 -7.7468 5.92582 3
-5 -1 6 5.54944 6.72841 2
4 1 -6 7.72064 3.9654 1
4 1 -6 9.4945 6.74042 2
-4 -1 6 22.4744 6.37775 3
-4 -1 6 10.7992 7.00203 2
3 1 -6 29.6958 4.6575 1
3 1 -6 20.4475 7.24058 2
-3 -1 6 24.143 5.56552 3
2 1 -6 215.251 8.32085 1
2 1 -6 202.477 13.9612 2
-2 -1 6 232.598 10.1173 3
1 1 -6 87.7741 6.02932 1
1 1 -6 98.7872 10.5247 2
-1 -1 6 111.247 6.85363 3
0 1 -6 1648.99 25.5481 1
0 1 -6 1603.56 35.2608 2
0 -1 6 1615.13 25.727 3
-1 1 -6 669.487 13.646 3
-1 1 -6 657.635 14.8224 1
-1 1 -6 653.896 21.1289 2
1 -1 6 681.821 13.8573 3
-2 1 -6 120.694 7.98065 1
-2 1 -6 141.695 6.71757 3
-2 1 -6 141.762 11.8209 2
-3 1 -6 400.266 11.4157 3
-3 1 -6 417.425 13.4347 1
-3 1 -6 369.048 16.0979 2
-4 1 -6 378.198 16.044 2
-4 1 -6 383.28 14.2368 1
-4 1 -6 408.771 12.8502 3
-5 1 -6 43.5909 7.89896 2
-5 1 -6 38.5292 7.15046 1
-5 1 -6 41.6869 6.42736 3
5 -1 6 38.9257 7.25022 1
-6 1 -6 80.7192 9.91524 1
-6 1 -6 72.4712 8.76184 3
6 -1 6 83.7048 10.0742 1
-7 1 -6 1.54362 6.21738 1
-7 1 -6 15.0759 7.17692 3
7 -1 6 7.45629 7.01096 1
-8 1 -6 -4.8068 7.25559 3
-8 1 -6 -1.4966 7.37584 1
8 -1 6 -3.3474 7.22499 1
-9 1 -6 6.20396 8.80872 1
-9 1 -6 -3.352 7.98592 3
9 -1 6 -3.2704 8.14484 1
8 0 -6 6.02862 6.65537 1
-8 0 6 9.15866 9.78296 3
7 0 -6 106.543 10.3193 1
-7 0 6 117.549 14.2533 3
6 0 -6 249.834 16.2831 2
6 0 -6 241.303 12.4734 1
-6 0 6 250.073 17.6125 3
-6 0 6 229.283 15.2111 2
5 0 -6 6.48645 4.24112 1
5 0 -6 2.29464 6.66706 2
-5 0 6 5.59957 7.24263 3
-5 0 6 -3.3192 6.64183 2
4 0 -6 0.33209 3.14749 1
4 0 -6 5.17151 6.50503 2
-4 0 6 4.50115 6.11278 2
-4 0 6 11.653 5.88465 3
3 0 -6 146.491 7.16849 1
3 0 -6 160.108 12.8589 2
-3 0 6 146.022 12.5205 2
-3 0 6 139.764 10.2118 3
2 0 -6 131.794 12.2527 2
2 0 -6 102.684 5.74431 1
-2 0 6 115.58 9.14935 3
-2 0 6 107.332 11.0539 2
1 0 -6 102.3 5.47622 1
1 0 -6 118.997 11.2801 2
-1 0 6 122.878 8.01903 3
0 0 -6 131.024 6.03326 1
0 0 -6 151.848 11.9851 2
0 0 6 136.549 7.37846 3
-1 0 -6 186.265 7.47495 1
-1 0 -6 201.809 12.9128 2
-1 0 -6 194.88 8.0122 3
1 0 6 181.479 7.93442 3
-2 0 -6 15.1335 3.67265 1
-2 0 -6 16.469 3.94507 3
-2 0 -6 15.7841 6.16545 2
2 0 6 17.2504 3.68007 3
-3 0 -6 92.2659 9.4957 2
-3 0 -6 81.0677 7.07175 1
-3 0 -6 88.575 6.83277 3
-4 0 -6 458.056 13.8107 3
-4 0 -6 439.351 14.3411 1
-4 0 -6 408.744 15.3992 2
4 0 6 423.236 14.2237 1
-5 0 -6 429.966 15.7403 1
-5 0 -6 488.394 15.6777 3
-5 0 -6 444.098 15.6995 2
5 0 6 449.974 15.9275 1
-6 0 -6 54.2172 8.16335 1
-6 0 -6 47.9961 7.60551 3
6 0 6 38.4343 8.03822 1
-7 0 -6 8.81555 6.78829 1
-7 0 -6 3.76502 6.06192 3
7 0 6 8.94155 6.73982 1
-8 0 -6 35.1168 9.25051 3
-8 0 -6 44.5781 10.0612 1
8 0 6 41.9482 10.0518 1
-9 0 -6 78.294 11.831 3
9 0 6 92.4324 13.0958 1
-8 1 6 7.68942 9.94425 3
7 -1 -6 49.9617 8.44771 1
-7 1 6 48.7949 11.8585 3
6 -1 -6 39.8975 6.78051 1
-6 1 6 29.3715 8.68696 2
-6 1 6 50.9387 10.9726 3
5 -1 -6 13.1131 4.78553 1
-5 1 6 11.3958 7.7371 3
-5 1 6 28.6192 7.99501 2
4 -1 -6 455.983 19.4423 2
4 -1 -6 477.116 12.6107 1
-4 1 6 462.084 18.969 3
-4 1 6 490.46 19.7935 2
3 -1 -6 947.667 17.1102 1
3 -1 -6 979.499 27.535 2
-3 1 6 957.776 27.4012 2
-3 1 6 936.797 24.7664 3
2 -1 -6 589.455 20.5688 2
2 -1 -6 555.852 11.1596 1
-2 1 6 554.887 17.6184 3
-2 1 6 568.255 20.3889 2
1 -1 -6 -2.2951 5.50213 2
1 -1 -6 1.47016 1.97647 1
-1 1 6 -3.1787 5.13779 2
-1 1 6 3.78161 4.19283 3
0 -1 -6 9.01561 6.15763 2
0 -1 -6 8.05353 2.32106 1
0 1 6 5.06086 5.82978 2
0 1 6 3.88814 3.73957 3
-1 -1 -6 4.5731 5.70357 2
-1 -1 -6 4.4777 2.55217 1
-1 -1 -6 2.01065 3.29732 3
1 1 6 -2.8374 5.01772 2
1 1 6 4.93853 3.25964 3
-2 -1 -6 366.34 15.1799 2
-2 -1 -6 355.208 10.0866 1
-2 -1 -6 350.836 11.3151 3
2 1 6 362.231 11.5623 3
2 1 6 339.824 14.8887 2
-3 -1 -6 91.3271 9.12581 2
-3 -1 -6 92.0401 7.2717 3
-3 -1 -6 92.3482 7.10405 1
3 1 6 93.7455 6.61182 1
3 1 6 95.8107 9.09303 2
-4 -1 -6 502.593 16.6814 2
-4 -1 -6 529.869 15.1272 1
-4 -1 -6 508.723 15.0124 3
4 1 6 514.414 16.8218 2
4 1 6 535.73 14.9858 1
-5 -1 -6 320.907 12.9309 2
-5 -1 -6 354.174 13.574 1
-5 -1 -6 312.167 13.3406 3
5 1 6 332.123 13.2308 2
5 1 6 317.392 13.1011 1
-6 -1 -6 673.05 20.3259 1
-6 -1 -6 703.895 20.3335 3
6 1 6 687.392 20.3925 1
-7 -1 -6 242.8 14.7055 1
-7 -1 -6 248.021 14.0505 3
7 1 6 228.568 14.354 1
-8 -1 -6 31.4839 8.69139 3
8 1 6 53.1121 9.62193 1
-9 -1 -6 117.238 13.3744 3
9 1 6 98.2207 12.8393 1
-10 -1 -6 8.77513 8.97989 3
10 1 6 0.63152 8.49766 1
-7 2 6 31.8935 11.4064 3
-6 2 6 313.315 20.0247 3
-6 2 6 343.487 18.5031 2
-5 2 6 184.907 15.9371 3
-5 2 6 155.169 13.9093 2
4 -2 -6 -0.5183 2.98275 1
-4 2 6 11.626 7.27026 2
-4 2 6 14.3676 7.55717 3
3 -2 -6 4.0142 2.47809 1
-3 2 6 3.36641 6.18004 3
-3 2 6 5.03518 6.29715 2
2 -2 -6 17.4563 2.43764 1
2 -2 -6 27.5366 7.65227 2
-2 2 6 16.9338 6.57023 3
-2 2 6 15.6273 6.89728 2
1 -2 -6 37.4809 8.17609 2
-1 2 6 38.1069 7.94929 2
-1 2 6 54.2006 7.3929 3
0 -2 -6 1.93977 5.46164 2
0 2 6 18.3075 5.21359 3
0 2 6 8.94563 5.97697 2
-1 -2 -6 147.599 5.30572 1
-1 -2 -6 155.416 11.7854 2
-1 -2 -6 144.313 8.72578 3
1 2 6 136.73 11.6942 2
1 2 6 138.86 8.77619 3
-2 -2 -6 1655.49 34.7864 2
-2 -2 -6 1628.86 29.3576 3
-2 -2 -6 1699.88 24.9632 1
2 2 6 1676.77 35.2777 2
2 2 6 1753.35 30.2782 3
2 2 6 1679.17 24.7113 1
-3 -2 -6 54.001 7.8162 2
-3 -2 -6 56.5892 5.47825 1
-3 -2 -6 60.1011 6.94845 3
3 2 6 53.4714 7.52283 2
3 2 6 55.3664 5.28486 1
3 2 6 59.8408 6.67678 3
-4 -2 -6 2.76839 3.6377 1
-4 -2 -6 -2.1871 4.04013 3
-4 -2 -6 3.27449 4.72743 2
4 2 6 4.41581 3.46462 1
4 2 6 3.65062 4.43347 2
-5 -2 -6 171.157 10.3439 1
-5 -2 -6 184.173 11.0898 3
5 2 6 188.454 11.0733 2
5 2 6 178.928 9.89932 1
-6 -2 -6 960.955 24.3333 3
6 2 6 951.424 23.5645 1
-7 -2 -6 480.95 18.5719 3
7 2 6 489.671 18.5412 1
-8 -2 -6 760.822 24.9394 3
8 2 6 786.282 25.0747 1
-9 -2 -6 390.121 20.4992 3
9 2 6 388.269 19.8227 1
-10 -2 -6 0.98395 8.42977 3
10 2 6 -10.641 7.85418 1
-7 3 6 67.3726 13.8954 3
-6 3 6 57.8314 12.233 3
-6 3 6 54.3556 11.1363 2
-5 3 6 34.4404 9.76786 2
-5 3 6 27.8629 10.4222 3
-4 3 6 -3.8126 6.91336 2
-4 3 6 5.60035 7.64954 3
-3 3 6 126.531 12.8715 2
-3 3 6 120.257 12.2618 3
-2 3 6 238.057 14.4821 3
-2 3 6 247.251 15.6182 2
-1 3 6 126.408 12.4094 2
-1 3 6 145.094 11.7189 3
0 3 6 206.031 13.8085 2
0 3 6 170.55 11.0513 3
-1 -3 -6 266.948 11.878 3
1 3 6 242.96 11.7266 3
1 3 6 247.629 14.4101 2
-2 -3 -6 63.1352 7.40585 3
2 3 6 42.427 6.31979 3
2 3 6 47.6588 3.87154 1
2 3 6 38.2823 7.59062 2
-3 -3 -6 199.447 10.6457 3
3 3 6 220.882 11.1644 3
3 3 6 219.108 7.99333 1
3 3 6 206.558 12.3441 2
-4 -3 -6 111.28 9.45199 3
4 3 6 107.038 9.67274 2
4 3 6 111.567 7.08171 1
-5 -3 -6 -1.6997 4.30473 3
5 3 6 0.14028 4.68621 2
5 3 6 11.0848 4.01457 1
-6 -3 -6 9.13001 5.64017 3
6 3 6 11.8221 4.98578 1
6 3 6 5.70148 4.93793 2
-7 -3 -6 30.4886 7.85624 3
7 3 6 19.4968 6.37203 1
-8 -3 -6 176.021 14.5057 3
8 3 6 172.486 14.207 1
-9 -3 -6 22.2524 8.91759 3
9 3 6 22.687 8.89076 1
-10 -3 -6 24.9322 10.0947 3
10 3 6 -0.1317 8.16455 1
-6 4 6 31.6367 11.9167 3
-6 4 6 29.7643 11.1503 2
-5 4 6 40.2998 11.5378 3
-5 4 6 43.9744 11.4268 2
-4 4 6 2.51737 8.0344 3
-4 4 6 11.4413 8.9097 2
-3 4 6 4.19878 7.93323 3
-3 4 6 8.68725 8.0017 2
-2 4 6 75.5367 11.2776 2
-2 4 6 69.1613 10.3135 3
-1 4 6 826.782 24.1822 3
-1 4 6 819.36 26.8369 2
0 4 6 1300.81 33.7741 2
0 4 6 1384.38 30.7002 3
1 4 6 752.374 20.8925 3
1 4 6 696.585 23.9702 2
-2 -4 -6 1701.62 32.8246 3
2 4 6 1697.2 33.3789 3
2 4 6 1739.28 38.2248 2
-3 -4 -6 92.1526 8.68974 3
3 4 6 120.917 5.92179 1
3 4 6 112.905 10.9244 2
3 4 6 119.34 9.29904 3
-4 -4 -6 36.8149 6.84898 3
4 4 6 28.4296 6.8762 2
4 4 6 33.7721 4.76029 1
4 4 6 28.8085 6.481 3
-5 -4 -6 328.745 14.3692 3
5 4 6 329.724 14.5652 2
5 4 6 312.609 11.94 1
-6 -4 -6 559.753 19.6518 3
6 4 6 568.179 17.534 1
6 4 6 564.612 17.9778 2
-7 -4 -6 71.5235 9.62565 3
7 4 6 69.9936 9.10543 1
-8 -4 -6 143.454 13.5295 3
8 4 6 144.088 12.7778 1
-9 -4 -6 15.5243 8.55671 3
9 4 6 7.18511 7.0729 1
-6 5 6 22.6832 11.7666 2
-6 5 6 27.5215 12.5231 3
-5 5 6 22.9838 11.3623 3
-5 5 6 9.44989 10.8991 2
-4 5 6 33.3779 11.8061 2
-4 5 6 38.6831 10.9637 3
-3 5 6 18.0907 8.53494 3
-3 5 6 26.2519 10.3176 2
-2 5 6 13.8841 9.02173 2
-2 5 6 10.8628 7.58351 3
-1 5 6 78.8133 11.6236 2
-1 5 6 82.559 10.9683 3
0 5 6 385.2 19.542 2
0 5 6 366.368 17.0347 3
1 5 6 1447.16 36.1816 2
1 5 6 1396.17 31.7471 3
-2 -5 -6 614.185 19.5166 3
2 5 6 618.652 22.7572 2
2 5 6 600.174 19.7461 3
-3 -5 -6 21.8371 5.89165 3
3 5 6 25.5426 6.15617 3
3 5 6 14.6183 6.98912 2
-4 -5 -6 155.456 11.283 3
4 5 6 140.247 10.9403 3
4 5 6 183.244 13.4213 2
4 5 6 150.999 7.6981 1
-5 -5 -6 6.17509 5.82476 3
5 5 6 8.89627 5.70804 3
5 5 6 7.77664 4.13861 1
5 5 6 7.36704 5.92782 2
-6 -5 -6 4.54096 5.57302 3
6 5 6 2.51749 4.78491 1
6 5 6 11.0807 6.13937 2
-7 -5 -6 64.5906 9.9636 3
7 5 6 63.4979 8.5976 1
-8 -5 -6 208.335 15.1755 3
8 5 6 222.938 14.5114 1
-9 -5 -6 122.703 13.775 3
9 5 6 111.518 12.6264 1
-5 6 6 51.3341 13.4165 3
-5 6 6 30.0756 13.9411 2
-4 6 6 44.4319 12.6658 3
-4 6 6 42.3803 13.0515 2
-3 6 6 65.8766 12.3067 3
-3 6 6 72.1147 14.529 2
-2 6 6 0.4307 9.72165 2
-2 6 6 -7.0226 7.65345 3
-1 6 6 127.812 13.6633 3
-1 6 6 128.771 14.9974 2
0 6 6 14.6995 8.82189 2
0 6 6 7.30577 7.15218 3
1 6 6 607.699 24.8524 2
1 6 6 578.506 21.354 3
2 6 6 9.0779 7.881 2
2 6 6 9.12182 6.01428 3
-3 -6 -6 86.1961 9.61045 3
3 6 6 91.5784 11.6678 2
3 6 6 103.444 10.6175 3
-4 -6 -6 7.97766 6.13329 3
4 6 6 9.07408 7.14537 2
4 6 6 18.6737 6.82179 3
-5 -6 -6 127.527 11.8903 3
5 6 6 139.726 12.4644 3
5 6 6 140.047 13.4869 2
-6 -6 -6 55.7931 9.63273 3
6 6 6 60.1968 9.62014 2
6 6 6 59.3754 7.39728 1
-7 -6 -6 192.019 14.3591 3
7 6 6 169.18 12.2176 1
-8 -6 -6 116.356 13.5284 3
8 6 6 129.054 12.3958 1
-9 -6 -6 23.4963 9.06792 3
9 6 6 15.5129 8.10713 1
-4 7 6 37.524 14.4302 2
-4 7 6 37.9012 13.1232 3
-3 7 6 3.63678 11.9942 2
-3 7 6 24.3149 11.935 3
-2 7 6 -8.9084 10.1043 2
-2 7 6 20.0163 10.0975 3
-1 7 6 11.2594 9.42788 3
-1 7 6 31.2348 11.8673 2
0 7 6 10.4523 8.62113 3
0 7 6 0.32494 9.58114 2
1 7 6 261.342 19.2478 2
1 7 6 222.371 16.6408 3
2 7 6 326.105 21.1133 2
2 7 6 420.19 19.3329 3
-3 -7 -6 -1.5453 5.90843 3
3 7 6 -2.9315 7.79824 2
3 7 6 -12.237 5.17077 3
-4 -7 -6 44.9898 8.73435 3
4 7 6 50.1032 9.19123 3
4 7 6 42.5174 10.2905 2
-5 -7 -6 70.6246 10.4751 3
5 7 6 54.2113 10.8621 2
5 7 6 74.0395 10.2097 3
-6 -7 -6 156.644 13.7587 3
6 7 6 148.308 13.6037 3
6 7 6 146.473 14.4955 2
-7 -7 -6 46.3049 9.87992 3
7 7 6 69.4051 10.7936 3
-8 -7 -6 12.9052 9.00681 3
-2 8 6 -12.28 10.0406 3
-2 8 6 -12.338 11.2227 2
-1 8 6 104.375 15.0847 3
-1 8 6 94.0927 16.1516 2
0 8 6 134.386 17.1768 2
0 8 6 139.701 15.3075 3
1 8 6 148.887 14.8452 3
1 8 6 143.48 17.2739 2
2 8 6 74.4144 11.7942 3
2 8 6 76.9773 13.7525 2
3 8 6 9.57274 9.28548 2
3 8 6 12.337 7.98378 3
-4 -8 -6 243.805 16.8121 3
4 8 6 186.687 17.7324 2
4 8 6 245.472 16.8298 3
-5 -8 -6 123.598 13.1274 3
5 8 6 131.312 14.9511 2
5 8 6 148.346 14.4461 3
-6 -8 -6 331.426 19.1083 3
6 8 6 328.719 20.741 2
6 8 6 304.246 18.2632 3
-7 -8 -6 218.842 17.9026 3
7 8 6 214.334 17.9628 3
0 9 6 344.493 26.6862 2
0 9 6 320.191 21.9391 3
1 9 6 116.301 17.1192 2
1 9 6 189.779 17.9727 3
2 9 6 -4.2657 9.67363 2
2 9 6 -1.0482 8.17613 3
3 9 6 10.9992 11.1583 2
3 9 6 26.7953 9.33506 3
-4 -9 -6 15.3392 9.23825 3
4 9 6 17.2508 10.811 2
4 9 6 2.33055 8.11428 3
-5 -9 -6 55.4205 11.4942 3
5 9 6 53.8499 12.7682 2
5 9 6 65.5977 11.6239 3
2 9 -7 161.676 21.8476 2
2 9 -7 151.385 14.8836 1
1 9 -7 114.502 20.0617 2
1 9 -7 127.262 13.5168 1
0 9 -7 158.22 15.2215 1
0 9 -7 137.93 21.732 2
5 8 -7 34.6114 14.4025 2
5 8 -7 37.0882 9.3217 1
4 8 -7 22.0167 8.44982 1
4 8 -7 27.9928 13.098 2
3 8 -7 3.88025 7.26073 1
3 8 -7 5.87723 12.1301 2
2 8 -7 0.171 6.98183 1
2 8 -7 4.08596 12.5747 2
1 8 -7 71.4476 10.775 1
1 8 -7 69.4533 16.5202 2
0 8 -7 349.018 18.682 1
0 8 -7 360.949 27.7107 2
-1 8 -7 97.8088 18.6581 2
-1 8 -7 82.8716 11.5186 1
-2 8 -7 15.8527 8.7124 1
-2 8 -7 5.40778 14.4197 2
-3 8 -7 36.5852 10.454 1
-3 8 -7 61.3861 17.2127 2
6 7 -7 132.814 13.7769 1
6 7 -7 129.102 18.6573 2
5 7 -7 138.135 18.0543 2
5 7 -7 167.429 14.3508 1
4 7 -7 41.6695 13.2658 2
4 7 -7 41.7809 8.95333 1
3 7 -7 74.7164 14.6575 2
3 7 -7 67.1126 10.098 1
2 7 -7 68.4838 9.52582 1
2 7 -7 63.4309 14.4789 2
1 7 -7 49.4872 14.517 2
1 7 -7 50.2924 9.10292 1
0 7 -7 7.62783 11.815 2
0 7 -7 2.84585 6.55119 1
-1 7 -7 3.15211 11.7004 2
-1 7 -7 8.8898 6.72476 1
-2 7 -7 35.9498 9.03969 1
-2 7 -7 37.1085 13.3574 2
-3 7 -7 -12.673 7.14469 1
-3 7 -7 -3.4574 11.976 2
-4 7 -7 3.55953 12.9266 2
-4 7 -7 -5.1386 8.08239 1
-5 7 -7 6.02888 9.37872 1
7 6 -7 14.8887 7.87806 1
6 6 -7 171.916 19.182 2
6 6 -7 138.149 12.8859 1
5 6 -7 227.99 20.8077 2
5 6 -7 237.378 15.1263 1
4 6 -7 189.787 13.3677 1
4 6 -7 146.621 17.2627 2
3 6 -7 66.3627 13.8468 2
3 6 -7 68.5768 9.35254 1
2 6 -7 193.448 12.8358 1
2 6 -7 209.786 19.2284 2
1 6 -7 99.4236 10.4742 1
1 6 -7 84.6898 14.6473 2
0 6 -7 12.6758 6.31924 1
0 6 -7 17.3513 10.8913 2
-1 6 -7 24.6614 7.3508 1
-1 6 -7 18.032 11.5395 2
-2 6 -7 4.5452 10.7672 2
-2 6 -7 0.9571 6.49154 1
-3 6 -7 54.8157 13.7297 2
-3 6 -7 37.068 8.76888 1
-4 6 -7 183.445 19.1239 2
-4 6 -7 161.839 14.5905 1
-5 6 -7 98.3441 13.0098 1
-5 6 -7 104.97 16.5749 2
-6 6 -7 86.9481 14.0863 1
7 5 -7 11.48 7.49889 1
6 5 -7 9.33564 10.4085 2
6 5 -7 7.14919 6.44335 1
5 5 -7 2.88682 9.58632 2
5 5 -7 7.6254 6.2755 1
4 5 -7 164.081 17.4087 2
4 5 -7 160.855 11.9807 1
3 5 -7 87.6644 13.9075 2
3 5 -7 83.5595 9.12435 1
2 5 -7 152.377 11.1044 1
2 5 -7 163.002 16.647 2
1 5 -7 104.149 9.77977 1
1 5 -7 106.603 14.474 2
0 5 -7 183.075 16.8739 2
0 5 -7 186.028 11.6555 1
-1 5 -7 110.637 14.8 2
-1 5 -7 110.533 10.3593 1
-2 5 -7 21.5854 6.55224 1
-2 5 -7 14.3063 9.96932 2
-3 5 -7 50.3288 8.44933 1
-3 5 -7 53.4541 12.7616 2
-4 5 -7 316.781 17.0336 1
-4 5 -7 290.796 21.2237 2
-5 5 -7 539.764 22.6719 1
-5 5 -7 534.396 25.9629 2
-6 5 -7 844.107 28.9049 1
-7 5 -7 192.824 18.5511 1
7 -5 7 203.366 18.2124 1
7 4 -7 12.1115 6.91181 1
6 4 -7 14.3696 9.55625 2
6 4 -7 9.44211 6.1446 1
5 4 -7 -6.3951 8.51445 2
5 4 -7 15.6655 6.20807 1
4 4 -7 406.861 15.5087 1
4 4 -7 373.727 21.3985 2
3 4 -7 307.053 13.2045 1
3 4 -7 302.323 19.5849 2
2 4 -7 339.711 13.8449 1
2 4 -7 333.351 19.9287 2
1 4 -7 191.801 10.9776 1
1 4 -7 199.915 16.3843 2
0 4 -7 65.6949 7.81162 1
0 4 -7 70.5685 12.1277 2
-1 4 -7 225.197 12.2287 1
-1 4 -7 248.254 18.079 2
-2 4 -7 5.96806 5.33863 1
-2 4 -7 2.81084 8.30411 2
-3 4 -7 2.48793 5.59854 1
-3 4 -7 -10.41 7.77109 2
-4 4 -7 25.4703 10.017 2
-4 4 -7 23.0476 7.55101 1
-5 4 -7 -4.8936 6.16885 1
-5 4 -7 10.8375 9.20994 2
-6 4 -7 71.3185 11.65 1
-7 4 -7 110.106 14.5759 1
7 -4 7 105.528 14.1588 1
8 3 -7 374.48 19.0337 1
-8 -3 7 315.268 19.6758 3
7 3 -7 198.102 14.6938 1
-7 -3 7 172.417 15.1 3
6 3 -7 105.418 14.0759 2
6 3 -7 67.6095 8.9844 1
-6 -3 7 89.0812 10.8263 3
5 3 -7 84.7645 12.8947 2
5 3 -7 67.0395 8.16768 1
-5 -3 7 83.6968 9.37886 3
4 3 -7 10.6427 8.36436 2
4 3 -7 5.09551 4.58164 1
-4 -3 7 6.57796 5.07777 3
3 3 -7 497.257 22.4492 2
3 3 -7 489.28 15.3885 1
-3 -3 7 519.19 14.6746 3
2 3 -7 1913.47 44.4849 2
2 3 -7 1970.99 33.8968 1
-2 -3 7 2007.37 31.4403 3
1 3 -7 773.539 26.4526 2
1 3 -7 797.358 19.1159 1
0 3 -7 1162.71 23.7673 1
0 3 -7 1126.28 32.2158 2
-1 3 -7 916.995 28.705 2
-1 3 -7 922.429 21.5115 1
-2 3 -7 80.9528 8.482 1
-2 3 -7 98.0991 12.2391 2
-3 3 -7 139.161 7.02048 3
-3 3 -7 133.618 14.0203 2
-3 3 -7 163.521 11.3444 1
-4 3 -7 304.069 11.1795 3
-4 3 -7 321.134 15.2286 1
-4 3 -7 341.182 18.5236 2
-5 3 -7 92.37 11.0243 1
-5 3 -7 93.6503 12.6735 2
-5 3 -7 84.0645 8.34247 3
-6 3 -7 119.729 10.6635 3
-6 3 -7 106.877 12.1822 1
6 -3 7 122.215 13.0256 1
-7 3 -7 16.4042 7.64465 3
-7 3 -7 3.334 8.01805 1
7 -3 7 -4.2605 7.10414 1
-8 3 -7 7.6789 8.24833 3
-8 3 -7 6.7446 9.57951 1
8 -3 7 -3.4424 8.47448 1
8 2 -7 -3.1566 6.37715 1
-8 -2 7 -5.3259 8.46222 3
7 2 -7 1.83466 6.12692 1
-7 -2 7 -3.5301 7.36643 3
6 2 -7 2.03146 5.25892 1
6 2 -7 5.24167 7.87865 2
-6 -2 7 -12.032 5.9619 3
-6 -2 7 21.1983 8.51123 2
5 2 -7 48.74 10.4204 2
5 2 -7 32.8822 6.23508 1
-5 -2 7 46.5405 8.40297 3
4 2 -7 817.864 19.6115 1
4 2 -7 815.72 27.7526 2
-4 -2 7 788.588 21.7411 3
3 2 -7 125.402 8.3437 1
3 2 -7 146.197 14.4259 2
-3 -2 7 132.697 9.25924 3
2 2 -7 184.231 9.1446 1
2 2 -7 187.21 15.0398 2
-2 -2 7 198.724 9.54926 3
1 2 -7 420.469 19.4055 2
1 2 -7 429.893 12.9519 1
-1 -2 7 421.853 11.7737 3
0 2 -7 428.028 12.9472 1
0 2 -7 410.256 19.5456 2
0 -2 7 445.811 11.1021 3
-1 2 -7 196.914 9.87637 1
-1 2 -7 171.938 14.364 2
1 -2 7 190.184 7.15802 3
-2 2 -7 759.085 14.9289 3
-2 2 -7 755.362 24.7973 2
-2 2 -7 763.948 18.9652 1
2 -2 7 755.426 14.9912 3
-3 2 -7 385.987 18.7654 2
-3 2 -7 407.609 11.4181 3
-3 2 -7 402.564 14.7414 1
-4 2 -7 111.742 8.10246 3
-4 2 -7 94.0917 9.72949 1
-4 2 -7 113.417 12.0142 2
-5 2 -7 231.513 11.9209 3
-5 2 -7 248.554 14.3465 1
-5 2 -7 243.607 15.6773 2
-6 2 -7 193.506 12.2496 3
-6 2 -7 182.501 14.3818 1
6 -2 7 176.857 14.1485 1
-7 2 -7 83.1782 10.4347 3
-7 2 -7 76.2758 11.064 1
7 -2 7 65.1224 10.6624 1
-8 2 -7 338.085 20.2519 1
-8 2 -7 364.261 19.3659 3
8 -2 7 359.328 21.2151 1
8 1 -7 349.895 17.423 1
-8 -1 7 329.363 22.4804 3
7 1 -7 331.08 15.4453 1
-7 -1 7 306.604 20.0333 3
6 1 -7 258.198 13.0572 1
6 1 -7 268.986 17.7993 2
-6 -1 7 227.678 16.484 3
-6 -1 7 245.093 17.0036 2
5 1 -7 -6.3049 7.13097 2
5 1 -7 -0.1486 4.37486 1
-5 -1 7 1.69591 7.29826 2
-5 -1 7 -3.966 6.07223 3
4 1 -7 156.399 8.96315 1
4 1 -7 143.899 14.1559 2
-4 -1 7 133.669 13.6897 2
-4 -1 7 129.425 11.3682 3
3 1 -7 25.6429 4.58293 1
3 1 -7 26.6109 8.57939 2
-3 -1 7 30.6817 6.45986 3
2 1 -7 50.1777 5.30707 1
2 1 -7 41.0395 9.01249 2
-2 -1 7 54.3155 6.56595 3
1 1 -7 81.1567 6.39321 1
1 1 -7 67.9399 10.51 2
-1 -1 7 73.6984 6.72136 3
0 1 -7 165.522 7.86386 1
0 1 -7 163.789 13.592 2
0 -1 7 183.672 8.08157 3
-1 1 -7 50.0396 5.52132 1
-1 1 -7 41.1046 8.82092 2
-1 1 -7 45.9688 4.88456 3
1 -1 7 50.6 5.15457 3
-2 1 -7 44.4955 4.87927 3
-2 1 -7 40.895 8.53303 2
-2 1 -7 52.7763 6.5071 1
2 -1 7 42.2468 4.91658 3
-3 1 -7 -0.0018 4.04299 1
-3 1 -7 -1.8626 3.3651 3
-3 1 -7 11.0614 7.05741 2
-4 1 -7 104.524 9.45965 1
-4 1 -7 103.662 8.09373 3
-4 1 -7 113.377 11.4204 2
-5 1 -7 103.737 9.10505 3
-5 1 -7 92.3186 9.83208 1
-5 1 -7 109.312 11.274 2
5 -1 7 97.3027 10.0775 1
-6 1 -7 10.3322 6.57113 1
-6 1 -7 13.4559 6.18531 3
6 -1 7 15.1083 7.04271 1
-7 1 -7 222.141 14.1582 3
-7 1 -7 208.413 15.2828 1
7 -1 7 187.008 15.3941 1
-8 1 -7 28.1878 9.53606 1
-8 1 -7 16.749 7.95016 3
8 -1 7 24.9521 9.5267 1
-9 1 -7 61.693 12.038 1
-9 1 -7 55.2759 11.4003 3
9 -1 7 67.3338 12.6678 1
-8 0 7 182.438 19.0127 3
7 0 -7 73.719 9.09902 1
-7 0 7 68.7977 12.8319 3
6 0 -7 354.675 14.2642 1
6 0 -7 324.989 18.6314 2
-6 0 7 370.273 20.232 3
-6 0 7 342.822 18.8393 2
5 0 -7 477.601 21.6646 2
5 0 -7 472.71 14.8815 1
-5 0 7 502.724 21.3434 3
-5 0 7 459.122 21.1737 2
4 0 -7 861.813 27.8633 2
4 0 -7 877.931 18.6109 1
-4 0 7 836.56 27.2319 2
-4 0 7 882.557 25.4225 3
3 0 -7 3.91634 6.82092 2
3 0 -7 6.49551 3.39101 1
-3 0 7 -0.5462 4.99731 3
-3 0 7 5.94216 6.91111 2
2 0 -7 47.7517 4.85005 1
2 0 -7 45.1101 9.0767 2
-2 0 7 17.7118 7.71774 2
-2 0 7 43.2302 6.92604 3
1 0 -7 32.3435 8.3561 2
1 0 -7 15.9715 3.36323 1
-1 0 7 10.4047 6.72327 2
-1 0 7 13.6294 4.69348 3
0 0 -7 478.581 11.548 1
0 0 -7 466.614 19.4065 2
0 0 7 471.325 13.9028 3
-1 0 -7 512.039 19.893 2
-1 0 -7 505.372 13.6551 3
-1 0 -7 474.117 12.2721 1
1 0 7 514.053 13.8511 3
-2 0 -7 431.249 12.4314 1
-2 0 -7 426.714 17.8971 2
-2 0 -7 425.986 12.378 3
2 0 7 430.349 12.5253 3
-3 0 -7 139.327 8.25399 3
-3 0 -7 145.805 12.4455 2
-3 0 -7 126.491 8.64536 1
-4 0 -7 163.687 9.44045 3
-4 0 -7 184.264 13.0048 2
-4 0 -7 178.891 10.6191 1
-5 0 -7 81.5868 9.43377 2
-5 0 -7 87.334 9.11636 1
-5 0 -7 78.0321 8.36744 3
5 0 7 81.9032 9.06937 1
-6 0 -7 62.2654 9.0801 1
-6 0 -7 65.3592 8.5883 3
6 0 7 63.6559 9.21645 1
-7 0 -7 2.98788 6.40274 1
-7 0 -7 4.63791 6.23949 3
7 0 7 9.47568 6.98856 1
-8 0 -7 130.17 13.5462 3
-8 0 -7 96.5812 12.7046 1
8 0 7 110.146 13.0016 1
-9 0 -7 27.7113 9.1714 3
9 0 7 21.6308 9.59694 1
-7 1 7 16.1777 9.8877 3
-6 1 7 18.4771 9.68091 3
-6 1 7 13.3238 8.26742 2
-5 1 7 199.954 16.5377 3
-5 1 7 257.86 17.4163 2
4 -1 -7 463.645 12.6439 1
4 -1 -7 475.877 21.6656 2
-4 1 7 456.207 20.9683 2
-4 1 7 434.773 19.8358 3
3 -1 -7 1.01438 2.71102 1
3 -1 -7 -1.6982 6.77944 2
-3 1 7 8.34039 7.02797 2
-3 1 7 -6.093 5.43781 3
2 -1 -7 226.038 7.23029 1
2 -1 -7 226.738 15.1889 2
-2 1 7 216.742 12.8407 3
-2 1 7 204.598 14.7683 2
1 -1 -7 89.7826 11.2237 2
1 -1 -7 63.0462 4.53875 1
-1 1 7 71.9922 8.10333 3
-1 1 7 83.7868 10.6682 2
0 -1 -7 43.1455 4.00858 1
0 -1 -7 35.0401 7.96125 2
0 1 7 47.709 6.38259 3
0 1 7 37.0078 8.14191 2
-1 -1 -7 41.2383 5.71838 3
-1 -1 -7 38.8563 8.32597 2
-1 -1 -7 45.6078 4.50495 1
1 1 7 44.6615 8.45653 2
1 1 7 44.742 6.12184 3
-2 -1 -7 222.217 8.62317 1
-2 -1 -7 212.381 9.70256 3
-2 -1 -7 191.36 13.2374 2
2 1 7 216.853 13.7187 2
2 1 7 219.952 9.83848 3
-3 -1 -7 465.765 17.981 2
-3 -1 -7 450.591 14.3418 3
-3 -1 -7 452.742 13.2828 1
3 1 7 483.637 18.1928 2
3 1 7 471.269 13.2173 1
3 1 7 459.402 14.2324 3
-4 -1 -7 1656.26 34.9842 2
-4 -1 -7 1625.23 30.0885 1
-4 -1 -7 1712.26 30.793 3
4 1 7 1662.73 35.3502 2
4 1 7 1673.5 30.0412 1
-5 -1 -7 1003.49 24.9207 2
-5 -1 -7 988.902 23.4471 3
-5 -1 -7 968.283 23.3575 1
5 1 7 1012.92 23.7406 1
5 1 7 995.909 25.1502 2
-6 -1 -7 226.129 13.488 1
-6 -1 -7 220.796 13.3021 3
6 1 7 258.113 13.6948 1
-7 -1 -7 1.05457 6.35969 3
-7 -1 -7 7.31556 6.45592 1
7 1 7 3.08868 6.12114 1
-8 -1 -7 44.6128 9.51169 3
8 1 7 49.3409 9.74222 1
-9 -1 -7 24.3567 9.70577 3
9 1 7 20.778 9.1909 1
-7 2 7 -3.6532 10.3696 3
-6 2 7 12.6328 9.72464 3
-6 2 7 2.21513 8.8382 2
-5 2 7 11.3378 7.84307 2
-5 2 7 31.4636 10.2509 3
-4 2 7 429.269 20.8077 2
-4 2 7 396.518 20.4407 3
-3 2 7 236.585 15.6424 3
-3 2 7 212.902 15.8626 2
2 -2 -7 127.367 13.1 2
-2 2 7 131.423 11.7271 3
-2 2 7 118.268 12.6309 2
1 -2 -7 80.6795 10.8024 2
-1 2 7 70.9713 8.57994 3
-1 2 7 61.6897 9.99767 2
0 -2 -7 11.1324 2.24836 1
0 -2 -7 2.63847 6.19665 2
0 2 7 8.32384 4.9791 3
0 2 7 7.48184 6.74345 2
-1 -2 -7 78.2051 10.2158 2
-1 -2 -7 90.0765 4.7849 1
1 2 7 80.6542 7.87151 3
1 2 7 81.1788 10.5199 2
-2 -2 -7 160.105 7.04014 1
-2 -2 -7 152.369 12.1683 2
-2 -2 -7 157.073 9.79499 3
2 2 7 158.422 12.5479 2
2 2 7 177.353 10.0354 3
2 2 7 158.217 6.90352 1
-3 -2 -7 2.05152 5.3135 2
-3 -2 -7 11.4915 4.94452 3
-3 -2 -7 3.34096 3.42036 1
3 2 7 1.31889 2.94389 1
3 2 7 5.17569 3.9604 3
3 2 7 7.1589 5.55378 2
-4 -2 -7 138.668 8.69977 1
-4 -2 -7 144.81 11.9503 2
-4 -2 -7 125.688 9.88545 3
4 2 7 130.265 10.7759 2
4 2 7 135.457 8.01698 1
-5 -2 -7 100.274 9.65942 3
-5 -2 -7 85.2454 9.30784 2
-5 -2 -7 82.6773 8.26925 1
5 2 7 84.928 7.97697 1
5 2 7 57.562 8.27468 2
-6 -2 -7 143.952 11.0842 3
-6 -2 -7 169.09 11.8253 1
6 2 7 175.454 11.5628 1
-7 -2 -7 177.95 13.8792 3
7 2 7 155.263 12.6676 1
-8 -2 -7 213.337 15.1231 3
8 2 7 224.674 15.3502 1
-9 -2 -7 58.3008 11.5712 3
9 2 7 43.3432 10.2452 1
-6 3 7 22.4559 11.2335 3
-6 3 7 26.5299 10.3714 2
-5 3 7 242.655 19.0514 3
-5 3 7 234.624 18.1171 2
-4 3 7 644.921 25.7104 3
-4 3 7 681.546 26.8922 2
-3 3 7 626.369 24.7794 2
-3 3 7 617.715 23.3856 3
-2 3 7 1076 32.0604 2
-2 3 7 1091.8 28.9486 3
-1 3 7 204.303 15.1872 2
-1 3 7 195.386 13.0239 3
0 3 7 323.142 17.5717 2
0 3 7 315.201 14.8668 3
1 3 7 32.8095 8.0192 2
1 3 7 40.1073 7.02941 3
-2 -3 -7 41.3238 6.62859 3
2 3 7 44.1939 3.95268 1
2 3 7 32.391 6.34749 3
2 3 7 30.7031 7.80887 2
-3 -3 -7 110.597 9.4341 3
3 3 7 109.226 11.089 2
3 3 7 130.406 6.85807 1
3 3 7 111.303 9.47692 3
-4 -3 -7 438.466 16.04 3
4 3 7 445.912 12.8608 1
4 3 7 455.717 17.8646 2
4 3 7 459.65 16.206 3
-5 -3 -7 17.0257 5.86818 3
5 3 7 14.1509 6.02378 2
5 3 7 17.6915 4.61237 1
-6 -3 -7 7.39341 6.04435 3
6 3 7 14.1197 6.04383 2
6 3 7 17.189 5.4512 1
-7 -3 -7 19.9097 7.38438 3
7 3 7 17.4865 6.36229 1
-8 -3 -7 130.483 13.0756 3
8 3 7 127.355 12.3549 1
-9 -3 -7 23.7367 9.08193 3
9 3 7 3.04101 7.13956 1
-6 4 7 2.61046 10.8936 3
-6 4 7 13.9989 11.017 2
-5 4 7 9.41787 10.5579 2
-5 4 7 23.729 10.6255 3
-4 4 7 70.5764 12.6657 2
-4 4 7 60.7474 11.739 3
-3 4 7 16.1261 9.2261 2
-3 4 7 32.8565 9.64679 3
-2 4 7 209.717 15.3524 3
-2 4 7 205.894 16.9615 2
-1 4 7 358.914 20.0544 2
-1 4 7 418.164 18.4506 3
0 4 7 254.953 16.9446 2
0 4 7 257.363 14.8091 3
1 4 7 517.52 21.6554 2
1 4 7 502.107 18.4068 3
-2 -4 -7 1628.09 33.721 3
2 4 7 1701.64 39.0198 2
2 4 7 1671.38 34.6956 3
-3 -4 -7 32.2568 6.86946 3
3 4 7 52.5243 9.39477 2
3 4 7 53.5173 7.77698 3
-4 -4 -7 436.081 16.8521 3
4 4 7 455.604 18.6788 2
4 4 7 432.705 12.4315 1
4 4 7 425.111 16.5234 3
-5 -4 -7 289.268 14.5618 3
5 4 7 315.63 11.9712 1
5 4 7 305.146 15.2275 2
-6 -4 -7 218.438 13.3801 3
6 4 7 231.684 11.7396 1
6 4 7 217.468 13.0521 2
-7 -4 -7 171.994 13.2211 3
7 4 7 151.328 12.0276 1
-8 -4 -7 635.805 23.1605 3
8 4 7 624.559 22.2464 1
-9 -4 -7 375.968 19.6625 3
9 4 7 314.161 17.9968 1
-5 5 7 6.27684 11.5233 2
-5 5 7 -2.6673 10.4521 3
-4 5 7 34.6386 12.2513 2
-4 5 7 40.5975 11.791 3
-3 5 7 112.314 13.8655 3
-3 5 7 117.177 15.3587 2
-2 5 7 28.9814 10.6443 2
-2 5 7 23.4332 9.00003 3
-1 5 7 101.888 13.8761 2
-1 5 7 84.1157 11.8236 3
0 5 7 -2.4892 7.17687 2
0 5 7 -11.458 5.72246 3
1 5 7 17.5193 8.35787 2
1 5 7 28.5645 7.72877 3
-2 -5 -7 75.7222 9.59543 3
2 5 7 80.0742 11.308 2
2 5 7 67.6357 9.30652 3
-3 -5 -7 6.16031 5.35715 3
3 5 7 0.20423 6.46689 2
3 5 7 1.85758 5.27498 3
-4 -5 -7 10.2133 5.92765 3
4 5 7 13.5982 6.00514 3
4 5 7 18.1228 7.11666 2
-5 -5 -7 154.047 12.6254 3
5 5 7 148.171 12.493 3
5 5 7 148.101 13.029 2
-6 -5 -7 57.6104 9.31717 3
6 5 7 61.6795 7.57699 1
6 5 7 61.1428 9.385 2
-7 -5 -7 117.461 12.1915 3
7 5 7 122.023 10.7883 1
-8 -5 -7 142.885 14.4528 3
8 5 7 163.861 13.356 1
-9 -5 -7 123.091 14.8624 3
9 5 7 104.47 12.7763 1
-4 6 7 16.4502 13.2077 2
-4 6 7 -2.9727 10.4694 3
-3 6 7 22.1145 10.8014 3
-3 6 7 20.4743 12.054 2
-2 6 7 11.2734 10.9935 2
-2 6 7 6.4078 9.19002 3
-1 6 7 114.738 15.4306 2
-1 6 7 120.486 14.1787 3
0 6 7 509.095 22.2649 3
0 6 7 525.438 25.0533 2
1 6 7 931.807 31.7031 2
1 6 7 925.782 28.1253 3
2 6 7 278.505 18.6168 2
2 6 7 299.254 16.4927 3
-3 -6 -7 10.5743 6.51865 3
3 6 7 12.7056 8.11172 2
3 6 7 0.25939 6.10501 3
-4 -6 -7 121.721 11.9644 3
4 6 7 136.711 13.8153 2
4 6 7 158.128 13.453 3
-5 -6 -7 6.46096 6.25148 3
5 6 7 7.42629 6.28662 3
5 6 7 -2.5733 6.88852 2
-6 -6 -7 5.77253 7.24784 3
6 6 7 14.7258 7.25041 3
6 6 7 15.1535 7.87515 2
-7 -6 -7 5.73671 7.1824 3
-8 -6 -7 -6.8768 6.71055 3
8 6 7 -1.4818 6.04543 1
-3 7 7 48.9642 15.2463 2
-3 7 7 5.98597 10.5579 3
-2 7 7 52.9667 12.7715 3
-2 7 7 34.2271 13.8433 2
-1 7 7 16.8868 11.9667 2
-1 7 7 -1.4113 9.67797 3
0 7 7 36.3686 10.2552 3
0 7 7 18.3462 10.5147 2
1 7 7 461.97 25.5158 2
1 7 7 479.382 22.7971 3
2 7 7 160.507 17.5533 2
2 7 7 177.439 15.0635 3
-3 -7 -7 249.075 16.7345 3
3 7 7 273.43 19.9537 2
3 7 7 259.781 16.9549 3
-4 -7 -7 126.87 12.831 3
4 7 7 143.788 15.38 2
4 7 7 153.138 14.0473 3
-5 -7 -7 209.192 15.7759 3
5 7 7 197.932 15.3952 3
5 7 7 206.765 17.1434 2
-6 -7 -7 114.195 13.0143 3
6 7 7 117.835 13.9544 2
6 7 7 147.623 14.3625 3
-7 -7 -7 5.03449 7.6787 3
7 7 7 -3.115 6.95506 3
-1 8 7 12.0034 12.2092 2
-1 8 7 3.65767 9.75443 3
0 8 7 -4.9109 8.95381 3
0 8 7 -9.0705 10.3571 2
1 8 7 94.6985 13.8733 3
1 8 7 96.6261 15.6327 2
2 8 7 -3.7537 7.85869 3
2 8 7 -8.0696 8.36322 2
3 8 7 4.09477 9.47053 2
3 8 7 6.86884 8.56079 3
-4 -8 -7 14.044 8.99028 3
4 8 7 27.3711 9.83391 3
4 8 7 12.2934 9.49302 2
-5 -8 -7 196.297 16.6149 3
5 8 7 182.503 18.2149 2
5 8 7 187.26 16.8045 3
-6 -8 -7 69.9374 11.7707 3
6 8 7 56.2666 12.32 2
6 8 7 63.1442 11.141 3
1 9 7 23.7493 12.3711 2
1 9 7 25.3363 11.5662 3
2 9 7 1.80194 10.6974 2
2 9 7 1.30612 9.73096 3
3 9 7 35.6882 12.2881 2
3 9 7 49.6677 11.6309 3
4 9 7 1.2772 8.67994 3
4 9 7 2.54015 10.4877 2
3 8 -8 17.4312 8.7198 1
3 8 -8 34.8937 14.5974 2
2 8 -8 -11.303 11.7611 2
2 8 -8 5.38561 7.30575 1
1 8 -8 59.2538 16.9019 2
1 8 -8 60.0241 10.6449 1
0 8 -8 52.3345 10.7531 1
0 8 -8 52.9779 16.7491 2
-1 8 -8 -7.3266 8.04993 1
-1 8 -8 5.82379 15.0121 2
-2 8 -8 -0.7318 8.71676 1
-2 8 -8 31.2258 16.2288 2
5 7 -8 80.2421 11.4966 1
5 7 -8 45.5286 14.7846 2
4 7 -8 -6.3132 11.0443 2
4 7 -8 12.0203 7.7336 1
3 7 -8 37.7704 9.02192 1
3 7 -8 58.0817 14.7615 2
2 7 -8 208.3 21.3857 2
2 7 -8 232.325 15.4564 1
1 7 -8 -11.406 10.9648 2
1 7 -8 11.8438 7.54155 1
0 7 -8 -1.913 12.2936 2
0 7 -8 9.91046 7.31348 1
-1 7 -8 31.6032 13.5842 2
-1 7 -8 24.6656 8.43573 1
-2 7 -8 51.6401 10.4306 1
-2 7 -8 68.1082 16.1376 2
-3 7 -8 -5.1745 13.4157 2
-3 7 -8 12.5013 9.03084 1
-4 7 -8 -10.017 13.1302 2
-4 7 -8 8.83279 8.78511 1
6 6 -8 97.3441 12.1435 1
6 6 -8 97.4697 17.3296 2
5 6 -8 46.8078 9.2345 1
5 6 -8 57.3056 14.1359 2
4 6 -8 115.584 11.9147 1
4 6 -8 134.547 17.8933 2
3 6 -8 55.6862 13.8262 2
3 6 -8 70.9661 10.1945 1
2 6 -8 17.0543 11.4473 2
2 6 -8 21.9495 7.3717 1
1 6 -8 16.5662 11.674 2
1 6 -8 7.45537 6.48555 1
0 6 -8 232.264 21.4569 2
0 6 -8 168.895 13.4986 1
-1 6 -8 326.508 24.1699 2
-1 6 -8 271.085 15.8555 1
-2 6 -8 491.2 27.7034 2
-2 6 -8 530.386 20.95 1
-3 6 -8 164.908 14.7034 1
-3 6 -8 171.258 19.7349 2
-4 6 -8 47.2115 14.1746 2
-4 6 -8 17.5594 8.95406 1
-5 6 -8 16.9548 9.92943 1
-5 6 -8 30.9729 13.5986 2
6 5 -8 93.4072 15.8294 2
6 5 -8 117.056 12.2935 1
5 5 -8 10.352 11.5695 2
5 5 -8 38.3126 8.45582 1
4 5 -8 4.39396 9.87158 2
4 5 -8 12.2005 6.40786 1
3 5 -8 5.17146 6.19393 1
3 5 -8 -1.4111 9.68934 2
2 5 -8 43.2681 11.7958 2
2 5 -8 31.1909 7.3097 1
1 5 -8 34.7404 7.55079 1
1 5 -8 21.1827 11.0887 2
0 5 -8 39.1268 11.39 2
0 5 -8 31.509 7.20562 1
-1 5 -8 35.7566 12.1643 2
-1 5 -8 36.7186 7.52569 1
-2 5 -8 327.934 16.3785 1
-2 5 -8 313.288 22.2474 2
-3 5 -8 45.933 9.46486 1
-3 5 -8 62.849 13.4098 2
-4 5 -8 206.929 15.5588 1
-4 5 -8 201.975 19.8872 2
-5 5 -8 245.316 21.1355 2
-5 5 -8 227.691 17.4304 1
-6 5 -8 -5.8558 8.11388 1
7 4 -8 16.0406 7.43017 1
6 4 -8 117.514 11.6224 1
6 4 -8 108.455 15.4736 2
5 4 -8 400.027 16.7806 1
5 4 -8 430.516 24.5398 2
4 4 -8 616.718 27.3235 2
4 4 -8 558.911 18.5651 1
3 4 -8 222.125 12.7611 1
3 4 -8 203.675 18.6987 2
2 4 -8 5.53974 8.80591 2
2 4 -8 -1.9339 4.67784 1
1 4 -8 154.089 16.1973 2
1 4 -8 194.778 11.593 1
0 4 -8 11.4457 9.42273 2
0 4 -8 9.88951 5.41343 1
-1 4 -8 43.3963 11.4198 2
-1 4 -8 31.7864 6.89506 1
-2 4 -8 263.625 19.6212 2
-2 4 -8 257.85 14.0784 1
-3 4 -8 46.3817 8.2125 1
-3 4 -8 50.9645 12.1226 2
-4 4 -8 389.804 23.1863 2
-4 4 -8 377.076 18.0382 1
-5 4 -8 11.8057 7.9908 1
-5 4 -8 10.8651 10.8823 2
-6 4 -8 33.9866 10.0704 1
-7 4 -8 18.1459 9.92022 1
7 -4 8 9.78801 9.27381 1
7 3 -8 8.882 6.63158 1
6 3 -8 9.93763 6.19256 1
6 3 -8 8.8136 9.6653 2
5 3 -8 177.58 11.7809 1
5 3 -8 200.76 18.5262 2
4 3 -8 3.12388 5.15523 1
4 3 -8 13.5196 9.57846 2
3 3 -8 211.795 11.2835 1
3 3 -8 213.798 17.6764 2
2 3 -8 1538.53 29.925 1
2 3 -8 1610.49 41.4187 2
1 3 -8 403.082 14.3929 1
1 3 -8 378.99 21.3248 2
0 3 -8 229.476 11.5257 1
0 3 -8 220.18 17.5342 2
-1 3 -8 75.9254 12.3257 2
-1 3 -8 81.5434 8.7171 1
-2 3 -8 176.61 16.5568 2
-2 3 -8 143.079 10.7531 1
-3 3 -8 118.033 14.3481 2
-3 3 -8 118.399 10.8025 1
-4 3 -8 545.819 24.5596 2
-4 3 -8 563.428 20.1031 1
-5 3 -8 168.098 16.1614 2
-5 3 -8 175.535 14.4369 1
-6 3 -8 -0.5064 7.16707 1
6 -3 8 -0.6225 7.22719 1
-7 3 -8 97.3875 13.4971 1
7 -3 8 86.2897 12.6072 1
-8 3 -8 11.8608 10.0336 1
8 -3 8 10.8423 9.97316 1
7 2 -8 6.77273 6.47691 1
-7 -2 8 1.98297 8.61445 3
6 2 -8 20.5499 6.41106 1
6 2 -8 30.3632 10.3174 2
-6 -2 8 9.24196 8.6671 2
-6 -2 8 19.0669 8.1719 3
5 2 -8 4.12305 4.99393 1
5 2 -8 -5.1542 7.60038 2
-5 -2 8 -7.0969 5.87997 3
-5 -2 8 5.5905 7.67995 2
4 2 -8 26.6277 5.52813 1
4 2 -8 14.295 9.09518 2
-4 -2 8 4.59149 5.91786 3
3 2 -8 475.496 22.6605 2
3 2 -8 462.308 14.5872 1
-3 -2 8 480.443 16.2003 3
2 2 -8 9.39985 4.22709 1
2 2 -8 -5.6554 7.38731 2
-2 -2 8 6.69172 4.47868 3
1 2 -8 140.732 8.68463 1
1 2 -8 123.516 13.8558 2
-1 -2 8 123.568 7.8032 3
0 2 -8 84.3718 12.1174 2
0 2 -8 96.5089 8.001 1
0 -2 8 89.6316 6.63057 3
-1 2 -8 121.814 9.31903 1
-1 2 -8 107.844 13.2687 2
1 -2 8 123.346 6.80616 3
-2 2 -8 1.39108 3.17105 3
-2 2 -8 7.06476 4.77465 1
-2 2 -8 -3.8479 7.10524 2
2 -2 8 3.37669 2.99475 3
-3 2 -8 11.0082 5.63909 1
-3 2 -8 2.38348 3.65006 3
-3 2 -8 27.5491 9.09433 2
3 -2 8 14.0738 3.59479 3
-4 2 -8 70.3173 6.85462 3
-4 2 -8 79.6654 9.69251 1
-4 2 -8 97.4952 12.9907 2
-5 2 -8 20.1017 7.5713 1
-5 2 -8 25.5046 9.75353 2
-5 2 -8 35.7471 6.48019 3
-6 2 -8 34.9169 7.18961 3
-6 2 -8 32.2468 8.68381 1
6 -2 8 22.4623 8.21175 1
-7 2 -8 105.762 11.2324 3
-7 2 -8 99.7262 13.1787 1
7 -2 8 88.3852 12.1482 1
-8 2 -8 95.0937 13.7297 1
-8 2 -8 122.521 13.0123 3
8 -2 8 99.7166 14.0358 1
7 1 -8 159.005 12.5239 1
-7 -1 8 169.062 16.7386 3
6 1 -8 93.8301 13.6342 2
6 1 -8 70.4032 8.50516 1
-6 -1 8 35.282 9.96596 2
-6 -1 8 63.9291 11.3291 3
5 1 -8 79.127 12.6947 2
5 1 -8 96.5948 8.66619 1
-5 -1 8 109.271 13.4684 2
-5 -1 8 70.4932 10.7965 3
4 1 -8 26.1579 5.34352 1
4 1 -8 15.7337 9.07089 2
-4 -1 8 20.9969 7.19723 3
-4 -1 8 27.0514 9.42452 2
3 1 -8 32.4442 5.14281 1
3 1 -8 24.6178 9.51253 2
-3 -1 8 27.151 9.39392 2
-3 -1 8 21.8557 6.5156 3
2 1 -8 446.448 21.7825 2
2 1 -8 493.178 13.7608 1
-2 -1 8 502.572 16.5249 3
1 1 -8 291.695 17.4623 2
1 1 -8 286.582 10.4492 1
-1 -1 8 292.338 11.678 3
0 1 -8 244.65 9.91047 1
0 1 -8 235.423 16.5158 2
0 -1 8 246.611 10.3451 3
-1 1 -8 12.5463 7.93514 2
-1 1 -8 14.4171 4.43571 1
1 -1 8 11.7441 3.85255 3
-2 1 -8 1.77967 3.50095 3
-2 1 -8 2.23762 7.04479 2
-2 1 -8 1.12577 4.12514 1
2 -1 8 8.94071 3.57614 3
-3 1 -8 4.25818 7.65456 2
-3 1 -8 5.50152 3.93522 3
-3 1 -8 9.64413 5.1294 1
3 -1 8 3.20807 3.31402 3
-4 1 -8 0.0849 4.99692 1
-4 1 -8 -1.0982 4.18061 3
-4 1 -8 -0.9843 7.1388 2
-5 1 -8 3.25613 5.90717 1
-5 1 -8 22.6568 8.78443 2
-5 1 -8 17.2165 5.58168 3
5 -1 8 19.0837 6.50548 1
-6 1 -8 0.11533 5.70533 3
-6 1 -8 4.41594 6.60304 1
6 -1 8 7.40883 6.75772 1
-7 1 -8 11.4108 8.13026 1
-7 1 -8 13.2547 6.92742 3
7 -1 8 9.91484 7.72144 1
-8 1 -8 16.9027 9.13008 1
-8 1 -8 -4.8294 7.33083 3
8 -1 8 -10.705 8.11566 1
-7 0 8 93.5884 14.5025 3
6 0 -8 77.4885 12.6562 2
-6 0 8 57.0832 11.3971 2
-6 0 8 74.4664 12.894 3
5 0 -8 56.577 11.2141 2
5 0 -8 67.0962 7.36478 1
-5 0 8 53.5882 10.8074 2
-5 0 8 32.7182 9.18534 3
4 0 -8 27.499 5.24631 1
4 0 -8 38.232 10.444 2
-4 0 8 30.4462 9.31317 2
-4 0 8 16.6955 7.86246 3
3 0 -8 72.4389 11.9459 2
3 0 -8 88.6566 6.76767 1
-3 0 8 85.3323 12.1195 2
-3 0 8 83.5673 9.78773 3
2 0 -8 278.35 18.106 2
2 0 -8 296.089 9.96529 1
-2 0 8 287.893 18.0098 2
-2 0 8 300.191 14.2206 3
1 0 -8 588.158 23.5337 2
1 0 -8 593.171 13.7951 1
-1 0 8 569.97 23.3425 2
-1 0 8 603.817 18.0094 3
0 0 -8 285.062 9.67675 1
0 0 -8 272.777 16.5252 2
0 0 8 291.068 11.9378 3
0 0 8 317.785 17.2465 2
-1 0 -8 642.833 23.6853 2
-1 0 -8 659.952 15.3342 1
1 0 8 613.894 16.5171 3
-2 0 -8 995.552 28.9192 2
-2 0 -8 997.65 20.6833 1
-2 0 -8 994.149 21.2804 3
2 0 8 988.692 21.3241 3
-3 0 -8 656.843 17.8105 1
-3 0 -8 684.188 23.6724 2
-3 0 -8 658.42 17.0988 3
3 0 8 677.623 17.3962 3
-4 0 -8 318.905 12.6499 3
-4 0 -8 323.493 16.8742 2
-4 0 -8 301.1 13.302 1
-5 0 -8 -6.205 5.7457 2
-5 0 -8 -5.0786 4.55054 3
-5 0 -8 5.59902 5.62643 1
5 0 8 -2.5796 4.96581 1
-6 0 -8 5.56201 5.95607 3
-6 0 -8 20.5436 6.94549 1
6 0 8 16.2602 6.80555 1
-7 0 -8 206.55 15.6833 1
-7 0 -8 211.96 13.7558 3
7 0 8 196.974 15.0786 1
-8 0 -8 191.24 15.5402 3
-8 0 -8 201.399 16.9505 1
8 0 8 201.551 16.9189 1
-9 0 -8 81.9787 12.5525 3
-9 0 -8 61.6138 12.3285 1
9 0 8 52.8201 12.027 1
-7 1 8 50.5284 13.5247 3
-6 1 8 39.4323 10.2288 2
-6 1 8 25.5916 10.1702 3
-5 1 8 -2.5506 7.5696 3
-5 1 8 -7.7925 7.44372 2
4 -1 -8 10.7583 8.73893 2
-4 1 8 26.7305 9.35541 2
-4 1 8 5.51029 7.52801 3
3 -1 -8 26.6435 9.23153 2
-3 1 8 6.01879 7.77293 2
-3 1 8 14.3737 6.99525 3
2 -1 -8 -2.7079 2.62551 1
2 -1 -8 -5.0651 6.30748 2
-2 1 8 -2.5755 5.21291 3
-2 1 8 12.6851 7.67208 2
1 -1 -8 90.8898 5.50564 1
1 -1 -8 93.9738 12.102 2
-1 1 8 82.4956 11.5051 2
-1 1 8 123.783 10.8674 3
0 -1 -8 8.75709 2.94989 1
0 -1 -8 11.0006 7.26852 2
0 1 8 11.0633 7.2408 2
0 1 8 6.80097 4.8758 3
-1 -1 -8 228.173 15.7332 2
-1 -1 -8 224.602 8.43694 1
1 1 8 230.674 11.1992 3
1 1 8 241.595 15.9058 2
-2 -1 -8 1086.72 30.5006 2
-2 -1 -8 1132.71 24.0436 3
-2 -1 -8 1103.17 21.1792 1
2 1 8 1163.12 31.4333 2
2 1 8 1130.07 24.4059 3
-3 -1 -8 1817.87 40.4054 2
-3 -1 -8 1883.7 33.5061 3
-3 -1 -8 1889.63 31.6238 1
3 1 8 1863.51 33.6381 3
3 1 8 1822.64 40.5751 2
-4 -1 -8 178.847 13.5225 2
-4 -1 -8 194.556 10.7942 1
-4 -1 -8 196.698 11.2701 3
4 1 8 207.308 10.3982 1
4 1 8 194.884 13.3866 2
-5 -1 -8 417.484 15.7799 3
-5 -1 -8 454.716 16.5016 1
-5 -1 -8 419.55 17.6812 2
5 1 8 415.998 15.5859 1
5 1 8 434.604 17.9693 2
-6 -1 -8 93.8177 9.97869 3
-6 -1 -8 83.2736 9.65165 1
6 1 8 64.671 8.85653 1
-7 -1 -8 122.72 12.2611 3
-7 -1 -8 112.231 12.0227 1
7 1 8 126.764 12.517 1
-8 -1 -8 85.317 11.9813 1
-8 -1 -8 114.15 12.5813 3
8 1 8 123.369 13.7344 1
-9 -1 -8 253.958 18.2573 3
9 1 8 241.31 18.329 1
-6 2 8 401.935 23.6461 3
-6 2 8 392.475 22.4421 2
-5 2 8 199.598 17.92 2
-5 2 8 238.127 18.6786 3
-4 2 8 121.227 14.0713 2
-4 2 8 127.355 14.6715 3
-3 2 8 37.2179 9.06275 3
-3 2 8 8.12924 8.30952 2
2 -2 -8 59.5669 10.8122 2
-2 2 8 28.9311 9.17032 2
-2 2 8 59.1276 9.78288 3
1 -2 -8 0.60282 7.26616 2
-1 2 8 23.1807 8.56576 2
-1 2 8 16.9322 6.47428 3
0 -2 -8 230.224 16.1024 2
0 2 8 198.496 15.7931 2
0 2 8 221.153 12.74 3
-1 -2 -8 630.862 12.8662 1
-1 -2 -8 651.386 23.9249 2
1 2 8 638.714 24.0362 2
1 2 8 647.008 19.2667 3
-2 -2 -8 188.828 14.2473 2
-2 -2 -8 177.542 10.5989 3
-2 -2 -8 190.314 7.78176 1
2 2 8 199.613 7.96999 1
2 2 8 167.963 10.5021 3
2 2 8 199.191 14.5919 2
-3 -2 -8 36.1105 8.15446 2
-3 -2 -8 35.8607 5.184 1
-3 -2 -8 37.1128 6.49934 3
3 2 8 27.4589 7.52284 2
3 2 8 37.6603 5.20822 1
3 2 8 31.0687 6.07278 3
-4 -2 -8 11.9176 5.51534 3
-4 -2 -8 8.74911 4.2113 1
-4 -2 -8 6.67303 5.99615 2
4 2 8 11.2637 4.17975 1
4 2 8 3.10964 4.57248 3
4 2 8 16.7267 6.53778 2
-5 -2 -8 46.755 8.34409 2
-5 -2 -8 38.1691 6.55186 1
-5 -2 -8 48.3249 7.71489 3
5 2 8 48.3503 6.65072 1
5 2 8 57.9415 8.98513 2
-6 -2 -8 28.2534 6.91774 1
-6 -2 -8 40.2314 8.04386 3
6 2 8 25.2076 6.2796 1
-7 -2 -8 285.335 15.9186 3
7 2 8 255.162 14.7713 1
-8 -2 -8 11.8188 7.75689 3
8 2 8 18.9752 7.83917 1
-9 -2 -8 176.689 16.686 3
9 2 8 182.286 16.5572 1
-6 3 8 27.3732 12.1696 3
-6 3 8 23.289 10.8631 2
-5 3 8 94.7565 13.7072 2
-5 3 8 102.144 15.0256 3
-4 3 8 811.939 29.2556 3
-4 3 8 819.035 30.2092 2
-3 3 8 471.659 23.2524 2
-3 3 8 444.996 21.3224 3
-2 3 8 138.099 13.443 3
-2 3 8 129.598 14.3443 2
-1 3 8 154.164 15.0427 2
-1 3 8 125.532 12.4041 3
0 3 8 41.7913 9.72159 2
0 3 8 25.0368 7.51767 3
1 3 8 321.979 18.4057 2
1 3 8 311.375 14.9478 3
-2 -3 -8 2646.38 45.7158 3
2 3 8 2493.96 52.1249 2
2 3 8 2627.2 46.3269 3
-3 -3 -8 2977.64 49.1027 3
3 3 8 2928.41 49.5482 3
3 3 8 2932.6 56.3741 2
-4 -3 -8 151.959 11.909 3
4 3 8 136.101 10.706 3
4 3 8 130.621 12.4098 2
4 3 8 127.368 7.94003 1
-5 -3 -8 246.339 14.2109 3
5 3 8 270.509 15.0919 2
5 3 8 255.12 11.3089 1
-6 -3 -8 7.57152 6.35653 3
6 3 8 7.67975 6.16238 2
6 3 8 6.01269 4.63425 1
-7 -3 -8 8.25306 6.67453 3
7 3 8 20.6028 6.60675 1
-8 -3 -8 30.0677 8.93983 3
8 3 8 29.3586 7.81637 1
-9 -3 -8 96.2716 13.0426 3
9 3 8 90.981 12.3265 1
-5 4 8 193.715 19.8665 2
-5 4 8 168.949 18.6775 3
-4 4 8 44.0527 11.4577 3
-4 4 8 49.3663 11.9919 2
-3 4 8 -3.5066 8.37515 2
-3 4 8 4.76728 8.42566 3
-2 4 8 141.107 14.4967 3
-2 4 8 213.411 17.9447 2
-1 4 8 217.478 17.3681 2
-1 4 8 203.693 15.9611 3
0 4 8 100.199 11.4673 3
0 4 8 108.648 13.2678 2
1 4 8 217.689 16.8294 2
1 4 8 204.49 13.8641 3
-2 -4 -8 1568.5 34.311 3
2 4 8 1633.63 35.5396 3
2 4 8 1597.29 39.9383 2
-3 -4 -8 35.9907 7.42532 3
3 4 8 42.7708 7.85889 3
3 4 8 36.5686 8.94142 2
-4 -4 -8 202.841 13.4636 3
4 4 8 217.094 15.1579 2
4 4 8 233.023 13.4572 3
-5 -4 -8 686.804 21.9645 3
5 4 8 689.842 22.434 3
5 4 8 678.367 23.9187 2
-6 -4 -8 331.575 16.5235 3
6 4 8 303.297 13.4618 1
6 4 8 319.16 16.4326 2
-7 -4 -8 341.677 17.9008 3
7 4 8 359.531 16.0169 1
-8 -4 -8 52.0394 10.3738 3
8 4 8 48.9133 9.0817 1
-9 -4 -8 101.259 13.2586 3
9 4 8 84.3264 11.9778 1
-4 5 8 159.803 19.4165 2
-4 5 8 147.71 17.6062 3
-3 5 8 3.58623 9.30867 3
-3 5 8 24.4648 12.0178 2
-2 5 8 56.5456 12.4259 2
-2 5 8 51.8767 11.4576 3
-1 5 8 15.4789 9.39328 2
-1 5 8 6.33758 8.57215 3
0 5 8 206.759 16.5518 3
0 5 8 163.564 16.0623 2
1 5 8 -18.132 6.32292 2
1 5 8 4.0313 7.13587 3
2 5 8 6.44606 6.24141 3
2 5 8 11.9067 8.3058 2
-3 -5 -8 47.7342 8.94324 3
3 5 8 32.7826 9.3429 2
3 5 8 45.5664 8.58935 3
-4 -5 -8 50.4012 8.45246 3
4 5 8 58.7234 10.3647 2
4 5 8 55.8803 8.78073 3
-5 -5 -8 43.4341 8.57491 3
5 5 8 47.5598 9.09449 3
5 5 8 49.8591 9.3169 2
-6 -5 -8 450.309 19.7309 3
6 5 8 456.445 19.9023 3
6 5 8 455.08 20.1484 2
-7 -5 -8 66.4257 10.9767 3
-8 -5 -8 54.6574 10.7226 3
8 5 8 55.979 9.10083 1
-3 6 8 -0.6663 11.6712 2
-3 6 8 33.8315 11.5883 3
-2 6 8 112.845 16.7456 2
-2 6 8 87.5211 14.2694 3
-1 6 8 268.963 19.4183 3
-1 6 8 321.674 22.8187 2
0 6 8 296.651 21.236 2
0 6 8 289.63 19.1378 3
1 6 8 23.4089 10.2403 2
1 6 8 30.6261 9.62124 3
2 6 8 19.3206 9.40794 2
2 6 8 41.0576 9.41762 3
-3 -6 -8 60.1519 9.80995 3
3 6 8 60.0434 10.069 3
3 6 8 63.8544 11.5099 2
-4 -6 -8 -3.7261 6.03437 3
4 6 8 20.3349 7.78645 3
4 6 8 5.9538 7.56007 2
-5 -6 -8 85.9823 11.0335 3
5 6 8 91.7299 12.2313 2
5 6 8 69.0487 10.9655 3
-6 -6 -8 166.86 14.7162 3
6 6 8 165.85 15.6202 2
6 6 8 154.862 14.987 3
-7 -6 -8 214.565 16.5972 3
7 6 8 225.576 16.3998 3
-8 -6 -8 62.77 11.6973 3
-2 7 8 43.9618 13.0321 3
-2 7 8 51.2828 15.2296 2
-1 7 8 93.75 14.6177 3
-1 7 8 83.8109 16.1834 2
0 7 8 143.898 17.6308 2
0 7 8 110.578 14.964 3
1 7 8 8.10388 9.83641 2
1 7 8 10.9728 9.601 3
2 7 8 70.9941 12.0868 3
2 7 8 50.0712 12.0212 2
3 7 8 292.716 18.2392 3
3 7 8 286.982 20.9846 2
-4 -7 -8 29.8868 9.26632 3
4 7 8 50.3836 9.93414 3
4 7 8 22.3372 10.8837 2
-5 -7 -8 5.29656 7.60374 3
5 7 8 13.5116 8.18482 3
5 7 8 9.95425 9.6109 2
-6 -7 -8 183.493 16.4164 3
6 7 8 235.602 17.7573 3
6 7 8 198.934 18.0024 2
-7 -7 -8 182.655 16.9474 3
7 7 8 167.639 16.4514 3
0 8 8 15.848 11.49 3
0 8 8 8.25949 11.6693 2
1 8 8 25.7859 11.4336 3
1 8 8 23.7266 12.2798 2
2 8 8 25.5062 10.3334 3
2 8 8 22.2258 11.3388 2
3 8 8 71.5597 12.3367 3
3 8 8 24.4835 11.2308 2
-4 -8 -8 14.4716 9.25505 3
4 8 8 18.9158 9.71935 3
4 8 8 4.3433 9.46413 2
-5 -8 -8 3.25697 8.4266 3
5 8 8 4.64504 9.60217 2
5 8 8 9.37048 8.52328 3
4 7 -9 -4.9361 6.67317 1
4 7 -9 -11.073 11.9956 2
3 7 -9 10.119 7.63698 1
3 7 -9 22.6712 13.7802 2
2 7 -9 3.05026 13.2174 2
2 7 -9 1.09612 7.94331 1
1 7 -9 104.089 18.148 2
1 7 -9 87.8994 12.1972 1
0 7 -9 90.8531 18.1139 2
0 7 -9 70.1424 11.2417 1
-1 7 -9 -10.297 6.66423 1
-1 7 -9 -8.1439 13.684 2
-2 7 -9 167.862 15.9075 1
-2 7 -9 155.918 21.26 2
-3 7 -9 40.0631 15.9342 2
-3 7 -9 48.5485 11.1593 1
5 6 -9 0.79787 11.8069 2
5 6 -9 20.7054 8.55905 1
4 6 -9 90.3981 11.2828 1
4 6 -9 63.0454 15.1533 2
3 6 -9 -2.5155 6.51331 1
3 6 -9 10.1672 11.7098 2
2 6 -9 145.42 18.548 2
2 6 -9 155.374 13.7565 1
1 6 -9 16.885 12.9311 2
1 6 -9 23.1833 7.98838 1
0 6 -9 241.065 15.7195 1
0 6 -9 191.906 21.3135 2
-1 6 -9 376.065 26.7444 2
-1 6 -9 354.722 18.5305 1
-2 6 -9 -9.1473 11.7948 2
-2 6 -9 7.65195 7.85356 1
-3 6 -9 11.5116 13.0245 2
-3 6 -9 1.44867 7.3424 1
-4 6 -9 23.716 9.71104 1
-4 6 -9 13.4837 13.6282 2
5 5 -9 119.681 12.4086 1
5 5 -9 147.865 18.9256 2
4 5 -9 37.6536 8.74806 1
4 5 -9 25.1089 12.3441 2
3 5 -9 -5.9992 10.7217 2
3 5 -9 -1.8693 5.72549 1
2 5 -9 27.0287 7.31177 1
2 5 -9 21.6512 11.5432 2
1 5 -9 9.56258 6.26741 1
1 5 -9 2.61775 10.1721 2
0 5 -9 22.3548 11.6833 2
0 5 -9 13.2092 6.72075 1
-1 5 -9 -5.3538 6.05194 1
-1 5 -9 6.37467 11.4698 2
-2 5 -9 18.1822 12.4136 2
-2 5 -9 21.7302 7.88241 1
-3 5 -9 -14.264 11.3173 2
-3 5 -9 -6.4093 6.82331 1
-4 5 -9 -15.57 6.23731 1
-4 5 -9 27.4531 13.2455 2
-5 5 -9 1.97554 8.54439 1
-5 5 -9 8.8241 12.7507 2
6 4 -9 203.951 14.4632 1
6 4 -9 227.559 21.4838 2
5 4 -9 230.257 14.0417 1
5 4 -9 238.559 21.824 2
4 4 -9 293.453 22.3127 2
4 4 -9 303.286 15.2398 1
3 4 -9 538.274 19.0423 1
3 4 -9 533.523 27.1319 2
2 4 -9 10.2205 6.0524 1
2 4 -9 3.06673 9.62031 2
1 4 -9 137.144 16.7361 2
1 4 -9 131.632 10.8456 1
0 4 -9 81.1034 9.65504 1
0 4 -9 73.7346 13.3051 2
-1 4 -9 284.766 21.6059 2
-1 4 -9 292.633 14.7696 1
-2 4 -9 134.167 16.8381 2
-2 4 -9 104.65 11.0758 1
-3 4 -9 30.1595 12.3196 2
-3 4 -9 23.9508 7.83045 1
-4 4 -9 104.797 12.1123 1
-4 4 -9 114.122 16.8478 2
-5 4 -9 14.9567 8.39957 1
-5 4 -9 24.3582 12.2185 2
-6 4 -9 0.99046 8.4086 1
6 3 -9 13.2991 6.83815 1
6 3 -9 23.3151 11.7211 2
-6 -3 9 4.0592 9.39559 2
5 3 -9 4.99077 9.95869 2
5 3 -9 -4.1022 5.24588 1
4 3 -9 60.3167 8.42995 1
4 3 -9 66.4899 13.4917 2
3 3 -9 207.251 19.4488 2
3 3 -9 198.366 12.1542 1
2 3 -9 21.1469 5.87729 1
2 3 -9 15.8935 10.1832 2
1 3 -9 -6.2496 4.23986 1
1 3 -9 8.90938 9.56225 2
0 3 -9 122.374 15.2002 2
0 3 -9 110.654 9.72183 1
-1 3 -9 24.25 10.8409 2
-1 3 -9 18.7411 6.07784 1
-2 3 -9 129.294 16.0683 2
-2 3 -9 137.158 11.3512 1
-3 3 -9 120.304 11.6366 1
-3 3 -9 125.702 15.7732 2
-4 3 -9 14.9017 7.01074 1
-4 3 -9 27.4571 11.1463 2
-5 3 -9 397.632 23.0853 2
-5 3 -9 363.888 18.8734 1
-6 3 -9 51.5897 11.0942 1
-7 3 -9 20.8722 9.43495 1
7 -3 9 0.45214 8.78383 1
6 2 -9 72.9996 9.23001 1
6 2 -9 72.0363 14.6439 2
-6 -2 9 74.7134 11.84 3
-6 -2 9 62.9591 13.0779 2
5 2 -9 19.7225 5.86742 1
5 2 -9 21.3804 10.8331 2
-5 -2 9 24.5101 10.3936 2
-5 -2 9 28.2377 8.6305 3
4 2 -9 24.1973 10.8372 2
4 2 -9 24.7496 5.90092 1
-4 -2 9 6.13388 6.74227 3
3 2 -9 31.5824 6.16059 1
3 2 -9 41.547 11.3209 2
2 2 -9 3.65845 4.56735 1
2 2 -9 1.55394 8.98263 2
1 2 -9 39.2014 11.0204 2
1 2 -9 34.0733 5.99321 1
0 2 -9 83.3698 8.30042 1
0 2 -9 85.8266 12.8249 2
-1 2 -9 46.0064 6.83549 1
-1 2 -9 52.3577 11.0147 2
-2 2 -9 230.607 12.4911 1
-2 2 -9 228.011 18.3628 2
-3 2 -9 103.402 14.0403 2
-3 2 -9 86.6895 9.49881 1
-4 2 -9 596.098 25.1543 2
-4 2 -9 598.251 20.7698 1
-5 2 -9 76.7609 10.7785 1
-5 2 -9 79.0721 13.047 2
-6 2 -9 1.64399 7.06549 1
6 -2 9 -1.7494 7.15605 1
-7 2 -9 0.43942 8.1539 1
7 -2 9 1.04342 8.09755 1
-8 2 -9 51.5112 11.6922 1
8 -2 9 60.6313 12.5827 1
6 1 -9 0.75247 9.24467 2
-6 -1 9 14.1362 9.31798 3
-6 -1 9 15.9596 9.64106 2
5 1 -9 50.7571 12.3578 2
5 1 -9 33.0433 6.16161 1
-5 -1 9 45.8834 11.1719 2
-5 -1 9 40.4537 9.8969 3
4 1 -9 179.703 10.1174 1
4 1 -9 227.816 18.6399 2
-4 -1 9 181.111 17.8142 2
-4 -1 9 186.963 14.3004 3
3 1 -9 393.06 22.314 2
3 1 -9 360.733 13.1213 1
-3 -1 9 402.072 22.3595 2
-3 -1 9 373.425 16.802 3
2 1 -9 373.212 21.5503 2
2 1 -9 401.499 12.9993 1
-2 -1 9 357.608 15.3445 3
1 1 -9 433.856 22.3444 2
1 1 -9 419.993 13.2339 1
-1 -1 9 425.029 15.085 3
0 1 -9 191.844 17.3402 2
0 1 -9 175.56 9.42609 1
0 -1 9 174.871 9.94821 3
-1 1 -9 172.814 9.84039 1
-1 1 -9 176.841 16.8611 2
1 -1 9 145.322 8.90683 3
-2 1 -9 5.16311 4.59015 1
-2 1 -9 3.8075 3.80185 3
-2 1 -9 17.4361 8.85176 2
2 -1 9 5.54241 3.96994 3
-3 1 -9 206.902 12.1976 1
-3 1 -9 220.161 10.4042 3
-3 1 -9 226.376 17.2149 2
3 -1 9 236.301 10.3465 3
-4 1 -9 59.9749 7.12435 3
-4 1 -9 70.1328 8.81766 1
-4 1 -9 65.4505 12.1838 2
4 -1 9 75.234 7.40002 3
-5 1 -9 264.69 12.8979 3
-5 1 -9 251.948 17.8646 2
-5 1 -9 247.593 15.1338 1
-6 1 -9 -6.5885 5.11895 3
-6 1 -9 6.55365 7.13664 1
6 -1 9 0.28426 6.52213 1
-7 1 -9 5.62686 7.10121 3
-7 1 -9 1.53501 7.9057 1
7 -1 9 -0.6505 7.14294 1
-8 1 -9 8.09739 9.02962 1
-8 1 -9 -0.8696 7.46056 3
8 -1 9 -0.5823 8.67519 1
6 0 -9 18.349 10.0459 2
-6 0 9 12.033 9.24637 2
-6 0 9 18.9074 10.2349 3
5 0 -9 97.4101 14.8756 2
-5 0 9 48.2244 10.5278 3
-5 0 9 48.1938 12.0231 2
4 0 -9 81.9389 13.5413 2
-4 0 9 73.3256 12.6337 2
-4 0 9 101.662 12.2939 3
3 0 -9 3.38467 7.97635 2
-3 0 9 1.97372 7.82098 2
-3 0 9 2.80675 6.29893 3
2 0 -9 7.53231 3.76506 1
2 0 -9 4.65111 8.13434 2
-2 0 9 24.0416 6.96748 3
-2 0 9 6.8 8.12762 2
1 0 -9 170.956 8.24921 1
1 0 -9 145.155 15.6729 2
-1 0 9 161.424 11.4979 3
-1 0 9 159.836 16.0548 2
0 0 -9 367.576 20.2112 2
0 0 -9 354.057 11.5015 1
0 0 9 384.367 20.5233 2
0 0 9 329.104 13.7551 3
-1 0 -9 28.5801 9.19962 2
-1 0 -9 30.6843 5.00481 1
1 0 9 16.8859 4.90075 3
1 0 9 22.8386 8.49236 2
-2 0 -9 7.39826 4.19139 1
-2 0 -9 2.1084 4.22755 3
-2 0 -9 12.6314 8.2433 2
2 0 9 11.3453 4.45904 3
-3 0 -9 775.684 26.9801 2
-3 0 -9 809.263 20.462 1
-3 0 -9 770.102 19.4735 3
3 0 9 754.464 19.5758 3
-4 0 -9 5.50185 7.53291 2
-4 0 -9 -6.3226 4.31786 1
-4 0 -9 1.96995 4.57687 3
4 0 9 1.98123 3.55576 3
4 0 9 -4.5721 5.30561 2
-5 0 -9 276.941 14.7486 1
-5 0 -9 297.004 17.8418 2
-5 0 -9 305.174 13.7883 3
5 0 9 292.211 16.925 2
5 0 9 302.833 14.6534 1
-6 0 -9 300.336 16.2362 1
-6 0 -9 268.793 14.4293 3
6 0 9 262.416 15.4158 1
-7 0 -9 48.2514 9.70905 1
-7 0 -9 47.2858 8.93472 3
7 0 9 43.0792 9.60371 1
-8 0 -9 2.38718 7.56898 3
-8 0 -9 -4.6376 8.03449 1
8 0 9 7.14338 8.66438 1
-6 1 9 104.972 14.5514 2
-6 1 9 130.582 15.9854 3
5 -1 -9 27.7145 10.8132 2
-5 1 9 4.46912 8.61947 3
-5 1 9 13.6134 8.8948 2
4 -1 -9 -19.872 7.76595 2
-4 1 9 0.13185 7.89362 3
-4 1 9 1.27799 8.49878 2
3 -1 -9 11.7464 9.16731 2
-3 1 9 8.37265 8.58866 2
-3 1 9 10.0072 7.7679 3
2 -1 -9 25.4979 10.0385 2
-2 1 9 44.1171 8.92767 3
-2 1 9 23.5741 9.17252 2
1 -1 -9 288.016 19.2089 2
-1 1 9 277.756 18.5491 2
-1 1 9 312.778 15.4274 3
0 -1 -9 60.9932 11.0861 2
0 1 9 58.6935 8.04323 3
0 1 9 74.3881 11.2678 2
-1 -1 -9 -0.6318 3.03109 1
-1 -1 -9 -2.6545 6.8564 2
1 1 9 8.50483 4.56351 3
1 1 9 -2.3641 6.63846 2
-2 -1 -9 26.64 9.00216 2
-2 -1 -9 15.6958 5.53431 3
-2 -1 -9 23.8756 4.8328 1
2 1 9 22.7754 8.67845 2
2 1 9 28.6853 5.8445 3
-3 -1 -9 156.032 9.69197 1
-3 -1 -9 143.415 10.1715 3
-3 -1 -9 146.292 14.5456 2
3 1 9 143.643 14.3905 2
3 1 9 144.505 9.62794 3
-4 -1 -9 132.292 13.5489 2
-4 -1 -9 114.701 9.62869 1
-4 -1 -9 114.005 10.1902 3
4 1 9 120.748 9.51134 3
4 1 9 112.833 9.61245 1
4 1 9 136.992 13.1011 2
-5 -1 -9 98.0699 10.0393 1
-5 -1 -9 92.991 11.4967 2
-5 -1 -9 108.863 10.4639 3
5 1 9 74.1079 8.69897 1
5 1 9 86.3405 11.1335 2
-6 -1 -9 52.2031 8.69041 1
-6 -1 -9 49.1878 8.28932 3
6 1 9 23.5075 6.91137 1
-7 -1 -9 128.473 12.7882 3
-7 -1 -9 148.705 13.6416 1
7 1 9 121.203 12.7856 1
-8 -1 -9 239.922 16.5933 3
-8 -1 -9 247.8 17.5265 1
8 1 9 230.424 16.8455 1
-6 2 9 53.0831 13.0813 3
-5 2 9 281.262 20.4975 3
-5 2 9 288.916 20.5679 2
-4 2 9 141.66 15.8192 3
-4 2 9 100.186 14.0979 2
3 -2 -9 -2.8823 8.47316 2
-3 2 9 5.39887 8.26949 2
-3 2 9 4.05657 7.41095 3
2 -2 -9 266.058 19.2569 2
-2 2 9 238.848 16.1322 3
-2 2 9 260.724 18.8111 2
1 -2 -9 440.53 22.78 2
-1 2 9 392.896 18.2944 3
-1 2 9 397.188 21.8321 2
0 -2 -9 248.545 17.4025 2
0 2 9 250.205 14.4907 3
0 2 9 242.051 17.8982 2
-1 -2 -9 326.547 19.4172 2
1 2 9 368.367 15.9678 3
1 2 9 356.054 20.0065 2
-2 -2 -9 549.457 18.3703 3
-2 -2 -9 526.313 22.9081 2
2 2 9 532.402 18.5186 3
2 2 9 572.473 23.6359 2
-3 -2 -9 1024.36 30.4322 2
-3 -2 -9 1022.45 25.202 3
-3 -2 -9 978.36 20.6999 1
3 2 9 994.678 30.5031 2
3 2 9 981.695 24.9146 3
3 2 9 988.379 20.5447 1
-4 -2 -9 14.2367 4.86544 1
-4 -2 -9 15.0865 7.55275 2
-4 -2 -9 14.4184 5.94325 3
4 2 9 15.4099 4.72791 1
4 2 9 7.09704 4.95001 3
4 2 9 12.0099 6.77611 2
-5 -2 -9 60.5941 8.02439 1
-5 -2 -9 78.1492 10.9574 2
-5 -2 -9 71.6997 9.40805 3
5 2 9 68.6325 10.4203 2
5 2 9 64.1417 8.6353 3
5 2 9 62.465 7.6078 1
-6 -2 -9 33.069 9.16804 2
-6 -2 -9 27.2049 7.11445 3
-6 -2 -9 26.082 6.8864 1
6 2 9 27.1292 6.39771 1
-7 -2 -9 62.8939 10.2704 3
7 2 9 63.2241 9.81789 1
-8 -2 -9 110.403 12.9085 3
8 2 9 110.009 12.7331 1
-5 3 9 2.42794 9.71889 3
-5 3 9 4.57979 9.80513 2
-4 3 9 84.966 13.9175 3
-4 3 9 88.8414 13.8708 2
-3 3 9 307.902 19.3121 3
-3 3 9 299.828 21.1185 2
-2 3 9 82.5272 12.0645 3
-2 3 9 92.0569 13.5536 2
-1 3 9 6.03768 6.89567 3
-1 3 9 5.06616 7.44106 2
0 3 9 203.184 16.8447 2
0 3 9 200.152 14.1977 3
-1 -3 -9 35.0054 10.0597 2
1 3 9 30.6472 7.97337 3
1 3 9 38.6449 10.3256 2
-2 -3 -9 712.436 22.3783 3
-2 -3 -9 689.691 26.3635 2
2 3 9 696.209 22.5302 3
2 3 9 686.19 26.3299 2
-3 -3 -9 1126.35 27.8591 3
3 3 9 1165.55 33.6299 2
3 3 9 1130.02 28.5867 3
-4 -3 -9 163.246 12.0016 3
4 3 9 136.172 11.8309 3
4 3 9 155.551 14.264 2
-5 -3 -9 155.789 12.7979 3
5 3 9 141.371 12.3493 3
5 3 9 126.948 9.09614 1
5 3 9 161.734 14.3785 2
-6 -3 -9 36.9829 8.82926 3
6 3 9 41.8124 9.39308 2
6 3 9 37.0365 6.88489 1
-7 -3 -9 31.8452 8.69972 3
7 3 9 39.1922 7.69224 1
-8 -3 -9 17.5078 9.10252 3
8 3 9 15.3572 7.67027 1
-4 4 9 14.7661 10.104 3
-4 4 9 11.1121 9.97604 2
-3 4 9 0.07248 9.63495 2
-3 4 9 8.64695 9.35523 3
-2 4 9 127.294 15.659 2
-2 4 9 156.339 15.5575 3
-1 4 9 -4.8376 6.92634 3
-1 4 9 -6.8253 7.84885 2
0 4 9 62.4844 10.3828 3
0 4 9 66.2397 12.2336 2
1 4 9 6.04701 7.22914 3
1 4 9 8.64569 8.62412 2
2 4 9 29.0234 9.64694 2
2 4 9 43.7848 8.8978 3
-3 -4 -9 -3.7546 5.50415 3
3 4 9 5.8132 7.50299 2
3 4 9 4.73813 5.88874 3
-4 -4 -9 164.475 12.8769 3
4 4 9 175.391 13.1613 3
4 4 9 147.133 14.6114 2
-5 -4 -9 42.7519 8.85574 3
5 4 9 36.0797 8.67609 2
5 4 9 31.1193 7.87555 3
-6 -4 -9 6.13633 7.34667 3
6 4 9 6.35305 6.97972 2
6 4 9 -1.5542 6.08648 3
-7 -4 -9 -4.2237 6.81674 3
-8 -4 -9 10.3891 8.59278 3
8 4 9 6.76307 6.69386 1
-3 5 9 359.383 23.9627 3
-3 5 9 350.013 23.464 2
-2 5 9 183.286 18.7614 2
-2 5 9 154.135 16.9355 3
-1 5 9 61.3952 12.6291 2
-1 5 9 61.3362 12.1708 3
0 5 9 5.06827 9.14122 2
0 5 9 6.57864 8.70692 3
1 5 9 3.07681 7.66532 3
1 5 9 -13.403 7.68641 2
2 5 9 388.251 19.2679 3
2 5 9 359.397 21.557 2
-3 -5 -9 327.114 17.617 3
3 5 9 346.605 20.9174 2
3 5 9 357.118 18.5162 3
-4 -5 -9 -3.9088 6.47713 3
4 5 9 15.7902 7.56083 3
4 5 9 -1.3257 7.29208 2
-5 -5 -9 26.2553 8.50109 3
5 5 9 0.56301 6.95455 2
5 5 9 14.3506 7.85564 3
-6 -5 -9 9.22973 7.32761 3
6 5 9 -2.9218 7.1284 2
6 5 9 8.69907 7.29773 3
-7 -5 -9 9.30256 8.46625 3
7 5 9 -1.452 6.60106 3
-8 -5 -9 1.08328 8.15395 3
-2 6 9 256.336 23.7911 2
-2 6 9 245.933 21.3402 3
-1 6 9 34.4176 12.826 2
-1 6 9 32.9756 12.1618 3
0 6 9 43.1463 11.9663 2
0 6 9 50.7754 12.3005 3
1 6 9 64.1438 13.0624 2
1 6 9 54.6296 11.6657 3
2 6 9 3.30009 8.3914 2
2 6 9 2.51126 8.08889 3
3 6 9 -8.351 7.41184 2
3 6 9 16.5771 8.22675 3
-4 -6 -9 61.7695 10.658 3
4 6 9 42.9256 11.3078 2
4 6 9 83.9423 12.2558 3
-5 -6 -9 209.177 16.4441 3
5 6 9 215.701 17.9451 2
5 6 9 222.569 16.2258 3
-6 -6 -9 430.285 20.9805 3
6 6 9 406.157 23.6816 2
6 6 9 422.836 20.9845 3
-7 -6 -9 207.632 17.399 3
7 6 9 194.451 17.1499 3
-1 7 9 8.39 10.8776 3
-1 7 9 -25.11 10.1582 2
0 7 9 103.76 15.4666 3
0 7 9 115.947 16.9672 2
1 7 9 61.4971 14.1709 2
1 7 9 63.7316 13.2874 3
2 7 9 1.41183 8.71241 3
2 7 9 4.68669 9.55487 2
3 7 9 -10.88 8.03884 2
3 7 9 -2.0521 7.84521 3
-4 -7 -9 -1.6801 8.01867 3
4 7 9 -2.4557 7.47795 3
4 7 9 8.75075 9.5168 2
-5 -7 -9 62.4776 11.5387 3
5 7 9 94.0918 14.7316 2
5 7 9 91.944 13.7107 3
-6 -7 -9 385.923 21.904 3
6 7 9 419.444 22.6056 3
3 8 9 12.282 11.2446 2
3 8 9 18.1899 10.5987 3
1 7 -10 191.168 16.7498 1
1 7 -10 145.852 21.099 2
0 7 -10 -4.9061 13.9535 2
0 7 -10 -1.5915 8.03591 1
-1 7 -10 -2.6352 14.6631 2
-1 7 -10 -1.6902 8.0575 1
3 6 -10 14.3958 8.11913 1
3 6 -10 13.6314 13.505 2
2 6 -10 426.032 29.0539 2
2 6 -10 446.658 20.3442 1
1 6 -10 110.617 18.5358 2
1 6 -10 116.151 12.8184 1
0 6 -10 -21.917 11.4416 2
0 6 -10 2.36614 6.97578 1
-1 6 -10 43.0614 10.0852 1
-1 6 -10 32.6093 15.2038 2
-2 6 -10 -10.719 13.6173 2
-2 6 -10 1.28588 7.60589 1
-3 6 -10 44.647 11.1325 1
-3 6 -10 43.0012 16.3755 2
4 5 -10 89.3977 16.8087 2
4 5 -10 63.4988 9.99873 1
3 5 -10 4.30679 11.9148 2
3 5 -10 6.15989 6.69787 1
2 5 -10 39.0898 8.77051 1
2 5 -10 72.2186 16.0037 2
1 5 -10 89.4218 10.8926 1
1 5 -10 78.1681 15.8706 2
0 5 -10 -8.1875 11.0394 2
0 5 -10 -7.5066 5.89729 1
-1 5 -10 21.6066 8.09143 1
-1 5 -10 33.534 13.4933 2
-2 5 -10 30.0067 14.5341 2
-2 5 -10 51.931 10.0557 1
-3 5 -10 16.7991 13.6348 2
-3 5 -10 5.73071 7.8046 1
-4 5 -10 7.11625 8.46976 1
-4 5 -10 -2.6084 12.3518 2
-5 5 -10 0.5766 9.10772 1
-5 5 -10 14.7482 13.947 2
5 4 -10 82.5818 16.0175 2
5 4 -10 58.5849 9.45281 1
4 4 -10 1.68914 6.07589 1
4 4 -10 11.1502 11.8398 2
3 4 -10 18.0925 11.8513 2
3 4 -10 6.07385 5.83886 1
2 4 -10 306.629 15.2635 1
2 4 -10 341.463 24.5333 2
1 4 -10 441.382 26.2338 2
1 4 -10 383.448 16.8478 1
0 4 -10 314.975 15.8574 1
0 4 -10 338.074 24.1533 2
-1 4 -10 371.362 24.4298 2
-1 4 -10 366.28 17.4256 1
-2 4 -10 21.7216 7.94211 1
-2 4 -10 27.4197 13.0754 2
-3 4 -10 3.02836 6.83283 1
-3 4 -10 15.1327 12.0072 2
-4 4 -10 -15.115 6.19474 1
-4 4 -10 14.7009 12.0919 2
-5 4 -10 -0.7569 8.03952 1
-5 4 -10 0.64546 12.1046 2
-6 4 -10 18.7561 9.94666 1
5 3 -10 1.95915 5.73689 1
5 3 -10 17.4663 12.2055 2
4 3 -10 33.8987 7.77868 1
4 3 -10 29.057 12.9645 2
3 3 -10 42.0888 7.36624 1
3 3 -10 77.4711 14.9389 2
2 3 -10 502.926 27.2425 2
2 3 -10 521.956 17.7826 1
1 3 -10 90.5169 15.1016 2
1 3 -10 103.012 9.94149 1
0 3 -10 285.701 13.9826 1
0 3 -10 264.375 21.5913 2
-1 3 -10 127.541 16.9758 2
-1 3 -10 131.966 11.4278 1
-2 3 -10 101.295 15.6008 2
-2 3 -10 123.86 11.4323 1
-3 3 -10 71.314 14.9749 2
-3 3 -10 81.0891 10.719 1
-4 3 -10 74.6927 10.8147 1
-4 3 -10 67.7825 14.6625 2
-5 3 -10 22.5952 11.7569 2
-5 3 -10 39.4859 9.85741 1
-6 3 -10 11.8429 8.78778 1
5 2 -10 219.199 12.7473 1
5 2 -10 206.799 20.8864 2
-5 -2 10 195.392 19.8924 2
4 2 -10 142.134 17.9233 2
4 2 -10 115.932 10.5266 1
-4 -2 10 93.5507 15.4032 2
3 2 -10 247.441 22.0267 2
3 2 -10 218.505 11.9953 1
2 2 -10 95.8902 9.0146 1
2 2 -10 88.4933 14.7 2
1 2 -10 99.3427 9.18925 1
1 2 -10 87.489 14.1117 2
0 2 -10 -10.156 8.41352 2
0 2 -10 2.50369 4.79275 1
-1 2 -10 6.01791 5.22824 1
-1 2 -10 1.64283 9.50254 2
-2 2 -10 0.50457 9.61792 2
-2 2 -10 -3.238 4.91704 1
-3 2 -10 -2.7705 5.23925 1
-3 2 -10 7.85849 10.1042 2
-4 2 -10 341.299 23.0029 2
-4 2 -10 396.739 18.1411 1
-5 2 -10 27.1697 8.29256 1
-5 2 -10 48.1414 12.9525 2
-6 2 -10 55.1275 10.8066 1
6 -2 10 62.0056 11.2055 1
-7 2 -10 61.8622 12.1226 1
7 -2 10 61.5333 12.0027 1
5 1 -10 38.689 12.4069 2
-5 -1 10 39.2836 11.6606 2
-5 -1 10 29.4509 9.73084 3
4 1 -10 106.82 16.3546 2
-4 -1 10 107.716 12.5971 3
-4 -1 10 110.062 16.0268 2
3 1 -10 89.8214 8.29272 1
3 1 -10 98.4785 15.2495 2
-3 -1 10 89.5691 14.6298 2
-3 -1 10 88.2448 11.1931 3
2 1 -10 56.8848 6.96359 1
2 1 -10 85.1709 14.3791 2
-2 -1 10 69.061 9.27282 3
-2 -1 10 44.8545 11.7331 2
1 1 -10 13.4489 4.65411 1
1 1 -10 7.27894 9.38691 2
-1 -1 10 14.5356 5.94874 3
0 1 -10 41.1724 11.3308 2
0 1 -10 23.8501 5.27912 1
0 -1 10 23.4156 5.78807 3
-1 1 -10 14.2765 5.29514 1
-1 1 -10 31.4609 10.9773 2
1 -1 10 17.9102 5.32076 3
-2 1 -10 44.711 11.7057 2
-2 1 -10 50.6589 7.49168 1
2 -1 10 42.5181 6.11127 3
-3 1 -10 380.08 13.8792 3
-3 1 -10 397.373 22.5988 2
-3 1 -10 377.416 15.5618 1
3 -1 10 378.014 13.8338 3
-4 1 -10 968.155 26.162 1
-4 1 -10 999.228 33.3558 2
-4 1 -10 1005.72 23.3594 3
4 -1 10 1020.11 23.5198 3
-5 1 -10 281.675 13.6608 3
-5 1 -10 271.458 16.4896 1
-5 1 -10 301.565 20.2951 2
-6 1 -10 -1.2821 6.97405 1
-6 1 -10 1.07139 5.40165 3
6 -1 10 -1.4414 7.1558 1
-7 1 -10 35.1224 10.3144 1
-7 1 -10 29.7267 8.24616 3
7 -1 10 24.8072 9.71821 1
5 0 -10 30.3904 11.7326 2
-5 0 10 11.7472 8.7705 3
-5 0 10 18.1215 10.2349 2
4 0 -10 78.831 14.536 2
-4 0 10 49.4874 10.7683 3
-4 0 10 48.2307 11.8348 2
3 0 -10 46.8941 12.2779 2
-3 0 10 13.0058 9.42436 2
-3 0 10 36.3495 9.05705 3
2 0 -10 12.0821 9.83725 2
-2 0 10 1.46981 6.07771 3
-2 0 10 12.2745 9.44713 2
1 0 -10 21.4156 9.87058 2
-1 0 10 12.1494 6.14405 3
-1 0 10 8.54651 8.83064 2
0 0 -10 133.726 8.51858 1
0 0 -10 142.732 16.0241 2
0 0 10 128.378 10.8635 3
0 0 10 140.525 16.0969 2
-1 0 -10 4.97956 4.36024 1
-1 0 -10 -0.1997 8.39123 2
1 0 10 0.11503 7.64481 2
1 0 10 2.2875 4.4477 3
-2 0 -10 37.0324 10.7763 2
-2 0 -10 57.8209 7.10718 1
2 0 10 41.9018 6.69224 3
2 0 10 78.5688 12.8381 2
-3 0 -10 701.271 19.913 1
-3 0 -10 674.926 19.3642 3
-3 0 -10 668.403 27.1575 2
3 0 10 667.957 19.4345 3
3 0 10 668.189 26.8082 2
-4 0 -10 1146.64 27.4334 1
-4 0 -10 1146.33 26.1184 3
-4 0 -10 1139.65 34.807 2
4 0 10 1163.52 34.8389 2
4 0 10 1172 26.7054 3
-5 0 -10 182.257 12.2315 3
-5 0 -10 195.829 13.6827 1
-5 0 -10 212.8 17.972 2
5 0 10 186.935 11.5101 3
5 0 10 179.697 12.7776 1
5 0 10 181.584 15.2659 2
-6 0 -10 227.314 15.3351 1
-6 0 -10 239.125 14.0243 3
6 0 10 232.025 15.086 1
-7 0 -10 118.112 13.1215 1
-7 0 -10 113.936 12.0116 3
7 0 10 96.4374 13.0082 1
-8 0 -10 29.0659 10.1337 1
-8 0 -10 26.5441 8.76818 3
8 0 10 38.9825 10.7582 1
-5 1 10 42.688 12.5416 2
-5 1 10 48.3815 11.6572 3
4 -1 -10 163.481 18.8974 2
-4 1 10 127.316 16.2701 2
-4 1 10 113.12 14.2341 3
3 -1 -10 269.514 21.2034 2
-3 1 10 221.643 17.035 3
-3 1 10 273.685 20.6314 2
2 -1 -10 41.4092 11.6254 2
-2 1 10 63.721 12.3661 2
-2 1 10 49.9255 9.4226 3
1 -1 -10 0.22202 8.36198 2
-1 1 10 3.64754 5.86398 3
-1 1 10 8.84504 8.36331 2
0 -1 -10 95.6777 14.1281 2
0 1 10 71.0703 9.35696 3
0 1 10 82.0072 12.53 2
-1 -1 -10 -10.616 7.3618 2
1 1 10 4.8564 7.36013 2
1 1 10 7.30511 4.99458 3
-2 -1 -10 186.233 17.3486 2
-2 -1 -10 161.23 9.46766 1
2 1 10 167.784 16.2547 2
2 1 10 148.913 10.7258 3
-3 -1 -10 7.98615 4.91975 1
-3 -1 -10 0.39114 7.71 2
-3 -1 -10 -0.4228 4.72629 3
3 1 10 2.47528 4.25999 3
3 1 10 -3.9642 6.86589 2
-4 -1 -10 -7.9924 7.18343 2
-4 -1 -10 -3.7902 4.86104 3
-4 -1 -10 -6.5281 4.50966 1
4 1 10 1.58306 4.19787 3
4 1 10 -1.8066 6.0752 2
4 1 10 -5.1191 3.78375 1
-5 -1 -10 139.113 14.359 2
-5 -1 -10 118.266 11.0303 3
-5 -1 -10 125.897 11.2822 1
5 1 10 141.955 14.3451 2
5 1 10 113.469 10.6829 1
5 1 10 103.364 10.1835 3
-6 -1 -10 95.8935 10.7093 3
-6 -1 -10 97.3022 10.8559 1
6 1 10 82.9314 10.2336 1
-7 -1 -10 149.812 13.6238 3
-7 -1 -10 139.848 13.8846 1
7 1 10 148.912 14.0756 1
-8 -1 -10 228.247 17.1514 3
-8 -1 -10 294.388 19.3658 1
8 1 10 254.686 18.3735 1
-5 2 10 57.8582 13.2557 2
-5 2 10 64.7171 13.9529 3
-4 2 10 42.5502 11.0292 3
-4 2 10 54.461 12.4239 2
3 -2 -10 328.212 23.1071 2
-3 2 10 289.44 21.3593 2
-3 2 10 336.487 20.3908 3
2 -2 -10 155.593 17.6521 2
-2 2 10 154.764 17.3096 2
-2 2 10 141.946 14.5107 3
1 -2 -10 429.251 23.8685 2
-1 2 10 409.308 19.7627 3
-1 2 10 394.788 22.5679 2
0 -2 -10 849.413 31.6973 2
0 2 10 765.827 25.0963 3
0 2 10 769.011 30.1693 2
-1 -2 -10 257.543 19.458 2
1 2 10 309.336 15.9197 3
1 2 10 254.848 19.05 2
-2 -2 -10 -4.5771 7.78095 2
2 2 10 8.46867 8.05484 2
2 2 10 0.6939 4.98264 3
-3 -2 -10 518.006 23.8005 2
-3 -2 -10 528.845 18.8537 3
3 2 10 544.364 24.3459 2
3 2 10 485.074 18.683 3
-4 -2 -10 135.5 14.8386 2
-4 -2 -10 122.686 11.3473 3
4 2 10 130.891 11.4563 3
4 2 10 139.103 14.7954 2
-5 -2 -10 9.8807 6.59882 3
-5 -2 -10 4.38226 7.34117 2
-5 -2 -10 6.67993 5.64076 1
5 2 10 11.7063 5.7052 3
5 2 10 14.388 6.86197 2
5 2 10 7.88895 5.01947 1
-6 -2 -10 173.17 14.2408 3
-6 -2 -10 161.857 12.3108 1
6 2 10 162.183 11.8958 1
6 2 10 122.37 11.9938 3
-7 -2 -10 -6.8382 6.74157 3
-7 -2 -10 -5.1793 6.10553 1
7 2 10 1.14724 5.76023 1
-8 -2 -10 0.84775 7.57632 3
8 2 10 12.8378 7.54758 1
-4 3 10 40.9718 12.2757 3
-4 3 10 60.2301 13.5441 2
-3 3 10 4.05591 9.98877 2
-3 3 10 -11.63 8.15482 3
-2 3 10 124.217 14.1209 3
-2 3 10 102.298 14.4008 2
-1 3 10 292.47 20.7274 2
-1 3 10 268.871 18.2089 3
0 3 10 85.5759 13.2979 2
0 3 10 65.9893 11.1183 3
-1 -3 -10 349.567 21.9931 2
1 3 10 323.116 20.8916 2
1 3 10 322.29 17.3467 3
-2 -3 -10 74.9824 13.6089 2
2 3 10 70.2331 10.3593 3
2 3 10 55.2666 11.5409 2
-3 -3 -10 27.5209 7.47727 3
-3 -3 -10 30.6162 10.235 2
3 3 10 16.7211 8.5154 2
3 3 10 22.3083 7.18286 3
-4 -3 -10 18.5512 7.28757 3
4 3 10 0.64798 6.76796 2
4 3 10 7.62044 5.90694 3
-5 -3 -10 19.2977 7.78669 3
5 3 10 27.4912 7.58892 3
5 3 10 27.1046 8.05711 2
-6 -3 -10 -3.5313 7.00991 3
6 3 10 -9.9021 5.10066 3
-7 -3 -10 182.975 15.8958 3
7 3 10 173.909 12.9967 1
-8 -3 -10 143.03 14.8518 3
8 3 10 123.056 12.7286 1
-3 4 10 56.786 13.1692 3
-3 4 10 70.1464 14.3809 2
-2 4 10 5.88696 9.64075 2
-2 4 10 14.6711 9.51936 3
-1 4 10 -1.1162 8.9199 2
-1 4 10 -1.964 7.95658 3
0 4 10 4.6307 8.89776 2
0 4 10 6.18694 8.47773 3
1 4 10 0.03908 7.13173 3
1 4 10 7.41085 8.55671 2
2 4 10 30.3125 8.67697 3
2 4 10 20.8277 9.88957 2
-3 -4 -10 285.621 16.705 3
3 4 10 314.68 17.664 3
3 4 10 275.957 19.4818 2
-4 -4 -10 0.05149 6.45478 3
4 4 10 2.26151 7.59232 2
4 4 10 0.5166 6.52958 3
-5 -4 -10 4.2738 7.1222 3
5 4 10 2.11593 6.67375 2
5 4 10 1.50931 6.03544 3
-6 -4 -10 29.163 8.97429 3
6 4 10 28.6751 8.59087 3
-7 -4 -10 135.083 15.334 3
7 4 10 119.819 13.8639 3
-2 5 10 9.24205 10.0604 3
-2 5 10 39.2237 12.5842 2
-1 5 10 -4.3815 8.41116 3
-1 5 10 -4.6162 9.23704 2
0 5 10 35.4129 11.3258 2
0 5 10 24.0148 10.1856 3
1 5 10 30.0477 10.1296 3
1 5 10 57.3716 12.4898 2
2 5 10 43.8689 10.3881 3
2 5 10 42.3187 12.0903 2
3 5 10 639.101 28.2613 2
3 5 10 682.263 25.7152 3
-4 -5 -10 478.325 21.515 3
4 5 10 520.419 25.4021 2
4 5 10 493.799 22.3017 3
-5 -5 -10 17.2891 8.41865 3
5 5 10 28.7758 9.80456 2
5 5 10 19.2817 8.2892 3
-6 -5 -10 114.338 13.604 3
6 5 10 113.621 13.5061 3
-7 -5 -10 9.09614 7.80696 3
7 5 10 8.83874 7.8719 3
-1 6 10 22.933 12.9503 2
-1 6 10 32.8158 11.9359 3
0 6 10 12.9438 10.0957 2
0 6 10 -7.1693 9.18296 3
1 6 10 47.5554 12.6036 2
1 6 10 33.3497 11.5088 3
2 6 10 177.081 18.9612 2
2 6 10 217.763 19.1291 3
3 6 10 253.292 18.4588 3
3 6 10 259.987 20.5993 2
-4 -6 -10 236.079 17.9862 3
4 6 10 236.63 19.7983 2
4 6 10 236.026 18.1056 3
-5 -6 -10 648.958 26.2137 3
5 6 10 614.639 27.7691 2
5 6 10 632.726 26.8699 3
-6 -6 -10 82.9516 13.1888 3
6 6 10 101.351 14.1666 3
1 7 10 52.9113 13.704 2
1 7 10 66.9389 14.1542 3
2 7 10 19.801 11.072 2
2 7 10 58.2869 13.0866 3
3 7 10 29.0387 11.2216 2
3 7 10 11.5506 9.65535 3
4 7 10 67.9956 13.1958 3
4 7 10 65.3304 13.0407 2
1 6 -11 5.44999 8.13902 1
1 6 -11 4.03655 14.1017 2
0 6 -11 1.61473 8.11148 1
0 6 -11 13.0833 14.8387 2
-1 6 -11 57.272 11.1365 1
-1 6 -11 85.3669 19.3558 2
3 5 -11 84.2265 11.2643 1
3 5 -11 71.7116 16.7036 2
2 5 -11 205.848 15.4846 1
2 5 -11 193.463 22.0693 2
1 5 -11 63.3334 10.6411 1
1 5 -11 67.1942 17.0949 2
0 5 -11 -8.2978 6.82152 1
0 5 -11 30.3113 14.6569 2
-1 5 -11 80.1538 17.4237 2
-1 5 -11 90.2987 12.0783 1
-2 5 -11 76.184 18.1566 2
-2 5 -11 89.467 12.7678 1
-3 5 -11 13.6766 8.53975 1
-3 5 -11 -0.6663 13.398 2
4 4 -11 120.82 12.1106 1
4 4 -11 129.099 20.0839 2
3 4 -11 284.978 16.025 1
3 4 -11 326.15 26.4219 2
2 4 -11 149.559 19.8124 2
2 4 -11 162.771 13.3633 1
1 4 -11 107.266 11.3305 1
1 4 -11 84.8386 17.0328 2
0 4 -11 -6.9794 11.6668 2
0 4 -11 17.238 7.14271 1
-1 4 -11 -23.477 10.9354 2
-1 4 -11 -4.9971 6.28508 1
-2 4 -11 0.58234 12.8843 2
-2 4 -11 -5.9612 6.56326 1
-3 4 -11 239.373 23.3056 2
-3 4 -11 217.61 16.6033 1
-4 4 -11 17.1633 9.65654 1
-4 4 -11 36.3858 14.2813 2
4 3 -11 -2.7403 11.0649 2
4 3 -11 4.05357 6.39138 1
3 3 -11 -3.8356 11.1632 2
3 3 -11 -3.077 5.19861 1
2 3 -11 288.938 23.906 2
2 3 -11 238.326 13.915 1
1 3 -11 301.178 24.6586 2
1 3 -11 269.262 14.2727 1
0 3 -11 -5.9128 5.20122 1
0 3 -11 4.26538 11.4912 2
-1 3 -11 39.4097 8.40404 1
-1 3 -11 49.3005 14.2283 2
-2 3 -11 17.5198 11.9531 2
-2 3 -11 1.92437 6.46141 1
-3 3 -11 2.60374 11.6373 2
-3 3 -11 -0.2733 6.55946 1
-4 3 -11 447.836 21.0938 1
-4 3 -11 486.355 28.0508 2
-5 3 -11 1286.38 42.299 2
-5 3 -11 1311.05 35.9386 1
4 2 -11 -8.1622 10.5079 2
-4 -2 11 12.5666 11.3151 2
3 2 -11 46.9151 14.4283 2
3 2 -11 45.5812 7.60604 1
-3 -2 11 39.2448 12.6754 2
2 2 -11 0.77547 10.6317 2
2 2 -11 17.6176 5.81367 1
1 2 -11 129.336 17.5605 2
1 2 -11 127.133 10.4408 1
0 2 -11 21.8575 6.26946 1
0 2 -11 29.2654 12.6452 2
-1 2 -11 18.5746 12.1622 2
-1 2 -11 23.5353 6.60111 1
-2 2 -11 12.0385 6.54524 1
-2 2 -11 18.6248 12.1766 2
-3 2 -11 12.2914 6.76788 1
-3 2 -11 6.60833 11.5791 2
-4 2 -11 475.203 20.8073 1
-4 2 -11 511.967 28.1749 2
-5 2 -11 28.0737 12.9414 2
-5 2 -11 20.7909 8.69706 1
-6 2 -11 14.3365 8.98062 1
6 -2 11 23.5951 8.97383 1
4 1 -11 18.2653 12.028 2
-4 -1 11 15.8388 10.5914 2
3 1 -11 11.7368 11.7573 2
-3 -1 11 -2.1562 9.41124 2
2 1 -11 139.294 17.876 2
-2 -1 11 106.36 16.2678 2
1 1 -11 16.5711 5.63408 1
1 1 -11 7.06832 11.0907 2
-1 -1 11 -2.2443 9.04161 2
0 1 -11 2.69874 4.75802 1
0 1 -11 10.407 10.4703 2
-1 1 -11 194.558 11.7898 1
-1 1 -11 219.883 21.0034 2
-2 1 -11 18.3777 11.4088 2
-2 1 -11 16.0785 5.97442 1
-3 1 -11 55.7976 13.9624 2
-3 1 -11 66.6948 9.05803 1
-4 1 -11 23.4635 7.65394 1
-4 1 -11 29.0407 12.2148 2
-5 1 -11 35.6259 12.1116 2
-5 1 -11 16.5099 7.86725 1
-6 1 -11 63.5747 11.6745 1
6 -1 11 48.3475 9.89665 1
4 0 -11 -8.9985 10.5334 2
-4 0 11 9.27159 8.8267 3
-4 0 11 -8.9617 8.76347 2
3 0 -11 115.293 17.7925 2
-3 0 11 88.6764 12.4809 3
-3 0 11 77.9855 14.4497 2
2 0 -11 48.4372 12.8203 2
-2 0 11 68.9988 13.5633 2
-2 0 11 54.6029 9.87975 3
1 0 -11 58.7308 14.3742 2
-1 0 11 48.5163 8.47649 3
-1 0 11 37.4581 11.8341 2
0 0 -11 30.4228 11.5211 2
0 0 11 27.413 10.6344 2
0 0 11 15.758 6.36708 3
-1 0 -11 90.4488 15.2064 2
1 0 11 71.746 8.86735 3
1 0 11 91.4195 14.2896 2
-2 0 -11 269.812 13.0542 1
-2 0 -11 269.972 21.1331 2
2 0 11 259.841 13.3626 3
2 0 11 279.247 20.6168 2
-3 0 -11 132.825 17.1251 2
-3 0 -11 151.462 11.5705 1
-3 0 -11 125.885 10.8731 3
3 0 11 148.765 10.9563 3
3 0 11 153.755 17.1876 2
-4 0 -11 56.1628 8.93319 1
-4 0 -11 56.5988 8.43212 3
-4 0 -11 73.5323 13.8195 2
4 0 11 51.4632 11.1991 2
4 0 11 44.1092 7.39086 3
-5 0 -11 143.972 12.0061 3
-5 0 -11 186.12 18.1366 2
-5 0 -11 182.118 14.3327 1
5 0 11 155.319 11.488 3
5 0 11 164.204 13.5681 1
5 0 11 153.089 16.3635 2
-6 0 -11 35.5139 9.20626 1
-6 0 -11 28.4458 8.0389 3
6 0 11 29.4544 7.0102 3
6 0 11 51.7888 9.97841 1
-7 0 -11 64.9421 11.4641 1
-7 0 -11 53.5766 9.78398 3
7 0 11 72.9103 12.2917 1
4 -1 -11 181.202 21.6594 2
-4 1 11 140.959 16.3445 3
-4 1 11 153.618 18.1182 2
3 -1 -11 293.938 23.9367 2
-3 1 11 272.68 18.9429 3
-3 1 11 292.539 22.7437 2
2 -1 -11 167.098 19.5086 2
-2 1 11 156.012 15.2027 3
-2 1 11 153.47 17.7131 2
1 -1 -11 60.381 13.9414 2
-1 1 11 70.4078 10.5886 3
-1 1 11 60.0937 12.8051 2
0 -1 -11 18.0242 10.8968 2
0 1 11 3.17456 6.12753 3
0 1 11 21.0521 9.59543 2
-1 -1 -11 13.6009 10.1424 2
1 1 11 6.52322 8.90386 2
1 1 11 14.1753 6.3693 3
-2 -1 -11 50.1315 12.5087 2
2 1 11 49.9483 11.4323 2
2 1 11 41.396 7.81368 3
-3 -1 -11 40.0211 8.0419 3
-3 -1 -11 50.3313 12.2296 2
3 1 11 32.8218 10.1757 2
3 1 11 37.3062 7.29928 3
-4 -1 -11 63.5922 9.24837 3
-4 -1 -11 81.0597 9.10376 1
-4 -1 -11 81.0113 13.9764 2
4 1 11 62.7407 11.5237 2
4 1 11 65.4399 8.30838 1
4 1 11 61.327 8.54851 3
-5 -1 -11 58.3179 12.3658 2
-5 -1 -11 51.6435 8.55849 1
-5 -1 -11 55.4362 9.20828 3
5 1 11 49.108 8.07546 3
5 1 11 40.9562 10.0189 2
5 1 11 43.8939 7.85279 1
-6 -1 -11 55.6861 9.29001 1
-6 -1 -11 72.1669 10.4077 3
6 1 11 42.8163 8.15932 3
6 1 11 66.4921 9.81026 1
-7 -1 -11 14.761 7.58336 1
-7 -1 -11 3.10164 7.30082 3
7 1 11 -3.0041 7.37499 1
-3 2 11 134.264 17.5932 2
-3 2 11 143.874 16.2267 3
2 -2 -11 81.3127 15.9576 2
-2 2 11 79.2784 12.1194 3
-2 2 11 71.4859 13.4861 2
1 -2 -11 281.616 22.7982 2
-1 2 11 256.232 17.0163 3
-1 2 11 221.858 20.7486 2
0 -2 -11 191.049 20.8651 2
0 2 11 147.197 16.8527 2
0 2 11 195.573 16.4379 3
-1 -2 -11 8.54005 10.6279 2
1 2 11 10.5905 7.091 3
1 2 11 10.6573 9.60275 2
-2 -2 -11 84.9861 14.9104 2
2 2 11 64.5908 9.08775 3
2 2 11 84.9572 13.9333 2
-3 -2 -11 106.743 11.5389 3
-3 -2 -11 96.4372 14.6995 2
3 2 11 104.989 14.2988 2
3 2 11 104.76 11.6018 3
-4 -2 -11 20.7004 10.896 2
-4 -2 -11 -1.2135 5.86816 3
4 2 11 12.5301 6.04228 3
4 2 11 11.6925 8.27113 2
-5 -2 -11 65.5369 12.6908 2
-5 -2 -11 51.9774 9.23888 3
5 2 11 60.5343 9.52685 3
5 2 11 64.7383 11.5861 2
-6 -2 -11 61.2004 10.5293 3
6 2 11 47.6632 8.7364 3
-7 -2 -11 22.6787 9.16363 3
-7 -2 -11 22.1404 8.3566 1
7 2 11 45.2201 8.9944 1
7 2 11 38.4787 8.96842 3
-3 3 11 11.1211 10.2338 2
-3 3 11 13.4968 10.0796 3
-2 3 11 15.5028 10.5355 2
-2 3 11 15.5278 9.6454 3
-1 3 11 117.406 14.4875 3
-1 3 11 88.3617 14.622 2
0 3 11 -11.109 7.90177 2
0 3 11 -2.1942 7.07477 3
-1 -3 -11 10.2759 10.4923 2
1 3 11 -0.7044 8.39652 2
1 3 11 9.33842 8.05834 3
-2 -3 -11 -1.6728 9.49287 2
2 3 11 20.1601 7.70213 3
2 3 11 -3.6198 7.71891 2
-3 -3 -11 149.08 17.9872 2
-3 -3 -11 127.485 13.0004 3
3 3 11 116.095 15.3625 2
3 3 11 132.515 13.5644 3
-4 -3 -11 197.712 15.0032 3
4 3 11 153.064 14.0783 3
4 3 11 201.47 18.3412 2
-5 -3 -11 214.385 15.9671 3
5 3 11 234.652 17.8642 2
5 3 11 216.682 15.0217 3
-6 -3 -11 59.4764 10.8158 3
6 3 11 65.5456 10.2318 3
-7 -3 -11 68.4441 12.2337 3
7 3 11 70.1696 11.5091 3
-2 4 11 128.987 17.7361 2
-2 4 11 128.072 16.3325 3
-1 4 11 188.048 19.7916 2
-1 4 11 147.012 17.0272 3
0 4 11 22.6746 9.86436 3
0 4 11 58.554 13.3151 2
1 4 11 21.2296 10.7655 2
1 4 11 16.6387 8.87596 3
2 4 11 181.834 16.0942 3
2 4 11 204.024 19.4613 2
3 4 11 -11.505 7.48651 2
3 4 11 -6.1754 6.38652 3
-4 -4 -11 -6.1486 6.61433 3
4 4 11 -2.1488 6.52031 3
4 4 11 -4.1929 7.67881 2
-5 -4 -11 149.147 15.312 3
5 4 11 142.849 15.11 3
5 4 11 101.329 14.164 2
-6 -4 -11 76.8702 12.439 3
6 4 11 80.2945 11.9645 3
-1 5 11 177.513 19.8067 2
-1 5 11 181.912 19.0077 3
0 5 11 106.564 15.0902 3
0 5 11 98.7515 16.0633 2
1 5 11 131.552 17.3523 2
1 5 11 153.292 16.4959 3
2 5 11 52.1319 11.4069 3
2 5 11 50.2852 13.4528 2
3 5 11 8.4971 9.29138 2
3 5 11 -9.766 7.04159 3
-4 -5 -11 223.015 18.2544 3
4 5 11 245.109 20.7057 2
4 5 11 183.787 16.824 3
-5 -5 -11 112.85 14.3732 3
5 5 11 124.287 14.9569 3
5 5 11 137.787 16.1691 2
1 6 11 151.118 17.594 3
1 6 11 201.192 21.1898 2
2 6 11 30.5293 11.3969 3
2 6 11 11.2189 11.494 2
3 6 11 65.3316 12.6931 3
3 6 11 61.0857 13.6751 2
4 6 11 80.2179 14.1967 2
4 6 11 73.6136 12.8592 3
2 4 -12 61.7284 10.1142 1
2 4 -12 99.9977 19.5647 2
1 4 -12 35.2396 8.90856 1
1 4 -12 26.9993 14.7997 2
0 4 -12 13.1024 7.7919 1
0 4 -12 15.7575 14.472 2
-1 4 -12 36.6629 9.0543 1
-1 4 -12 35.6921 16.1314 2
-2 4 -12 121.494 13.8007 1
-2 4 -12 115.405 19.5885 2
-3 4 -12 102.165 19.4406 2
-3 4 -12 106.569 13.5361 1
2 3 -12 14.7959 6.58662 1
2 3 -12 36.9503 14.9738 2
1 3 -12 29.5625 14.6139 2
1 3 -12 52.2918 8.91302 1
0 3 -12 66.1633 16.5851 2
0 3 -12 87.6462 10.3523 1
-1 3 -12 74.4123 16.8615 2
-1 3 -12 65.0663 9.81689 1
-2 3 -12 6.02644 6.85265 1
-2 3 -12 13.5395 13.2474 2
-3 3 -12 -2.4948 6.64843 1
-3 3 -12 -2.398 13.5316 2
-4 3 -12 25.6639 14.9994 2
-4 3 -12 42.7384 10.7081 1
3 2 -12 105.406 18.9792 2
-3 -2 12 113.137 17.691 2
2 2 -12 113.227 18.92 2
-2 -2 12 83.8954 15.8564 2
1 2 -12 113.269 18.8137 2
1 2 -12 126.637 10.9392 1
0 2 -12 31.7447 7.83587 1
0 2 -12 20.5978 13.4023 2
-1 2 -12 34.5676 7.72593 1
-1 2 -12 44.3742 14.3562 2
-2 2 -12 66.523 9.67593 1
-2 2 -12 92.107 17.3486 2
-3 2 -12 6.81409 11.942 2
-3 2 -12 5.79194 6.7471 1
-4 2 -12 87.5975 17.6638 2
-4 2 -12 72.5528 11.4948 1
-5 2 -12 408.547 27.4047 2
-5 2 -12 365.891 20.6705 1
3 1 -12 18.6868 13.2728 2
-3 -1 12 29.2564 12.4978 2
2 1 -12 166.191 21.0075 2
-2 -1 12 180.735 20.9975 2
1 1 -12 456.844 28.2875 2
-1 -1 12 461.84 27.7418 2
0 1 -12 379.766 26.7171 2
0 -1 12 409.266 26.046 2
-1 1 -12 235.505 14.9759 1
-1 1 -12 321.985 26.5222 2
1 -1 12 245.53 22.8019 2
-2 1 -12 54.1166 14.9284 2
-2 1 -12 65.1433 8.93993 1
2 -1 12 34.3761 11.8414 2
-3 1 -12 82.0064 16.6892 2
-3 1 -12 107.335 11.3647 1
-4 1 -12 76.2989 15.8142 2
-4 1 -12 72.2677 10.4876 1
4 -1 12 54.1979 12.8682 2
-5 1 -12 484.499 27.6878 2
-5 1 -12 525.923 22.4939 1
5 -1 12 520.386 22.0171 1
5 -1 12 490.214 26.3294 2
3 0 -12 13.9202 13.1323 2
-3 0 12 39.8941 12.6274 2
2 0 -12 13.2582 12.6811 2
-2 0 12 -8.8334 8.58481 2
1 0 -12 26.1666 12.9594 2
-1 0 12 5.50727 9.75007 2
0 0 -12 52.29 14.6782 2
0 0 12 43.4456 12.5558 2
-1 0 -12 27.783 13.2916 2
1 0 12 17.4726 10.8701 2
-2 0 -12 16.3112 12.447 2
2 0 12 11.7283 9.56575 2
-3 0 -12 197.088 21.1504 2
3 0 12 176.38 19.2902 2
-4 0 -12 141.062 12.753 1
-4 0 -12 184.692 20.0197 2
4 0 12 168.277 18.6903 2
-5 0 -12 55.0985 13.8805 2
-5 0 -12 96.8213 11.7589 1
5 0 12 76.1005 10.2714 1
5 0 12 103.226 15.0094 2
-6 0 -12 30.0323 8.83834 1
6 0 12 0.39248 6.74074 1
-3 1 12 -6.2083 8.53072 3
-3 1 12 9.60236 10.5013 2
2 -1 -12 4.76757 11.6319 2
-2 1 12 -2.0495 9.91313 2
-2 1 12 11.7665 8.77436 3
1 -1 -12 80.8345 16.4423 2
-1 1 12 46.4361 13.1369 2
-1 1 12 47.9632 10.1525 3
0 -1 -12 223.796 22.9 2
0 1 12 195.656 20.3731 2
0 1 12 200.82 15.521 3
-1 -1 -12 189.288 21.1756 2
1 1 12 198.12 20.1648 2
1 1 12 212.63 14.9246 3
-2 -1 -12 -5.3339 10.8814 2
2 1 12 2.64672 5.89536 3
2 1 12 -11.874 7.00468 2
-3 -1 -12 4.47398 11.3408 2
3 1 12 5.0043 8.72327 2
3 1 12 0.51855 5.02688 3
-4 -1 -12 -4.8476 5.54722 3
-4 -1 -12 13.6133 10.3684 2
4 1 12 -0.5452 5.26776 3
4 1 12 -2.39 7.3892 2
-5 -1 -12 -3.481 9.48394 2
-5 -1 -12 -11.117 5.83582 3
5 1 12 0.68341 5.20014 3
5 1 12 1.59113 7.52148 2
-6 -1 -12 24.696 8.60091 3
6 1 12 7.71237 6.01663 3
2 -2 -12 0.25706 12.7148 2
-2 2 12 7.60473 9.86298 2
-2 2 12 2.81774 8.43866 3
1 -2 -12 146.241 20.991 2
-1 2 12 95.35 16.0019 2
-1 2 12 117.441 14.1195 3
0 -2 -12 172.605 21.3741 2
0 2 12 113.817 13.7365 3
0 2 12 135.219 17.9126 2
-1 -2 -12 55.4534 15.2758 2
1 2 12 47.3619 9.54273 3
1 2 12 56.6727 13.0719 2
-2 -2 -12 278.028 23.3596 2
2 2 12 267.278 16.6703 3
2 2 12 270.01 21.6393 2
-3 -2 -12 482.688 27.4236 2
3 2 12 546.124 27.5529 2
3 2 12 481.665 20.7074 3
-4 -2 -12 135.544 17.4869 2
-4 -2 -12 119.543 12.9286 3
4 2 12 129.522 16.7008 2
4 2 12 113.906 12.469 3
-5 -2 -12 -3.3167 9.68629 2
-5 -2 -12 16.9989 8.64989 3
5 2 12 17.2459 9.07688 2
5 2 12 11.8284 6.4408 3
-6 -2 -12 89.8418 12.3713 3
6 2 12 88.9223 11.2967 3
-1 3 12 0.71943 7.99684 3
-1 3 12 0.62409 9.90471 2
0 3 12 24.6086 9.35525 3
0 3 12 10.0978 9.8625 2
1 3 12 72.6235 14.4311 2
1 3 12 64.2802 11.6043 3
2 3 12 145.839 18.379 2
2 3 12 156.406 15.9127 3
3 3 12 111.348 15.7061 2
3 3 12 116.272 13.6734 3
-4 -3 -12 46.8181 10.4927 3
4 3 12 42.5209 9.52964 3
4 3 12 61.605 12.3013 2
-5 -3 -12 91.8468 12.7269 3
5 3 12 66.9527 11.0994 3
5 3 12 107.154 14.7294 2
0 4 12 109.497 15.1535 3
0 4 12 98.4526 16.3397 2
1 4 12 187.906 17.8735 3
1 4 12 234.602 22.5515 2
2 4 12 90.4862 13.1898 3
2 4 12 108.535 16.2867 2
3 4 12 27.8524 10.7652 2
3 4 12 17.2136 9.06654 3
-4 -4 -12 166.271 16.7278 3
4 4 12 133.192 17.3226 2
4 4 12 128.472 15.4413 3
0 2 -13 15.953 14.7095 2
-1 2 -13 10.1068 7.56426 1
-1 2 -13 7.37264 14.5815 2
-2 2 -13 62.6951 10.013 1
-2 2 -13 74.7281 18.1369 2
1 1 -13 238.057 25.4665 2
-1 -1 13 173.272 21.349 2
0 1 -13 248.744 25.7061 2
0 -1 13 194.957 22.5061 2
-1 1 -13 22.7424 14.6002 2
1 -1 13 19.4344 11.8573 2
-2 1 -13 15.5192 13.5791 2
2 -1 13 23.4283 11.6631 2
-3 1 -13 38.2979 14.9314 2
3 -1 13 15.8243 11.6071 2
1 0 -13 27.5174 14.8593 2
-1 0 13 30.8367 12.2803 2
0 0 -13 62.0714 16.1089 2
0 0 13 93.9134 16.4718 2
-1 0 -13 17.8208 14.4243 2
1 0 13 5.67486 10.0036 2
-2 0 -13 20.3454 13.6552 2
2 0 13 8.52702 10.5297 2
-3 0 -13 -2.0975 12.8013 2
3 0 13 -13.443 8.24724 2
-4 0 -13 10.9034 12.7469 2
4 0 13 9.19832 9.46206 2
0 -1 -13 371.558 27.362 2
0 1 13 309.277 19.2944 3
0 1 13 308.926 24.4987 2
-1 -1 -13 329.337 26.1576 2
1 1 13 298.056 23.7179 2
1 1 13 320.15 18.7143 3
-2 -1 -13 59.4011 15.8168 2
2 1 13 61.6894 13.5531 2
2 1 13 42.7486 9.50658 3
-3 -1 -13 0.17966 12.0487 2
3 1 13 15.7517 10.6464 2
3 1 13 1.39611 5.97646 3
-4 -1 -13 59.289 15.4141 2
-4 -1 -13 47.9206 9.80032 3
4 1 13 34.2415 11.5893 2
0 2 13 190.868 17.2448 3
0 2 13 189.741 21.3649 2
-1 -2 -13 304.535 27.7707 2
1 2 13 269.615 18.8941 3
1 2 13 256.617 23.9917 2
-2 -2 -13 378.317 27.5757 2
2 2 13 388.754 21.0722 3
2 2 13 389.426 26.3896 2
-3 -2 -13 170.81 21.4419 2
3 2 13 97.9082 12.4552 3
3 2 13 145.087 18.4929 2
