#------------------------------------------------------------------------------
#$Date: 2019-11-26 17:12:23 +0200 (Tue, 26 Nov 2019) $
#$Revision: 243697 $
#$URL: file:///home/coder/svn-repositories/cod/cif/4/08/96/4089607.cif $
#------------------------------------------------------------------------------
#
# This file is available in the Crystallography Open Database (COD),
# http://www.crystallography.net/
#
# All data on this site have been placed in the public domain by the
# contributors.
#
data_4089607
loop_
_publ_author_name
'Landman, Maril\'e'
'Pretorius, Ren\'e'
'Buitendach, Blenerhassitt E.'
'van Rooyen, Petrus H.'
'Conradie, Jeanet'
_publ_section_title
;
 Synthesis, Structure, and Electrochemistry of Fischer Alkoxy- and
 Aminocarbene Complexes of Tungsten: The Use of DFT To Predict and
 Understand Oxidation and Reduction Potentials
;
_journal_issue                   19
_journal_name_full               Organometallics
_journal_page_first              5491
_journal_paper_doi               10.1021/om400778z
_journal_volume                  32
_journal_year                    2013
_chemical_formula_moiety         'C16 H15 N O5 S W'
_chemical_formula_sum            'C16 H15 N O5 S W'
_chemical_formula_weight         517.20
_space_group_crystal_system      monoclinic
_space_group_IT_number           11
_space_group_name_Hall           '-P 2yb'
_space_group_name_H-M_alt        'P 1 21/m 1'
_atom_sites_solution_hydrogens   geom
_atom_sites_solution_primary     direct
_atom_sites_solution_secondary   difmap
_audit_creation_method           SHELXL-2013
_cell_angle_alpha                90
_cell_angle_beta                 112.472(2)
_cell_angle_gamma                90
_cell_formula_units_Z            2
_cell_length_a                   9.5736(8)
_cell_length_b                   9.6865(8)
_cell_length_c                   9.9936(8)
_cell_measurement_reflns_used    1862
_cell_measurement_temperature    100(2)
_cell_measurement_theta_max      28.36
_cell_measurement_theta_min      2.51
_cell_volume                     856.38(12)
_computing_cell_refinement       'SAINT (Bruker, 2008)'
_computing_data_collection       'Apex2 (Bruker, 2011)'
_computing_data_reduction        'SAINT and XPREP (Bruker, 2008)'
_computing_molecular_graphics
' ORTEP-3 for Windows (Farrugia, 1997), POV-Ray (Cason, 2004)'
_computing_structure_refinement  'SHELXL-2013 (Sheldrick, 2013)'
_computing_structure_solution    'SHELXL-2013 (Sheldrick, 2013)'
_diffrn_ambient_temperature      100(2)
_diffrn_detector_area_resol_mean 8.4
_diffrn_measured_fraction_theta_full 0.998
_diffrn_measured_fraction_theta_max 0.996
_diffrn_measurement_device_type  'Bruker APEX DUO 4K-CCD'
_diffrn_measurement_method       '\f scans'
_diffrn_radiation_monochromator  graphite
_diffrn_radiation_type           MoK\a
_diffrn_radiation_wavelength     0.71073
_diffrn_reflns_av_R_equivalents  0.0326
_diffrn_reflns_av_unetI/netI     0.0467
_diffrn_reflns_Laue_measured_fraction_full 0.998
_diffrn_reflns_Laue_measured_fraction_max 0.996
_diffrn_reflns_limit_h_max       12
_diffrn_reflns_limit_h_min       -12
_diffrn_reflns_limit_k_max       8
_diffrn_reflns_limit_k_min       -12
_diffrn_reflns_limit_l_max       13
_diffrn_reflns_limit_l_min       -10
_diffrn_reflns_number            4935
_diffrn_reflns_point_group_measured_fraction_full 0.998
_diffrn_reflns_point_group_measured_fraction_max 0.996
_diffrn_reflns_theta_full        25.240
_diffrn_reflns_theta_max         28.404
_diffrn_reflns_theta_min         2.205
_diffrn_source                   'fine-focus sealed tube'
_exptl_absorpt_coefficient_mu    6.891
_exptl_absorpt_correction_T_max  0.475
_exptl_absorpt_correction_T_min  0.360
_exptl_absorpt_correction_type   multi-scan
_exptl_absorpt_process_details   'SADABS (Bruker, 2008)'
_exptl_crystal_colour            yellow
_exptl_crystal_density_diffrn    2.006
_exptl_crystal_density_meas      ?
_exptl_crystal_description       bloc
_exptl_crystal_F_000             496
_exptl_crystal_size_max          0.190
_exptl_crystal_size_mid          0.190
_exptl_crystal_size_min          0.130
_refine_diff_density_max         0.709
_refine_diff_density_min         -1.181
_refine_diff_density_rms         0.160
_refine_ls_extinction_method     none
_refine_ls_goodness_of_fit_ref   0.996
_refine_ls_hydrogen_treatment    constr
_refine_ls_matrix_type           full
_refine_ls_number_parameters     134
_refine_ls_number_reflns         2269
_refine_ls_number_restraints     8
_refine_ls_restrained_S_all      1.032
_refine_ls_R_factor_all          0.0299
_refine_ls_R_factor_gt           0.0257
_refine_ls_shift/su_max          0.001
_refine_ls_shift/su_mean         0.000
_refine_ls_structure_factor_coef Fsqd
_refine_ls_weighting_details
; 
 w=1/[\s^2^(Fo^2^)+(0.0165P)^2^] 
 where P=(Fo^2^+2Fc^2^)/3 
;
_refine_ls_weighting_scheme      calc
_refine_ls_wR_factor_gt          0.0467
_refine_ls_wR_factor_ref         0.0480
_reflns_Friedel_coverage         0.000
_reflns_number_gt                2057
_reflns_number_total             2269
_reflns_threshold_expression     'I > 2\s(I)'
_iucr_refine_instructions_details
; 
TITL mo_11fm_rp2_0m in P2(1)/m 2013-07-17 16:27 
CELL  0.71073   9.5736   9.6865   9.9936   90.000  112.472   90.000 
ZERR     2.00   0.0008   0.0008   0.0008    0.000    0.002    0.000 
LATT   1 
SYMM  - X, 1/2 + Y, - Z 
SFAC  C    H    N    O    S    W 
UNIT  32   30   2    10   2    2 
MERG   2 
HTAB  N1 S1 
DFIX 1.75 .02 C7 S1  S1 C10 C7 S1A S1A C9 
DFIX 1.39 .02 C7 C8  C7 C8A 
DFIX 1.41 .02 C8 C9  C8A C10 
FMAP   2 
PLAN   5 
SIZE     0.13   0.18   0.19 
ACTA    50.48 
BOND   $H 
CONF 
L.S.  10 
TEMP  -173.19 
SIZE 0.19 0.19 0.13 
WGHT    0.016500 
FVAR       0.13286   0.56414 
W1    6    0.548672   10.250000    0.856428    10.50000    0.01210    0.01123 = 
         0.01100    0.00000    0.00375    0.00000 
C1    1    0.499872   10.250000    1.034633    10.50000    0.01463    0.01400 = 
         0.02418    0.00000    0.00316    0.00000 
O1    4    0.476932   10.250000    1.139822    10.50000    0.03461    0.02827 = 
         0.02740    0.00000    0.01991    0.00000 
C2    1    0.392948    0.403218    0.769100    11.00000    0.01928    0.01895 = 
         0.01417   -0.00531    0.00439   -0.00281 
O2    4    0.307126    0.489335    0.723363    11.00000    0.02404    0.02180 = 
         0.02589   -0.00227    0.00470    0.00806 
C4    1    0.701164    0.094986    0.946933    11.00000    0.01674    0.01472 = 
         0.01666   -0.00250    0.00934   -0.00637 
O4    4    0.782441    0.006421    0.999176    11.00000    0.02612    0.01809 = 
         0.02495    0.00598    0.00456    0.00516 
C6    1    0.615038   10.250000    0.661403    10.50000    0.01877    0.00198 = 
         0.01144    0.00000    0.00108    0.00000 
N1    3    0.519520   10.250000    0.523698    10.50000    0.01830    0.01394 = 
         0.01268    0.00000    0.00636    0.00000 
AFIX  43 
H1    2    0.561291    0.250000    0.459076    10.50000   -1.20000 
AFIX   0 
C7    1    0.773979   10.250000    0.675822    10.50000    0.01578    0.00988 = 
         0.01629    0.00000    0.00642    0.00000 
PART    1 
S1    5    0.832182   10.250000    0.534943    20.50000    0.01556    0.03632 = 
         0.01131    0.00000    0.00248    0.00000 
C8    1    0.906408   10.250000    0.802993    20.50000    0.00752 
AFIX  43 
H8    2    0.904386    0.250000    0.897297    20.50000   -1.20000 
AFIX   0 
PART    2 
S1A   5    0.914242   10.250000    0.837907   -20.50000    0.01723    0.02354 = 
         0.00700    0.00000    0.00602    0.00000 
C8A   1    0.840410   10.250000    0.569924   -20.50000    0.03995 
AFIX  43 
H8A   2    0.783207    0.250000    0.468527   -20.50000   -1.20000 
AFIX   0 
PART    0 
C9    1    1.045972   10.250000    0.777766    10.50000    0.01576    0.01742 = 
         0.03020    0.00000    0.00183    0.00000 
AFIX  43 
H9    2    1.145723    0.250000    0.849493    10.50000   -1.20000 
AFIX   0 
C10   1    1.007364   10.250000    0.634468    10.50000    0.03553    0.03750 = 
         0.03806    0.00000    0.02928    0.00000 
AFIX  43 
H10   2    1.081981    0.250000    0.593427    10.50000   -1.20000 
AFIX   0 
C11   1    0.355788   10.250000    0.465982    10.50000    0.01784    0.01563 = 
         0.01054    0.00000    0.00276    0.00000 
AFIX  13 
H11   2    0.320683    0.250000    0.548244    10.50000   -1.20000 
AFIX   0 
C12   1    0.296137    0.379874    0.374454    11.00000    0.01700    0.01466 = 
         0.02601    0.00225    0.00481   -0.00125 
AFIX  23 
H12A  2    0.333399    0.462930    0.435477    11.00000   -1.20000 
H12B  2    0.334237    0.383022    0.295310    11.00000   -1.20000 
AFIX   0 
C13   1    0.123611    0.379936    0.310440    11.00000    0.02262    0.01479 = 
         0.02365    0.00627    0.00062    0.00385 
AFIX  23 
H13A  2    0.085980    0.386432    0.389743    11.00000   -1.20000 
H13B  2    0.086898    0.461845    0.247457    11.00000   -1.20000 
AFIX   0 
C14   1    0.061144   10.250000    0.222705    10.50000    0.02481    0.02321 = 
         0.01979    0.00000   -0.00558    0.00000 
AFIX  23 
H14A  2    0.087297    0.250000    0.135961    10.50000   -1.20000 
H14B  2   -0.050431    0.250000    0.189472    10.50000   -1.20000 
AFIX   0 
HKLF    4  1.0  1.00  0.00  0.00  0.00  1.00  0.00  0.00  0.00  1.00 
  
REM  mo_11fm_rp2_0m in P2(1)/m 2013-07-17 16:27 
REM R1 =  0.0257 for    2057 Fo > 4sig(Fo)  and  0.0299 for all    2269 data 
REM    134 parameters refined using      8 restraints 
  
END 
  
WGHT      0.0165      0.0000 
  
REM Highest difference peak  0.709,  deepest hole -1.181,  1-sigma level  0.160 
Q1    1   0.5418  0.2500  0.9513  10.50000  0.05    0.71 
Q2    1   0.5785  0.1980  0.9186  11.00000  0.05    0.67 
Q3    1   0.4687  0.2500  0.8599  10.50000  0.05    0.66 
Q4    1   0.8383  0.2139  0.7568  11.00000  0.05    0.62 
Q5    1   0.5801  0.2500  1.0602  10.50000  0.05    0.60 
;
_cod_data_source_file            om400778z_si_004.cif
_cod_data_source_block           compound_3
_cod_depositor_comments
;
The following automatic conversions were performed:

data item '_exptl_crystal_density_meas' value 'not measured' was
changed to '?' -- the value is perceived as not measured.

Automatic conversion script
Id: cif_fix_values 6909 2019-04-08 15:41:33Z antanas 
;
_cod_original_sg_symbol_H-M      'P 21/m'
_cod_database_code               4089607
_shelx_space_group_comment
; 
The symmetry employed for this shelxl refinement is uniquely defined 
by the following loop, which should always be used as a source of 
symmetry information in preference to the above space-group names. 
They are only intended as comments. 
;
_shelx_estimated_absorpt_t_min   0.354
_shelx_estimated_absorpt_t_max   0.468
_shelxl_version_number           2013-2
_shelx_res_checksum              93618
_iucr_refine_reflections_details
; 
   1   0   0  345.43    7.28 
  -1   0   0  342.26    7.25 
  -2   0   0  126.80    3.26 
   2   0   0  126.35    3.32 
   3   0   0   72.07    2.49 
  -3   0   0   70.54    2.39 
  -4   0   0   33.01    1.75 
   4   0   0   39.41    1.93 
  -5   0   0   24.02    1.65 
   5   0   0   21.47    1.91 
   6   0   0    3.05    0.96 
  -6   0   0    4.42    0.97 
  -7   0   0   27.64    2.05 
   7   0   0   24.99    2.49 
   8   0   0   74.52    3.97 
  -8   0   0   72.05    3.63 
   9   0   0   49.74    3.51 
  10   0   0   32.93    3.57 
  11   0   0   40.29    4.13 
   0  -1   0    0.29    0.17 
   0   1   0    0.76    0.18 
  -1  -1   0   36.48    1.26 
   1  -1   0   35.49    1.05 
   1  -1   0   36.29    1.05 
  -1   1   0   34.89    1.00 
   1   1   0   36.79    1.23 
  -2  -1   0   56.22    1.96 
   2  -1   0   52.40    1.73 
   2   1   0   52.30    1.87 
  -2   1   0   57.27    1.67 
   3  -1   0  108.46    3.25 
  -3  -1   0  106.98    3.38 
   3   1   0  111.10    3.42 
  -3   1   0  112.64    3.15 
  -4  -1   0  309.48    7.87 
   4  -1   0  294.87    7.71 
  -4   1   0  304.81    7.48 
   4   1   0  320.08    7.94 
   5  -1   0  181.48    5.50 
  -5  -1   0  181.47    5.53 
  -5   1   0  176.44    5.16 
   5   1   0  174.18    5.54 
   6  -1   0  149.39    5.13 
  -6  -1   0  139.44    4.96 
  -6   1   0  137.07    4.66 
   6   1   0  146.59    5.20 
  -7  -1   0   83.13    3.89 
   7  -1   0   89.36    4.08 
   7   1   0  100.06    4.36 
  -7   1   0   84.12    3.66 
   8  -1   0   45.32    3.07 
  -8  -1   0   50.13    3.08 
   8   1   0   41.94    3.03 
  -8   1   0   45.29    2.80 
  -9  -1   0    6.58    1.63 
   9  -1   0    5.25    1.60 
   9   1   0    6.70    1.65 
  10  -1   0    2.00    1.30 
  10   1   0    1.69    1.29 
  11  -1   0    4.21    1.71 
  11   1   0    4.85    1.80 
   0  -2   0  725.33   15.01 
   0   2   0  726.36   14.89 
   1  -2   0  214.88    4.71 
   1  -2   0  215.91    4.76 
  -1  -2   0  217.51    5.14 
   1   2   0  211.75    4.99 
   2  -2   0  660.64   13.69 
   2  -2   0  651.28   13.63 
  -2  -2   0  634.75   14.21 
   2   2   0  640.40   14.06 
  -2   2   0  656.68   13.51 
   3  -2   0  193.13    5.02 
  -3  -2   0  199.17    5.52 
  -3   2   0  202.01    4.84 
   3   2   0  198.71    5.38 
   4  -2   0   21.76    1.38 
  -4  -2   0   20.44    1.55 
  -4   2   0   21.39    1.22 
   4   2   0   21.04    1.52 
   5  -2   0    1.94    0.70 
  -5  -2   0    0.98    0.66 
  -5   2   0    1.71    0.58 
   5   2   0    1.45    0.69 
   6  -2   0    4.04    1.00 
  -6  -2   0    3.48    1.04 
  -6   2   0    5.56    0.99 
   6   2   0    3.72    1.04 
   7  -2   0   14.00    1.88 
  -7  -2   0   13.83    1.90 
   7   2   0   12.76    1.92 
  -7   2   0   16.28    1.74 
   8  -2   0   41.72    2.96 
  -8  -2   0   43.20    3.11 
   8   2   0   41.55    3.05 
   9  -2   0   38.68    3.59 
  -9  -2   0   44.86    3.29 
   9   2   0   40.32    3.72 
  10  -2   0   81.53    4.79 
  10   2   0   76.70    4.70 
  11  -2   0   59.91    4.32 
  11   2   0   54.85    4.96 
   0  -3   0   -0.22    0.28 
   1  -3   0  118.05    3.03 
  -1  -3   0  122.34    3.40 
   1  -3   0  116.48    2.91 
   1   3   0  113.37    3.14 
  -2  -3   0   56.09    2.33 
   2  -3   0   57.77    1.83 
   2  -3   0   58.68    1.83 
   2   3   0   53.53    2.10 
   3  -3   0  209.03    5.24 
  -3  -3   0  205.24    5.89 
   3   3   0  201.80    5.62 
   4  -3   0  239.06    6.33 
  -4  -3   0  252.44    7.07 
  -4   3   0  239.53    5.86 
   4   3   0  235.02    6.71 
   5  -3   0  123.97    4.26 
  -5  -3   0  131.08    4.82 
   5   3   0  128.85    4.62 
  -5   3   0  122.18    3.78 
   6  -3   0  142.46    5.06 
  -6  -3   0  138.82    5.38 
  -6   3   0  151.15    4.57 
   6   3   0  145.89    5.37 
   7  -3   0   48.87    2.92 
  -7  -3   0   48.18    3.16 
   7   3   0   47.50    3.15 
   8  -3   0   37.45    2.82 
  -8  -3   0   27.03    2.97 
   8   3   0   38.91    3.58 
  -9  -3   0    4.62    1.57 
   9  -3   0    3.67    1.33 
   9   3   0    6.67    1.79 
  10  -3   0    3.94    1.54 
 -10  -3   0    3.49    1.50 
  10   3   0    4.17    1.61 
  11  -3   0   -0.05    1.16 
  11   3   0    2.14    1.53 
   0  -4   0  793.86   17.01 
   1  -4   0  183.48    4.69 
  -1  -4   0  188.37    5.04 
   1   4   0  190.94    4.73 
  -2  -4   0  198.51    5.64 
   2  -4   0  199.98    4.92 
   2  -4   0  203.52    4.89 
   2   4   0  192.19    5.24 
  -3  -4   0  132.39    4.48 
   3  -4   0  126.14    3.65 
   3   4   0  123.94    4.06 
  -4  -4   0   55.23    2.92 
   4  -4   0   60.46    2.44 
   4   4   0   63.34    2.83 
  -5  -4   0    0.15    0.62 
   5  -4   0    0.23    0.50 
   5   4   0   -0.36    0.44 
   6  -4   0    2.78    0.89 
  -6  -4   0    4.10    1.28 
   6   4   0    2.17    0.90 
  -7  -4   0    2.58    1.21 
   7  -4   0    2.08    0.91 
   7   4   0    0.58    0.87 
  -8  -4   0   62.92    4.06 
   8  -4   0   50.16    3.32 
   8   4   0   64.70    3.91 
  -9  -4   0   54.45    4.06 
   9  -4   0   54.05    3.61 
   9   4   0   56.02    3.91 
  10  -4   0   55.50    3.98 
 -10  -4   0   62.07    4.38 
  10   4   0   55.50    4.13 
  11  -4   0   40.15    4.19 
  -1  -5   0   55.72    2.37 
   1  -5   0   55.25    2.15 
   1   5   0   56.22    2.01 
   2  -5   0   29.19    1.41 
   2  -5   0   33.12    1.53 
  -2  -5   0   27.83    1.85 
   2   5   0   26.96    1.55 
   3  -5   0  100.51    3.21 
  -3  -5   0  100.62    4.02 
   3   5   0  106.73    3.66 
  -4  -5   0  191.79    6.38 
   4  -5   0  189.95    5.38 
   4   5   0  188.48    5.83 
  -5  -5   0  121.86    5.07 
   5  -5   0  119.89    4.18 
   5   5   0  115.35    4.50 
  -6  -5   0  120.76    5.38 
   6  -5   0  123.85    4.64 
   6   5   0  135.01    5.20 
   7  -5   0   55.00    3.15 
  -7  -5   0   56.79    3.77 
   7   5   0   47.94    3.28 
   8  -5   0   29.13    2.95 
  -8  -5   0   31.52    3.47 
   8   5   0   37.70    3.53 
   9  -5   0    3.72    1.41 
  -9  -5   0    5.52    1.78 
   9   5   0    1.34    1.21 
 -10  -5   0   -0.21    1.33 
  10  -5   0    1.83    1.38 
   0  -6   0  436.61   10.33 
  -1  -6   0  165.27    5.11 
   1  -6   0  168.81    4.86 
   2  -6   0  224.56    5.91 
  -2  -6   0  217.20    6.59 
   2   6   0  224.63    5.91 
  -3  -6   0   65.02    3.34 
   3  -6   0   69.92    2.62 
   3   6   0   66.70    2.82 
  -4  -6   0    8.33    1.55 
   4  -6   0    7.65    1.09 
   4   6   0    8.66    1.32 
   5  -6   0    1.89    0.75 
  -5  -6   0    1.97    0.99 
   5   6   0    1.49    0.88 
   6  -6   0    4.60    1.11 
  -6  -6   0    5.08    1.47 
   6   6   0    3.47    1.12 
  -7  -6   0   15.36    2.44 
   7  -6   0   15.93    2.04 
   8  -6   0   36.14    3.31 
  -8  -6   0   34.66    3.80 
  -9  -6   0   27.44    3.55 
   9  -6   0   17.95    2.52 
  10  -6   0   32.46    3.58 
 -10  -6   0   39.99    4.43 
   0  -7   0    0.29    0.53 
  -1  -7   0   20.03    1.95 
  -2  -7   0   39.44    2.46 
  -3  -7   0   68.09    3.60 
  -4  -7   0  100.25    4.69 
   4  -7   0  107.65    3.78 
   5  -7   0   98.88    3.84 
  -5  -7   0   95.26    4.85 
   6  -7   0   97.66    4.15 
  -6  -7   0   97.20    5.17 
   7  -7   0   58.74    3.37 
  -7  -7   0   56.32    4.09 
  -8  -7   0   24.41    3.37 
   8  -7   0   27.16    2.86 
  -9  -7   0    4.04    1.85 
   9  -7   0    4.47    1.50 
   0  -8   0  437.49   11.09 
  -1  -8   0   98.25    4.13 
  -2  -8   0   73.08    3.66 
  -3  -8   0   47.60    3.11 
  -4  -8   0   14.08    2.19 
  -5  -8   0    4.00    1.34 
   5  -8   0    3.26    1.00 
   6  -8   0    1.56    0.93 
  -6  -8   0    0.93    1.14 
  -7  -8   0    7.87    2.08 
   7  -8   0    8.36    1.62 
   8  -8   0   34.31    3.25 
  -8  -8   0   33.41    4.13 
   9  -8   0   32.74    3.44 
  -9  -8   0   33.18    4.14 
   0  -9   0   -0.24    0.65 
  -1  -9   0   12.04    1.79 
   1  -9   0    7.79    1.33 
  -2  -9   0   16.27    2.15 
  -3  -9   0   67.39    3.99 
  -4  -9   0  116.41    5.52 
  -5  -9   0   60.13    4.18 
  -6  -9   0   38.02    4.02 
   6  -9   0   36.81    2.59 
   7  -9   0   30.18    2.96 
  -7  -9   0   22.66    3.33 
   8  -9   0   28.36    3.05 
  -8  -9   0   21.97    3.39 
   0 -10   0  104.52    4.61 
  -1 -10   0   62.36    3.59 
   1 -10   0   55.45    3.16 
  -2 -10   0   94.79    4.73 
  -3 -10   0   40.70    3.80 
  -4 -10   0    9.68    2.08 
  -5 -10   0    0.98    1.24 
  -6 -10   0    2.78    1.52 
  -7 -10   0    4.00    1.88 
   0 -11   0    0.18    0.84 
  -1 -11   0   15.99    2.35 
   1 -11   0   19.99    2.37 
   2 -11   0   15.45    2.09 
  -2 -11   0   18.93    2.59 
  -3 -11   0   38.32    3.82 
  -4 -11   0   40.76    4.07 
  -5 -11   0   35.04    3.95 
  -6 -11   0   41.31    4.42 
   0 -12   0  108.03    5.24 
   1 -12   0   53.73    3.52 
  -1 -12   0   55.54    3.86 
   2 -12   0   40.32    3.50 
  -2 -12   0   33.18    3.61 
  -3 -12   0   16.10    2.67 
  -4 -12   0    7.67    2.14 
  12   0  -1    2.43    1.60 
  11   0  -1    5.22    1.69 
  10   0  -1   26.39    3.12 
   9   0  -1   71.21    4.11 
  -9   0   1   80.13    4.08 
  -8   0   1  169.57    5.94 
   8   0  -1  155.94    6.06 
  -7   0   1   66.93    3.24 
   7   0  -1   63.57    3.33 
  -6   0   1  264.83    7.39 
   6   0  -1  260.23    7.50 
   5   0  -1  114.65    3.95 
  -5   0   1  116.03    3.90 
   4   0  -1   18.84    1.27 
  -4   0   1   17.51    1.25 
  -3   0   1   23.09    1.20 
   3   0  -1   20.33    1.15 
   2   0  -1   60.90    1.85 
  -2   0   1   61.83    1.89 
  -1   0   1    6.68    0.41 
   1   0  -1    5.68    0.37 
   0   0   1   97.83    2.23 
   0   0   1   99.16    2.29 
   0   0  -1   96.45    2.27 
   1   0   1  376.69    8.23 
  -1   0  -1  382.57    8.15 
   2   0   1   98.11    2.93 
  -2   0  -1   99.71    2.81 
  -3   0  -1  396.67    9.19 
   4   0   1  289.51    7.58 
  -4   0  -1  278.05    7.20 
   5   0   1  135.99    4.79 
  -5   0  -1  138.25    4.48 
  -6   0  -1   37.04    2.27 
   6   0   1   37.74    2.47 
  -7   0  -1   21.02    2.18 
   7   0   1   20.09    2.41 
   8   0   1    2.78    1.22 
   9   0   1   11.06    2.12 
  10   0   1    4.84    1.68 
  11   0   1   13.48    2.60 
  12  -1  -1   37.24    4.06 
  11  -1  -1   38.30    3.91 
  11   1  -1   37.30    3.85 
 -10  -1   1   41.69    3.75 
  10  -1  -1   39.60    3.78 
  10   1  -1   43.73    4.12 
   9  -1  -1   21.92    2.67 
  -9  -1   1   27.93    2.83 
   9   1  -1   28.13    2.99 
   8  -1  -1    3.84    1.20 
  -8  -1   1    2.79    1.06 
  -8   1   1    1.77    0.89 
   8   1  -1    2.38    1.04 
   7  -1  -1   -0.57    0.54 
  -7  -1   1    0.10    0.65 
  -7   1   1    0.00    0.56 
   7   1  -1    0.94    0.72 
  -6  -1   1   20.30    1.99 
   6  -1  -1   22.65    2.09 
  -6   1   1   18.16    1.76 
   6   1  -1   19.10    1.91 
   5  -1  -1   34.66    1.96 
  -5  -1   1   33.20    1.96 
   5   1  -1   32.90    1.93 
  -5   1   1   30.47    1.75 
   4  -1  -1   38.50    1.84 
  -4  -1   1   40.93    1.96 
  -4   1   1   39.44    1.81 
   4   1  -1   39.26    1.88 
  -3  -1   1  178.21    4.79 
   3  -1  -1  180.13    4.65 
   3   1  -1  175.59    4.67 
  -3   1   1  188.68    4.64 
  -2  -1   1  374.72    8.40 
   2  -1  -1  379.94    8.32 
  -2   1   1  372.76    8.28 
   2   1  -1  386.92    8.31 
  -1  -1   1  279.16    6.08 
  -1  -1   1  285.39    6.02 
   1  -1  -1  282.45    6.20 
   1   1  -1  286.72    5.97 
  -1   1   1  287.99    6.21 
   0  -1  -1  306.54    6.80 
   0   1   1  316.12    6.84 
   1  -1   1   54.97    1.47 
  -1  -1  -1   53.52    1.85 
   1  -1   1   55.31    1.39 
   1   1   1   53.54    1.84 
   2  -1   1    9.60    0.82 
  -2  -1  -1   10.27    1.00 
   2   1   1    9.59    0.97 
  -2   1  -1    8.87    0.60 
  -3  -1  -1    1.94    0.59 
   3  -1   1    1.96    0.57 
   3   1   1    1.71    0.58 
  -3   1  -1    2.04    0.49 
  -4  -1  -1   -0.13    0.42 
   4  -1   1    0.83    0.52 
  -4   1  -1    0.18    0.37 
   4   1   1   -0.37    0.46 
   5  -1   1   97.64    3.84 
  -5  -1  -1  102.97    3.88 
   5   1   1  101.06    4.05 
  -5   1  -1  102.09    3.50 
  -6  -1  -1  123.94    4.70 
   6  -1   1  138.82    5.01 
  -6   1  -1  131.24    4.43 
   6   1   1  121.73    4.91 
   7  -1   1   67.34    3.66 
  -7  -1  -1   68.09    3.57 
  -7   1  -1   75.98    3.36 
   7   1   1   70.49    3.79 
  -8  -1  -1  101.31    4.66 
   8  -1   1   94.09    4.76 
   8   1   1  109.25    5.13 
   9  -1   1   53.25    3.68 
   9   1   1   38.44    3.81 
  10  -1   1   18.70    2.77 
  10   1   1   26.40    3.31 
  11   1   1   23.35    3.33 
  12  -2  -1    3.14    1.58 
  12   2  -1    1.12    1.54 
  11  -2  -1    9.10    2.08 
  11   2  -1   11.87    2.36 
  10  -2  -1   30.26    3.32 
 -10  -2   1   40.31    3.79 
  10   2  -1   42.78    4.07 
   9  -2  -1   46.15    3.26 
  -9  -2   1   37.00    3.46 
   9   2  -1   43.86    3.23 
  -8  -2   1  133.08    5.46 
   8  -2  -1  121.11    5.13 
  -8   2   1  120.51    4.72 
   8   2  -1  129.51    5.33 
   7  -2  -1  131.21    5.01 
  -7  -2   1  136.19    5.23 
   7   2  -1  131.01    5.05 
  -7   2   1  128.00    4.61 
  -6  -2   1  179.81    5.98 
   6  -2  -1  188.21    5.84 
   6   2  -1  182.76    5.89 
  -6   2   1  177.96    5.45 
  -5  -2   1   33.26    2.11 
   5  -2  -1   37.99    2.02 
  -5   2   1   33.59    1.80 
   5   2  -1   35.80    2.04 
   4  -2  -1   57.10    2.29 
  -4  -2   1   53.96    2.47 
  -4   2   1   56.19    2.17 
   4   2  -1   55.93    2.37 
  -3  -2   1   43.17    1.94 
   3  -2  -1   41.40    1.73 
  -3   2   1   45.64    1.73 
   3   2  -1   44.37    1.82 
   2  -2  -1   20.67    1.01 
  -2  -2   1   20.68    1.11 
  -2   2   1   19.01    0.97 
   2   2  -1   20.72    0.98 
  -1  -2   1    0.59    0.25 
  -1  -2   1    0.92    0.23 
  -1   2   1    0.45    0.26 
   0  -2  -1   17.47    0.96 
   0   2   1   20.81    1.03 
   1  -2   1  449.30    9.21 
   1   2   1  460.74   10.24 
  -2  -2  -1  516.22   12.19 
   2  -2   1  541.80   11.46 
   2  -2   1  541.68   11.33 
   2   2   1  540.19   12.19 
   3  -2   1  225.65    5.69 
  -3  -2  -1  224.30    6.23 
   3   2   1  220.94    6.16 
  -4  -2  -1  136.54    4.66 
   4  -2   1  138.32    4.29 
  -4   2  -1  137.75    3.82 
   4   2   1  136.22    4.66 
   5  -2   1  212.85    6.25 
  -5  -2  -1  202.11    6.45 
  -5   2  -1  206.35    5.62 
   5   2   1  217.96    6.68 
  -6  -2  -1   43.57    2.72 
   6  -2   1   41.21    2.56 
  -6   2  -1   40.11    2.15 
   6   2   1   44.08    2.80 
   7  -2   1    9.71    1.65 
  -7  -2  -1    7.86    1.61 
   7   2   1    7.82    1.64 
   8  -2   1    0.41    0.86 
  -8  -2  -1    2.34    1.16 
   8   2   1    2.76    1.19 
   9  -2   1    8.85    1.91 
   9   2   1   14.91    2.49 
  10  -2   1   10.06    2.20 
  10   2   1    6.95    1.96 
  11  -2   1   15.28    2.72 
  11   2   1   19.21    3.10 
  11  -3  -1   58.40    4.28 
  11   3  -1   60.47    4.41 
 -10  -3   1   36.69    3.83 
  10  -3  -1   47.90    3.55 
  10   3  -1   39.32    3.83 
   9  -3  -1   30.65    3.18 
  -9  -3   1   26.24    3.04 
   9   3  -1   28.43    3.14 
   8  -3  -1    0.85    0.83 
  -8  -3   1    1.63    1.03 
   8   3  -1   -0.23    0.74 
  -7  -3   1    0.27    0.79 
   7  -3  -1    0.80    0.80 
  -7   3   1    1.44    0.74 
   7   3  -1    2.53    1.00 
  -6  -3   1    5.67    1.28 
   6  -3  -1    5.65    1.10 
  -6   3   1    5.61    1.00 
   6   3  -1    5.70    1.16 
  -5  -3   1   90.50    3.71 
   5  -3  -1   83.93    3.27 
  -5   3   1   85.13    3.04 
   5   3  -1   81.01    3.34 
   4  -3  -1   96.18    3.27 
  -4  -3   1   98.15    3.68 
  -4   3   1   99.81    3.08 
   4   3  -1   88.75    3.28 
  -3  -3   1  299.02    7.43 
   3  -3  -1  284.58    6.93 
  -3   3   1  282.92    6.76 
   3   3  -1  283.96    6.97 
  -2  -3   1  233.32    5.94 
   2  -3  -1  240.76    5.71 
  -2   3   1  235.61    5.65 
   2   3  -1  239.15    5.55 
  -1  -3   1   15.15    0.82 
  -1  -3   1   17.51    0.90 
  -1   3   1   15.95    0.96 
   0  -3  -1  285.17    6.80 
   0  -3   1  292.80    5.96 
   0  -3   1  283.18    5.92 
   0   3   1  286.79    6.82 
   1  -3   1   79.91    1.86 
   1  -3   1   78.00    1.81 
  -1  -3  -1   77.42    2.75 
   1   3   1   76.05    2.68 
   2  -3   1   10.58    0.69 
   2  -3   1   10.63    0.65 
  -2  -3  -1   10.69    1.24 
   2   3   1   11.40    1.24 
  -3  -3  -1    1.52    0.67 
   3  -3   1    1.15    0.46 
   3  -3   1    1.80    0.48 
   3   3   1    0.74    0.54 
   4  -3   1   17.20    1.30 
  -4  -3  -1   15.93    1.79 
   4   3   1   12.57    1.55 
   5  -3   1   48.21    2.49 
  -5  -3  -1   48.45    2.90 
   5   3   1   46.24    2.78 
   6  -3   1   65.83    3.18 
  -6  -3  -1   55.41    3.28 
   6   3   1   58.01    3.33 
   7  -3   1   61.70    3.36 
  -7  -3  -1   58.60    3.59 
   7   3   1   64.57    3.71 
  -8  -3  -1  103.81    5.10 
   8  -3   1  101.36    4.85 
   8   3   1  109.19    5.29 
   9  -3   1   75.97    4.51 
  -9  -3  -1   86.72    4.81 
   9   3   1   82.85    4.85 
  10  -3   1   22.28    3.01 
  10   3   1   28.72    3.58 
  11  -3   1   11.35    2.49 
  11   3   1   13.32    2.66 
  11  -4  -1    0.63    1.30 
 -11  -4   1    2.44    1.73 
 -10  -4   1   31.61    3.61 
  10  -4  -1   36.22    3.71 
  10   4  -1   32.04    3.51 
   9  -4  -1   72.93    4.24 
  -9  -4   1   79.23    4.63 
   9   4  -1   75.58    4.39 
  -8  -4   1  101.23    5.11 
   8  -4  -1  110.07    4.87 
   8   4  -1  118.46    5.14 
   7  -4  -1   47.65    2.85 
  -7  -4   1   51.82    3.35 
   7   4  -1   50.69    3.07 
  -6  -4   1  103.20    4.48 
   6  -4  -1  104.01    4.05 
  -6   4   1   99.64    3.53 
   6   4  -1   98.07    4.07 
   5  -4  -1   91.42    3.53 
  -5  -4   1  102.00    4.21 
   5   4  -1   95.34    3.69 
  -5   4   1   92.53    3.17 
   4  -4  -1   76.72    2.90 
  -4  -4   1   82.68    3.46 
  -4   4   1   75.72    2.64 
   4   4  -1   82.04    3.05 
  -3  -4   1   21.85    1.59 
   3  -4  -1   23.20    1.34 
   3   4  -1   24.10    1.35 
  -3   4   1   23.08    1.23 
  -2  -4   1    2.61    0.64 
   2  -4  -1    2.10    0.52 
  -2   4   1    3.20    0.56 
   2   4  -1    2.20    0.45 
  -1  -4   1   32.54    1.38 
  -1  -4   1   31.84    1.39 
  -1   4   1   30.26    1.45 
   0  -4   1  106.16    2.72 
   0  -4  -1  105.56    3.30 
   0   4   1  100.85    3.20 
   1  -4   1   87.75    2.20 
  -1  -4  -1   89.98    3.20 
   1  -4   1   86.05    2.31 
   1   4   1   87.02    3.03 
   2  -4   1  187.14    4.47 
  -2  -4  -1  182.72    5.61 
   2  -4   1  186.34    4.45 
   2   4   1  189.17    5.40 
   3  -4   1  368.14    8.54 
  -3  -4  -1  365.01    9.79 
   3  -4   1  370.18    8.44 
   3   4   1  375.99    9.52 
   4  -4   1  294.07    7.47 
  -4  -4  -1  289.95    8.55 
   4   4   1  300.70    8.37 
  -5  -4  -1  138.27    5.42 
   5  -4   1  141.99    4.63 
   5   4   1  131.77    5.12 
   6  -4   1    3.00    0.96 
  -6  -4  -1    5.05    1.37 
   6   4   1    3.16    1.11 
   7  -4   1    6.37    1.42 
  -7  -4  -1    7.52    1.73 
   7   4   1    8.14    1.68 
  -8  -4  -1    2.92    1.42 
   8  -4   1    2.06    1.12 
   8   4   1    2.31    1.30 
   9  -4   1    6.67    1.68 
  -9  -4  -1   13.31    2.42 
   9   4   1    8.73    2.06 
  10  -4   1    1.74    1.34 
  10   4   1    3.91    1.81 
  11  -5  -1   34.23    3.85 
 -11  -5   1   42.30    4.55 
  10  -5  -1   17.63    2.61 
 -10  -5   1   26.52    3.44 
   9  -5  -1   26.25    3.04 
  -9  -5   1   19.76    2.85 
   8  -5  -1    1.70    1.02 
  -8  -5   1   -0.05    1.01 
   8   5  -1   -0.29    0.78 
   7  -5  -1    0.55    0.74 
  -7  -5   1    1.03    0.95 
   7   5  -1    0.80    0.80 
  -6  -5   1    5.36    1.39 
   6  -5  -1    7.70    1.30 
   6   5  -1   11.43    1.65 
   5  -5  -1   69.67    2.99 
  -5  -5   1   68.67    3.56 
   5   5  -1   65.99    3.04 
   4  -5  -1   61.24    2.56 
  -4  -5   1   58.49    3.04 
   4   5  -1   56.23    2.54 
   3  -5  -1  129.51    3.95 
  -3  -5   1  128.39    4.44 
   3   5  -1  127.86    3.81 
  -2  -5   1  179.22    5.21 
  -1  -5   1  103.01    3.22 
  -1  -5   1  102.07    3.19 
  -1   5   1  104.18    3.16 
   0  -5  -1  256.30    6.70 
   0  -5   1  255.98    6.10 
   0   5   1  250.94    6.44 
   1  -5   1   47.74    1.73 
   1  -5   1   46.06    1.57 
  -1  -5  -1   50.49    2.40 
   1   5   1   47.52    2.19 
   2  -5   1    2.67    0.49 
  -2  -5  -1    2.72    0.84 
   2  -5   1    3.24    0.53 
   2   5   1    2.97    0.75 
   3  -5   1    0.60    0.40 
  -3  -5  -1    1.54    0.86 
   3  -5   1    0.39    0.38 
   3   5   1    0.39    0.57 
  -4  -5  -1    8.34    1.54 
   4  -5   1   10.88    1.18 
   4  -5   1    8.18    1.07 
   4   5   1    8.63    1.41 
   5  -5   1   35.76    2.15 
  -5  -5  -1   37.42    2.82 
   5   5   1   41.53    2.76 
  -6  -5  -1   70.50    4.08 
   6  -5   1   64.84    3.22 
   6   5   1   67.79    3.74 
  -7  -5  -1   66.30    4.19 
   7  -5   1   69.09    3.61 
   7   5   1   67.99    4.03 
   8  -5   1   78.57    4.23 
  -8  -5  -1   90.17    5.03 
   8   5   1   82.09    4.69 
   9  -5   1   48.25    3.52 
  -9  -5  -1   44.86    4.45 
   9   5   1   50.82    4.67 
  10  -5   1   15.59    2.62 
  10  -6  -1   17.74    2.68 
 -10  -6   1   16.77    2.97 
  -9  -6   1   25.93    3.37 
   9  -6  -1   26.58    2.98 
  -8  -6   1   97.86    5.31 
   8  -6  -1  103.49    4.77 
   7  -6  -1  103.16    4.49 
  -7  -6   1  111.10    5.34 
   6  -6  -1  137.67    5.03 
  -6  -6   1  145.86    5.98 
  -5  -6   1   25.29    2.63 
   5  -6  -1   30.21    2.01 
   5   6  -1   24.30    2.12 
  -4  -6   1   20.43    2.23 
   4  -6  -1   18.60    1.72 
   4   6  -1   18.88    1.67 
  -3  -6   1   17.45    1.88 
  -1  -6   1    5.82    0.93 
  -1  -6   1    5.17    0.86 
   0  -6   1   36.42    1.78 
   0  -6  -1   37.55    2.07 
   0   6   1   34.54    1.78 
  -1  -6  -1  223.54    6.56 
   1  -6   1  215.64    5.58 
   1   6   1  217.12    6.02 
   2  -6   1  186.68    4.78 
   2  -6   1  186.22    4.88 
  -2  -6  -1  186.53    6.12 
   2   6   1  187.42    5.61 
   3  -6   1  106.85    3.31 
   3  -6   1  100.96    3.26 
  -3  -6  -1  101.12    4.46 
   3   6   1  106.82    4.11 
  -4  -6  -1   88.75    4.29 
   4  -6   1   84.32    3.16 
   4   6   1   87.48    3.89 
   5  -6   1  140.34    4.67 
  -5  -6  -1  139.84    5.89 
   5   6   1  134.10    5.33 
   6  -6   1   44.49    2.66 
  -6  -6  -1   39.38    3.75 
   6   6   1   45.87    3.17 
   7  -6   1    8.66    1.59 
  -7  -6  -1    2.94    1.38 
   7   6   1    9.11    1.86 
  -8  -6  -1   -0.35    1.06 
   8  -6   1    1.97    1.12 
   9  -6   1    5.28    1.63 
  -9  -6  -1    5.96    1.97 
  10  -6   1    6.76    1.93 
 -10  -6  -1    5.23    2.00 
  10  -7  -1   30.09    3.48 
 -10  -7   1   33.32    4.23 
  -9  -7   1   17.48    3.03 
   9  -7  -1   19.33    2.63 
  -8  -7   1    2.28    1.45 
   8  -7  -1    2.88    1.21 
   7  -7  -1   -0.02    0.79 
  -7  -7   1    2.04    1.24 
  -6  -7   1   11.26    2.06 
   6  -7  -1   13.21    1.78 
   5  -7  -1   18.50    1.91 
  -5  -7   1   17.67    2.32 
  -4  -7   1   27.13    2.67 
  -3  -7   1  114.50    4.61 
  -2  -7   1  169.26    5.51 
  -1  -7   1  119.03    4.08 
   0  -7   1  106.46    3.75 
   0  -7  -1  114.51    4.19 
  -1  -7  -1   33.63    2.34 
   1  -7   1   34.91    1.85 
   1   7   1   32.95    1.91 
  -2  -7  -1   14.75    1.92 
   2   7   1    9.95    1.35 
  -3  -7  -1    0.67    0.88 
   3  -7   1    0.50    0.48 
   3   7   1    1.56    0.80 
  -4  -7  -1    1.18    1.01 
   4  -7   1    2.59    0.75 
  -5  -7  -1   63.66    3.95 
   5  -7   1   51.02    2.67 
  -6  -7  -1   95.60    5.17 
   6  -7   1   89.00    3.93 
  -7  -7  -1   31.71    3.69 
   7  -7   1   42.21    2.86 
   8  -7   1   53.88    3.50 
  -8  -7  -1   51.51    4.92 
   9  -7   1   31.05    3.39 
  -9  -7  -1   31.41    3.99 
  -9  -8   1   44.56    4.61 
   9  -8  -1   36.89    3.65 
  -8  -8   1   70.33    4.86 
   8  -8  -1   70.90    4.04 
  -7  -8   1   27.21    3.37 
   7  -8  -1   32.14    3.01 
   6  -8  -1   94.61    4.16 
  -6  -8   1   88.06    4.96 
  -5  -8   1   44.02    3.28 
  -4  -8   1   17.04    2.31 
  -3  -8   1    6.80    1.43 
  -2  -8   1    6.00    1.27 
   1  -8  -1    3.71    1.00 
  -1  -8   1    5.11    1.10 
   0  -8  -1   35.38    2.39 
   0  -8   1   32.96    2.01 
  -1  -8  -1  105.48    4.53 
  -2  -8  -1   88.30    4.23 
  -3  -8  -1  155.27    6.25 
   4  -8   1  109.87    3.97 
  -4  -8  -1  124.87    5.62 
   5  -8   1   49.12    2.66 
  -5  -8  -1   53.87    3.92 
   6  -8   1   19.34    2.12 
  -6  -8  -1   13.65    2.49 
  -7  -8  -1    4.11    1.74 
   7  -8   1    7.33    1.56 
  -8  -8  -1   -0.32    1.21 
   8  -8   1    1.50    1.12 
  -8  -9   1    0.69    1.41 
   8  -9  -1    1.24    1.13 
   7  -9  -1    0.58    0.88 
  -7  -9   1    0.14    1.05 
  -6  -9   1    4.39    1.61 
  -5  -9   1   21.25    2.86 
  -4  -9   1   46.64    3.36 
  -3  -9   1   79.96    4.17 
  -2  -9   1   90.05    4.16 
   1  -9  -1   64.92    3.32 
  -1  -9   1   58.84    3.14 
   0  -9   1   71.93    3.27 
   0  -9  -1   73.20    3.71 
  -1  -9  -1   24.42    2.65 
  -2  -9  -1    4.99    1.46 
  -3  -9  -1    0.32    0.94 
  -4  -9  -1    5.69    1.71 
   5  -9   1   21.89    2.18 
  -5  -9  -1   23.88    3.26 
  -6  -9  -1   32.65    3.83 
   6  -9   1   39.01    2.65 
   7  -9   1   33.05    3.02 
  -7  -9  -1   27.10    3.73 
   8  -9   1   52.91    3.59 
  -8  -9  -1   55.74    5.44 
  -7 -10   1   31.09    3.83 
  -6 -10   1   40.92    4.22 
  -5 -10   1   23.93    3.10 
  -4 -10   1   16.19    2.52 
  -3 -10   1   10.22    1.99 
  -2 -10   1    0.98    1.03 
   1 -10  -1    1.41    0.91 
  -1 -10   1    1.94    1.04 
   0 -10  -1   13.03    2.03 
   1 -10   1   68.44    3.35 
  -1 -10  -1   79.50    4.28 
  -2 -10  -1  102.61    5.16 
  -3 -10  -1   93.26    5.16 
  -4 -10  -1   47.25    4.38 
  -5 -10  -1   53.57    4.96 
   6 -10   1    7.27    1.59 
  -6 -10  -1   10.00    2.50 
   7 -10   1    1.70    1.17 
  -7 -10  -1    1.70    1.74 
  -6 -11   1    1.71    1.46 
  -5 -11   1   21.79    3.12 
  -4 -11   1   20.41    2.88 
  -3 -11   1   69.53    4.29 
   2 -11  -1   67.23    3.77 
  -2 -11   1   59.33    3.82 
   1 -11  -1   25.65    2.79 
  -1 -11   1   23.90    2.71 
   0 -11  -1   56.26    3.72 
   0 -11   1   54.48    3.30 
   1 -11   1   27.47    2.58 
  -1 -11  -1   19.70    2.71 
  -2 -11  -1    2.58    1.41 
  -3 -11  -1   -0.40    1.08 
  -4 -11  -1    3.82    1.67 
  -5 -11  -1   10.96    2.55 
  -4 -12   1    7.89    2.02 
  -3 -12   1    2.17    1.35 
   3 -12  -1    4.21    1.47 
  -2 -12   1    0.24    1.11 
   2 -12  -1   -0.80    0.96 
  -1 -12   1    5.33    1.61 
   1 -12  -1    4.85    1.57 
   0 -12   1   23.69    2.75 
   0 -12  -1   24.90    3.02 
  -1 -12  -1   24.31    3.12 
   1 -12   1   33.70    3.08 
  -2 -12  -1   32.28    3.69 
   2 -12   1   35.99    2.71 
  -3 -12  -1   41.09    4.23 
  12   0  -2   36.30    4.11 
  11   0  -2    8.01    1.93 
  10   0  -2   -0.02    0.94 
 -10   0   2   -0.11    0.90 
  -9   0   2    0.14    0.86 
   9   0  -2    0.41    0.85 
   8   0  -2   35.49    2.58 
  -8   0   2   31.90    2.43 
   7   0  -2   59.12    3.08 
  -7   0   2   57.12    3.01 
   6   0  -2   92.71    3.65 
  -6   0   2   92.61    3.65 
  -5   0   2  331.91    8.45 
  -4   0   2   71.87    2.62 
   4   0  -2   68.49    2.55 
  -3   0   2   83.13    2.63 
   3   0  -2   81.40    2.56 
  -2   0   2  286.89    6.53 
   2   0  -2  286.11    6.47 
  -1   0   2    3.50    0.42 
   0   0  -2   33.37    1.19 
   0   0   2   33.01    1.16 
   1   0   2    1.46    0.41 
  -1   0  -2    1.73    0.42 
   2   0   2    7.78    0.94 
  -2   0  -2    7.08    0.79 
  -3   0  -2  237.54    6.07 
   3   0   2  233.97    6.40 
  -4   0  -2  171.04    5.06 
   4   0   2  181.15    5.53 
   5   0   2  150.88    5.36 
  -5   0  -2  157.90    4.97 
   6   0   2  221.17    7.31 
  -6   0  -2  222.36    6.68 
   7   0   2  116.31    5.17 
   8   0   2   72.20    4.25 
   9   0   2   17.68    2.77 
  10   0   2    4.05    1.73 
  12   1  -2   21.03    3.23 
  11  -1  -2   52.71    4.65 
  11   1  -2   51.56    4.61 
  10  -1  -2   46.55    3.45 
 -10  -1   2   52.16    3.52 
  10   1  -2   44.51    3.97 
  -9  -1   2   86.96    4.38 
   9  -1  -2   92.46    4.55 
   9   1  -2   88.41    4.45 
  -9   1   2   95.19    4.34 
   8  -1  -2  158.88    5.90 
  -8  -1   2  155.32    5.82 
  -8   1   2  162.38    5.71 
   8   1  -2  158.44    5.89 
  -7  -1   2   48.54    2.81 
   7  -1  -2   53.37    2.91 
   7   1  -2   51.34    2.91 
  -7   1   2   59.05    2.92 
   6  -1  -2   50.58    2.61 
  -6  -1   2   52.39    2.70 
  -6   1   2   57.58    2.67 
   6   1  -2   53.16    2.65 
   5  -1  -2    1.06    0.57 
  -5  -1   2    1.16    0.56 
  -5   1   2    1.92    0.62 
   5   1  -2    0.64    0.48 
   4  -1  -2    0.56    0.42 
  -4  -1   2    0.53    0.40 
   4   1  -2    0.55    0.43 
  -4   1   2    0.46    0.40 
   3  -1  -2   29.85    1.41 
  -3  -1   2   30.28    1.44 
  -3   1   2   29.67    1.42 
   3   1  -2   27.54    1.30 
  -2  -1   2   32.42    1.30 
   2  -1  -2   33.73    1.37 
   2   1  -2   36.02    1.24 
  -2   1   2   36.22    1.41 
  -1  -1   2  266.13    5.72 
   0  -1   2  278.74    5.78 
   0  -1   2  280.10    5.85 
   0  -1  -2  280.98    6.53 
   0   1   2  274.02    6.48 
   1  -1   2  138.92    3.36 
   1  -1   2  137.75    3.31 
  -1  -1  -2  137.92    3.86 
   1   1   2  133.98    3.88 
   2  -1   2  200.09    4.96 
  -2  -1  -2  189.05    5.20 
   2   1   2  188.47    5.31 
  -2   1  -2  189.24    4.48 
  -3  -1  -2   53.15    2.41 
   3  -1   2   60.82    2.40 
  -3   1  -2   56.10    1.99 
   3   1   2   53.88    2.52 
  -4  -1  -2   18.97    1.76 
   4  -1   2   13.96    1.50 
   4   1   2   17.30    1.79 
  -4   1  -2   16.55    1.21 
   5  -1   2   33.99    2.25 
  -5  -1  -2   32.63    2.13 
   5   1   2   32.07    2.34 
  -5   1  -2   35.23    1.89 
  -6  -1  -2    6.86    1.36 
   6  -1   2    7.76    1.46 
   6   1   2    9.47    1.64 
  -6   1  -2    6.81    1.16 
   7  -1   2   35.29    3.24 
  -7  -1  -2   27.32    2.66 
   7   1   2   27.33    2.91 
   8  -1   2   20.24    2.69 
   8   1   2   17.93    2.52 
   9  -1   2   51.77    3.84 
   9   1   2   54.49    4.00 
  10  -1   2   47.20    4.44 
  10   1   2   43.36    4.37 
  12  -2  -2   29.00    3.62 
  12   2  -2   38.82    4.23 
  11  -2  -2    9.46    2.16 
 -11  -2   2    8.62    2.00 
  11   2  -2    8.92    2.10 
 -10  -2   2    0.72    1.05 
  10  -2  -2    1.44    1.17 
  10   2  -2    1.58    1.10 
  -9  -2   2    1.16    1.03 
   9  -2  -2    0.76    0.94 
   9   2  -2    0.98    0.98 
  -8  -2   2   30.81    2.92 
   8  -2  -2   35.06    2.59 
  -8   2   2   35.25    2.42 
   8   2  -2   34.77    2.57 
   7  -2  -2   94.04    4.09 
  -7  -2   2   97.65    4.29 
   7   2  -2   99.49    4.13 
  -7   2   2   99.17    3.90 
  -6  -2   2   58.72    2.96 
   6  -2  -2   58.25    2.83 
  -6   2   2   57.54    2.66 
   6   2  -2   59.88    2.84 
   5  -2  -2  151.44    4.76 
  -5  -2   2  152.18    4.95 
  -5   2   2  153.59    4.64 
   5   2  -2  158.93    4.77 
  -4  -2   2  253.74    6.73 
   4  -2  -2  248.52    6.51 
   4   2  -2  263.96    6.48 
  -4   2   2  249.39    6.48 
  -3  -2   2  319.69    7.54 
   3  -2  -2  308.02    7.43 
   3   2  -2  318.99    7.24 
  -3   2   2  299.08    7.37 
  -2  -2   2   96.02    2.58 
  -2  -2   2   96.20    2.73 
   2   2  -2   97.83    2.45 
  -2   2   2   94.52    2.84 
  -1  -2   2    1.10    0.22 
  -1   2   2    2.01    0.45 
   0  -2  -2    8.99    0.92 
   0   2   2   10.73    1.01 
  -1  -2  -2   25.75    1.49 
   1  -2   2   23.50    0.68 
   1   2   2   26.52    1.52 
  -2  -2  -2   22.50    1.51 
   2  -2   2   19.85    0.95 
   2  -2   2   18.59    1.02 
   2   2   2   21.08    1.76 
  -3  -2  -2  130.97    4.47 
   3  -2   2  129.35    3.92 
   3   2   2  141.69    4.63 
   4  -2   2   70.90    2.97 
  -4  -2  -2   75.12    3.37 
   4   2   2   82.21    3.51 
   5  -2   2  240.86    7.05 
  -5  -2  -2  235.84    7.24 
  -5   2  -2  232.13    6.10 
   5   2   2  243.04    7.53 
   6  -2   2  227.90    7.18 
  -6  -2  -2  223.99    7.28 
   6   2   2  222.83    7.60 
  -7  -2  -2   56.59    3.42 
   7  -2   2   46.42    3.12 
   7   2   2   52.21    3.46 
   8  -2   2   61.46    3.95 
  -8  -2  -2   74.75    4.16 
   8   2   2   73.46    4.38 
   9  -2   2   24.76    3.05 
   9   2   2   30.08    3.59 
  10  -2   2    6.80    1.93 
  10   2   2    6.05    1.95 
  12  -3  -2   16.94    2.92 
 -11  -3   2   72.02    4.86 
  11   3  -2   90.31    5.07 
 -10  -3   2   69.66    4.36 
  10  -3  -2   60.79    4.03 
  10   3  -2   71.09    4.30 
  -9  -3   2   83.77    4.52 
   9  -3  -2   82.93    4.38 
   9   3  -2   73.49    4.16 
  -8  -3   2   98.22    4.73 
   8  -3  -2   96.79    4.49 
   8   3  -2   98.43    4.49 
  -7  -3   2   15.25    2.03 
   7  -3  -2   14.40    1.86 
  -7   3   2   14.71    1.69 
   7   3  -2   19.01    2.10 
  -6  -3   2   67.71    3.34 
   6  -3  -2   69.29    3.14 
   6   3  -2   64.65    3.05 
  -6   3   2   65.31    2.88 
  -5  -3   2    2.21    0.79 
   5  -3  -2    2.90    0.77 
  -5   3   2    3.38    0.77 
   5   3  -2    3.13    0.78 
   4  -3  -2    3.28    0.71 
  -4  -3   2    2.75    0.75 
   4   3  -2    2.59    0.62 
  -4   3   2    4.16    0.74 
   3  -3  -2   30.63    1.59 
  -3  -3   2   33.03    1.70 
   3   3  -2   33.74    1.42 
  -3   3   2   32.54    1.59 
  -2  -3   2   54.11    1.76 
  -2  -3   2   55.20    1.94 
  -2   3   2   50.59    2.01 
  -1  -3   2   56.47    1.39 
  -1  -3   2   53.06    1.45 
  -1   3   2   55.31    2.15 
   0  -3  -2   57.67    2.29 
   0   3   2   57.92    2.33 
  -1  -3  -2  295.91    7.73 
   1   3   2  307.71    7.74 
   2  -3   2  308.67    6.91 
  -2  -3  -2  324.62    8.45 
   2  -3   2  318.75    7.09 
   2   3   2  321.65    8.36 
  -3  -3  -2  120.03    4.34 
   3  -3   2  111.75    3.41 
   3  -3   2  109.25    3.21 
   3   3   2  113.74    4.21 
   4  -3   2   17.58    1.60 
  -4  -3  -2   16.56    1.92 
   4   3   2   14.95    1.84 
   5  -3   2    3.40    0.93 
  -5  -3  -2    4.32    1.22 
   5   3   2    3.76    1.10 
   6  -3   2    2.26    0.93 
  -6  -3  -2    2.17    1.01 
   6   3   2    3.25    1.20 
   7  -3   2   22.12    2.51 
  -7  -3  -2   17.84    2.37 
   7   3   2   22.93    2.75 
  -8  -3  -2   29.66    3.28 
   8  -3   2   29.66    3.12 
   8   3   2   24.47    3.03 
   9  -3   2   60.27    3.99 
   9   3   2   63.01    4.36 
  10  -3   2   61.04    4.35 
  10   3   2   51.89    4.88 
  11  -4  -2    3.95    1.57 
 -11  -4   2    5.14    1.87 
 -10  -4   2   -1.15    0.87 
  10  -4  -2    1.22    1.16 
  -9  -4   2    1.03    0.98 
   9  -4  -2   -0.44    0.78 
   9   4  -2   -0.49    0.84 
  -8  -4   2    8.21    1.77 
   8  -4  -2    6.49    1.53 
   8   4  -2   10.44    1.79 
  -7  -4   2   35.88    2.73 
   7  -4  -2   36.18    2.52 
   7   4  -2   37.41    2.52 
   6  -4  -2  131.54    4.68 
  -6  -4   2  134.18    5.13 
  -6   4   2  124.54    4.35 
   6   4  -2  135.66    4.70 
   5  -4  -2  270.07    7.45 
  -5  -4   2  271.14    7.90 
   5   4  -2  277.76    7.35 
  -5   4   2  281.39    7.26 
  -4  -4   2  131.49    4.48 
   4  -4  -2  126.24    4.14 
   4   4  -2  131.43    3.91 
  -4   4   2  132.85    4.03 
  -3  -4   2   73.56    2.86 
   3  -4  -2   75.51    2.80 
  -3   4   2   76.45    2.73 
   3   4  -2   76.18    2.35 
  -2  -4   2  110.31    3.13 
  -2  -4   2  114.74    3.35 
  -2   4   2  106.11    3.44 
  -1  -4   2   49.67    1.55 
  -1  -4   2   50.54    1.49 
  -1   4   2   52.60    2.21 
   0  -4  -2    1.71    0.57 
   0   4   2    1.90    0.58 
  -1  -4  -2   21.84    1.61 
   1   4   2   21.17    1.57 
   2  -4   2   15.56    0.83 
   2  -4   2   13.70    0.72 
  -2  -4  -2   14.95    1.70 
   2   4   2   14.18    1.58 
   3  -4   2  237.02    5.91 
  -3  -4  -2  243.04    7.30 
   3  -4   2  235.55    5.74 
   3   4   2  228.58    7.01 
   4  -4   2   56.44    2.46 
   4  -4   2   57.11    2.32 
  -4  -4  -2   57.17    3.25 
   4   4   2   56.06    3.05 
   5  -4   2   83.92    3.46 
  -5  -4  -2   78.34    4.11 
   5   4   2   80.90    4.03 
   6  -4   2  186.06    6.34 
  -6  -4  -2  206.48    7.37 
  -7  -4  -2   87.73    4.77 
   7  -4   2   84.83    4.17 
   7   4   2   88.74    4.70 
  -8  -4  -2   90.09    5.02 
   8  -4   2   93.99    4.68 
   8   4   2   78.51    4.77 
   9  -4   2   11.02    2.17 
   9   4   2   14.30    2.65 
  10  -4   2    4.81    1.77 
  10   4   2    2.46    1.54 
  11  -5  -2   48.78    4.56 
 -11  -5   2   36.75    4.30 
  10  -5  -2   50.52    3.67 
 -10  -5   2   53.84    4.85 
   9  -5  -2   83.86    4.38 
  -9  -5   2   66.29    4.39 
  -8  -5   2  102.07    5.22 
   8  -5  -2  111.88    4.89 
  -7  -5   2   18.82    2.43 
   7  -5  -2   20.01    2.27 
   7   5  -2   13.90    1.85 
  -6  -5   2   48.21    3.00 
   6  -5  -2   41.43    2.51 
   6   5  -2   47.08    2.58 
   5  -5  -2    0.71    0.59 
  -5  -5   2    0.94    0.69 
   5   5  -2    0.38    0.49 
  -5   5   2    0.94    0.56 
  -4  -5   2   -0.05    0.50 
   4  -5  -2    0.36    0.50 
   4   5  -2    0.30    0.39 
  -4   5   2    0.37    0.46 
  -3  -5   2   16.04    1.59 
  -3   5   2   17.27    1.30 
  -2  -5   2   65.74    2.52 
  -2  -5   2   66.05    2.40 
  -2   5   2   69.40    2.67 
  -1  -5   2  128.30    3.45 
  -1  -5   2  133.99    3.46 
  -1   5   2  127.88    4.14 
   0  -5  -2   94.21    3.56 
   0  -5   2   92.84    2.35 
   0   5   2   98.89    3.50 
   1  -5   2  135.76    3.11 
   1  -5   2  134.47    3.01 
  -1  -5  -2  122.43    4.55 
   1   5   2  135.79    4.54 
   2  -5   2  179.93    4.20 
   2  -5   2  175.72    4.23 
  -2  -5  -2  170.15    5.85 
   2   5   2  174.04    5.66 
  -3  -5  -2   87.36    4.03 
   3  -5   2   86.13    2.68 
   3  -5   2   85.15    2.77 
   3   5   2   85.23    3.78 
  -4  -5  -2   17.88    2.26 
   4  -5   2   20.85    1.48 
   4   5   2   21.51    2.30 
   5  -5   2    6.58    1.16 
  -5  -5  -2    5.49    1.47 
   5   5   2    7.00    1.56 
  -6  -5  -2    2.68    1.30 
   6  -5   2    1.76    0.90 
   6   5   2    2.91    1.22 
   7  -5   2   16.96    2.18 
  -7  -5  -2   15.20    2.51 
   7   5   2   17.77    2.58 
  -8  -5  -2   16.87    2.78 
   8  -5   2   19.58    2.57 
   8   5   2   18.45    2.76 
  -9  -5  -2   34.15    3.92 
   9  -5   2   40.30    3.85 
   9   5   2   41.10    4.21 
  10  -5   2   51.74    4.65 
 -11  -6   2    5.05    2.17 
  11  -6  -2    6.09    1.81 
  10  -6  -2    0.27    1.02 
 -10  -6   2    0.35    1.35 
  -9  -6   2   -0.02    1.07 
   9  -6  -2    0.02    0.92 
  -8  -6   2   27.85    3.20 
   8  -6  -2   29.60    2.97 
  -7  -6   2   74.37    4.17 
   7  -6  -2   65.66    3.54 
   6  -6  -2   44.11    2.67 
  -6  -6   2   43.93    3.10 
   5  -6  -2   79.17    3.40 
  -5  -6   2   72.65    3.75 
  -4  -6   2   98.79    4.12 
  -4   6   2  100.80    3.50 
  -3  -6   2  160.46    5.13 
  -3   6   2  152.61    4.66 
  -2  -6   2   93.63    3.20 
  -2  -6   2   87.77    3.25 
  -2   6   2   87.22    3.25 
  -1  -6   2    8.39    0.92 
  -1  -6   2    8.57    0.96 
  -1   6   2    8.72    1.17 
   0  -6  -2    9.65    1.43 
   0  -6   2   10.65    0.93 
   0   6   2   10.21    1.35 
  -1  -6  -2    3.64    1.04 
   1  -6   2    5.98    0.67 
   1  -6   2    5.77    0.58 
   1   6   2    6.05    1.11 
  -2  -6  -2    6.59    1.35 
   2  -6   2    8.96    0.80 
   2  -6   2    7.77    0.78 
   2   6   2    9.08    1.41 
   3  -6   2   63.04    2.29 
  -3  -6  -2   60.88    3.58 
   3  -6   2   64.71    2.29 
   3   6   2   58.85    3.14 
  -4  -6  -2   78.85    4.17 
   4  -6   2   70.10    2.81 
   4   6   2   69.92    3.66 
   5  -6   2  177.63    5.66 
  -5  -6  -2  197.46    7.37 
   5   6   2  185.49    6.85 
   6  -6   2  176.78    5.99 
  -6  -6  -2  173.31    7.32 
   6   6   2  183.49    7.05 
  -7  -6  -2   37.11    3.96 
   7  -6   2   39.44    2.82 
   7   6   2   44.12    4.11 
  -8  -6  -2   39.22    4.20 
   8  -6   2   37.35    3.43 
   8   6   2   34.09    3.76 
   9  -6   2   10.67    2.13 
  -9  -6  -2   11.45    2.60 
 -10  -7   2   31.58    3.96 
  10  -7  -2   30.76    3.43 
  -9  -7   2   42.52    4.41 
   9  -7  -2   44.37    3.30 
   8  -7  -2   87.55    4.46 
  -8  -7   2   90.24    5.17 
   7  -7  -2   38.54    2.77 
  -7  -7   2   39.24    3.76 
   6  -7  -2   26.49    2.49 
  -6  -7   2   23.14    2.78 
  -5  -7   2   -0.47    0.68 
  -4  -7   2    0.88    0.80 
  -3  -7   2   18.31    1.98 
  -2  -7   2   31.52    1.99 
  -1  -7   2   90.00    3.21 
  -1  -7   2   94.61    3.31 
   1  -7  -2   95.52    3.86 
  -1   7   2   92.06    3.47 
   0  -7  -2  139.51    5.16 
   0  -7   2  152.43    4.29 
   0   7   2  150.98    4.90 
  -1  -7  -2  103.14    4.40 
   1  -7   2   99.03    3.11 
   1   7   2   97.32    3.90 
  -2  -7  -2   99.12    4.46 
   2  -7   2   90.59    2.82 
   2   7   2   92.09    3.92 
   3  -7   2   29.51    1.59 
  -3  -7  -2   26.83    2.89 
   3   7   2   32.53    2.43 
   4  -7   2   16.45    1.55 
  -4  -7  -2   16.13    2.45 
   4   7   2   20.80    2.45 
  -5  -7  -2   22.55    3.02 
   5  -7   2   26.03    2.19 
   5   7   2   26.35    2.93 
   6  -7   2    3.26    1.02 
  -6  -7  -2    4.54    1.77 
  -7  -7  -2   16.76    2.88 
   7  -7   2   17.18    2.20 
   8  -7   2   11.62    2.06 
  -8  -7  -2   18.81    3.19 
  -9  -7  -2   31.91    4.12 
   9  -7   2   32.31    3.47 
  -9  -8   2    0.69    1.33 
   9  -8  -2   -0.78    0.83 
   8  -8  -2   16.01    2.34 
  -8  -8   2   16.66    2.87 
  -7  -8   2   24.53    3.11 
   7  -8  -2   26.97    2.80 
  -6  -8   2   39.32    3.70 
  -5  -8   2  141.53    5.90 
  -4  -8   2   62.95    3.55 
  -3  -8   2   63.01    3.35 
  -2  -8   2   64.94    3.10 
  -1  -8   2    9.58    1.31 
   1  -8  -2    6.63    1.33 
   0  -8  -2    7.98    1.49 
   0  -8   2    9.45    1.14 
  -1  -8  -2   -0.32    0.69 
  -2  -8  -2    9.48    1.78 
  -3  -8  -2   81.24    4.56 
   3  -8   2   78.97    2.91 
  -4  -8  -2   65.16    4.25 
   4  -8   2   64.85    2.79 
   5  -8   2   64.63    3.01 
  -5  -8  -2   51.20    4.64 
  -6  -8  -2   81.60    5.18 
   6  -8   2   92.56    4.00 
   7  -8   2   51.78    3.26 
  -7  -8  -2   65.09    4.78 
  -8  -8  -2   37.95    4.60 
   8  -8   2   42.52    3.17 
  -9  -9   2   33.60    4.10 
   9  -9  -2   40.37    3.88 
  -8  -9   2   48.38    4.62 
  -7  -9   2   13.12    2.47 
  -6  -9   2   17.27    2.64 
  -5  -9   2    0.23    0.96 
  -4  -9   2    0.45    0.88 
  -3  -9   2   10.72    1.74 
  -2  -9   2   21.23    2.22 
   1  -9  -2   54.07    3.25 
  -1  -9   2   57.90    2.93 
   0  -9  -2   66.79    3.75 
   0  -9   2   69.63    2.98 
  -1  -9  -2   62.14    3.77 
  -2  -9  -2  107.31    5.23 
  -3  -9  -2   52.87    3.85 
   4  -9   2    9.83    1.34 
  -4  -9  -2    7.54    1.96 
  -5  -9  -2    8.49    2.17 
   5  -9   2    8.80    1.44 
   6  -9   2    1.46    0.91 
  -6  -9  -2    3.15    1.75 
   7  -9   2   14.50    2.12 
  -7  -9  -2   13.90    2.93 
  -8 -10   2    5.31    1.89 
  -7 -10   2   21.99    3.18 
  -6 -10   2   28.22    3.40 
  -5 -10   2   64.45    4.18 
  -4 -10   2   74.67    4.28 
  -3 -10   2   68.82    3.89 
   2 -10  -2   23.25    2.61 
  -2 -10   2   22.10    2.44 
   1 -10  -2    4.04    1.40 
  -1 -10   2    5.15    1.26 
   0 -10   2    3.64    1.03 
   0 -10  -2    1.85    1.18 
  -1 -10  -2    2.77    1.30 
  -2 -10  -2    9.04    1.98 
  -3 -10  -2   37.22    3.91 
  -4 -10  -2   22.95    3.18 
   5 -10   2   54.51    3.01 
  -5 -10  -2   58.62    5.36 
  -6 -10  -2   69.75    5.22 
   6 -10   2   71.30    3.65 
  -6 -11   2   16.06    2.74 
  -5 -11   2    0.62    1.22 
  -4 -11   2    0.78    1.15 
  -3 -11   2   14.02    2.30 
   3 -11  -2    8.50    1.80 
   2 -11  -2   21.83    2.68 
  -2 -11   2   19.42    2.46 
   1 -11  -2   22.76    2.78 
  -1 -11   2   21.18    2.43 
   0 -11  -2   34.69    3.57 
   0 -11   2   40.47    2.70 
   1 -11   2   71.07    3.43 
  -1 -11  -2   69.96    4.38 
  -2 -11  -2   60.40    4.28 
  -3 -11  -2   22.15    3.20 
  -4 -11  -2   10.17    2.41 
  -5 -11  -2    3.37    1.89 
  -4 -12   2   21.15    2.96 
  -3 -12   2   22.23    2.88 
   3 -12  -2   20.22    2.69 
   2 -12  -2   23.54    2.95 
  -2 -12   2   28.39    3.14 
  -1 -12   2   15.11    2.22 
   1 -12  -2   13.01    2.31 
   0 -12  -2   -1.19    1.01 
   0 -12   2    0.28    1.01 
   1 -12   2    1.87    1.08 
  -1 -12  -2    3.73    1.66 
   2 -12   2    2.31    1.11 
  -2 -12  -2    4.24    1.71 
  -3 -12  -2   36.75    4.21 
  11   0  -3   67.73    4.36 
 -10   0   3   71.47    4.07 
  10   0  -3   63.80    3.97 
   9   0  -3   38.64    3.43 
  -9   0   3   39.01    2.82 
  -8   0   3   47.96    2.96 
   8   0  -3   50.61    3.06 
   7   0  -3    6.22    1.26 
  -7   0   3    6.93    1.33 
   6   0  -3   17.75    1.75 
  -6   0   3   16.20    1.70 
  -5   0   3   37.30    2.05 
   5   0  -3   40.60    2.02 
  -4   0   3   30.76    1.62 
   4   0  -3   28.71    1.52 
   3   0  -3  237.80    5.91 
  -3   0   3  246.29    6.02 
  -2   0   3 1000.00   20.91 
  -1   0   3  612.21   12.96 
   1   0  -3  603.23   12.98 
   0   0   3  134.02    3.50 
   0   0  -3  127.36    3.48 
   1   0   3   24.23    1.34 
  -1   0  -3   25.08    1.25 
   2   0   3   95.34    3.25 
  -2   0  -3   87.07    2.88 
   3   0   3   33.40    2.03 
  -3   0  -3   36.02    1.79 
  -4   0  -3    3.20    0.81 
   4   0   3    2.34    0.83 
   5   0   3   14.02    1.84 
  -5   0  -3   10.47    1.40 
   6   0   3   58.49    3.48 
   7   0   3   77.28    4.28 
   8   0   3   56.03    3.83 
   9   0   3   21.06    3.07 
  10   0   3   78.73    5.22 
  12  -1  -3    2.64    1.52 
  12   1  -3    1.56    1.40 
  11  -1  -3    3.78    1.55 
 -11  -1   3    2.41    1.38 
  11   1  -3    5.75    1.80 
  10  -1  -3   22.39    2.81 
 -10  -1   3   29.28    3.07 
 -10   1   3   27.26    2.88 
  10   1  -3   26.13    3.02 
  -9  -1   3   41.58    3.03 
   9  -1  -3   42.82    3.06 
   9   1  -3   41.20    2.95 
  -9   1   3   43.01    2.95 
  -8  -1   3  105.87    4.60 
   8  -1  -3  108.94    4.60 
   8   1  -3  110.78    4.58 
  -8   1   3   96.62    4.28 
  -7  -1   3  166.00    5.75 
   7  -1  -3  166.27    5.67 
   7   1  -3  172.79    5.71 
  -7   1   3  169.95    5.64 
   6  -1  -3  202.99    6.08 
  -6  -1   3  206.40    6.18 
  -6   1   3  194.67    6.00 
   6   1  -3  196.50    5.97 
  -5  -1   3  134.12    4.34 
   5  -1  -3  126.40    4.19 
   5   1  -3  132.18    4.17 
  -5   1   3  133.68    4.28 
   4  -1  -3  108.46    3.44 
  -4  -1   3  104.14    3.43 
   4   1  -3  105.10    3.29 
  -4   1   3  105.11    3.43 
  -3  -1   3   49.16    1.91 
   3   1  -3   47.75    1.78 
  -3   1   3   49.04    1.98 
  -2  -1   3    3.94    0.54 
  -2   1   3    2.60    0.52 
  -1  -1   3    5.24    0.53 
   1  -1  -3    4.67    0.68 
  -1   1   3    3.85    0.61 
   0  -1  -3   45.91    1.93 
   0  -1   3   47.19    1.58 
   0  -1   3   47.05    1.47 
   0   1   3   49.31    1.93 
   1  -1   3   69.15    2.19 
  -1  -1  -3   62.17    2.48 
   1  -1   3   68.31    2.16 
   1   1   3   67.81    2.59 
  -2  -1  -3   65.40    2.63 
   2  -1   3   64.02    2.40 
   2   1   3   63.33    2.71 
  -3  -1  -3  234.44    6.67 
   3  -1   3  239.14    6.63 
  -3   1  -3  248.55    5.97 
   3   1   3  249.90    7.09 
   4  -1   3  134.90    4.75 
  -4  -1  -3  143.33    4.77 
   4   1   3  137.68    5.05 
  -4   1  -3  142.12    4.13 
   5  -1   3  102.85    4.26 
  -5  -1  -3  101.36    4.07 
   5   1   3  109.65    4.58 
  -5   1  -3  100.79    3.56 
   6  -1   3  112.35    4.85 
  -6  -1  -3  115.19    4.59 
   6   1   3  103.18    4.88 
   7  -1   3   22.13    2.64 
   7   1   3   22.50    2.76 
   8  -1   3    2.54    1.27 
   8   1   3    3.73    1.49 
   9  -1   3    1.38    1.31 
   9   1   3    1.37    1.18 
  10  -1   3    2.52    1.53 
  10   1   3    3.52    1.76 
  12  -2  -3   53.47    4.93 
 -11  -2   3   74.32    4.66 
  11  -2  -3   78.48    4.76 
  11   2  -3   84.44    4.82 
  10  -2  -3   35.30    3.44 
 -10  -2   3   41.00    3.74 
  10   2  -3   42.39    3.81 
  -9  -2   3   22.32    2.63 
   9  -2  -3   22.32    2.56 
   9   2  -3   17.57    2.28 
  -9   2   3   19.73    2.29 
  -8  -2   3   40.12    2.78 
   8  -2  -3   37.15    2.71 
   8   2  -3   36.40    2.61 
  -8   2   3   38.34    2.51 
  -7  -2   3    1.06    0.78 
   7  -2  -3    1.68    0.79 
   7   2  -3    1.23    0.75 
  -7   2   3    0.82    0.64 
   6  -2  -3    2.40    0.80 
  -6  -2   3    3.29    0.93 
  -6   2   3    3.35    0.87 
   6   2  -3    1.73    0.68 
  -5  -2   3   79.32    3.17 
   5  -2  -3   76.25    3.04 
  -5   2   3   74.00    3.00 
   5   2  -3   76.61    2.91 
   4  -2  -3  209.27    5.71 
  -4  -2   3  218.05    5.79 
  -4   2   3  203.87    5.70 
   4   2  -3  205.51    5.38 
  -3  -2   3  339.65    7.92 
   3   2  -3  334.68    7.55 
  -3   2   3  328.00    8.06 
  -2  -2   3  125.95    3.30 
  -2  -2   3  127.49    3.23 
  -2   2   3  124.52    3.71 
   1  -2  -3  160.06    4.44 
  -1  -2   3  159.05    3.56 
  -1   2   3  154.98    4.40 
   0  -2  -3  555.22   12.64 
   0   2   3  551.98   12.64 
   1  -2   3  143.50    3.44 
  -1  -2  -3  143.23    4.51 
   1  -2   3  148.70    3.46 
   1   2   3  144.36    4.54 
  -2  -2  -3   62.90    2.83 
   2  -2   3   68.70    2.23 
   2  -2   3   67.48    2.32 
   2   2   3   69.75    2.98 
   3  -2   3   12.85    1.33 
  -3  -2  -3   14.46    1.65 
   3   2   3   12.54    1.63 
   4  -2   3   11.76    1.45 
  -4  -2  -3   11.79    1.62 
   4   2   3   11.32    1.68 
  -5  -2  -3    6.10    1.33 
   5  -2   3    5.32    1.20 
   5   2   3    5.82    1.36 
  -6  -2  -3   33.43    2.99 
   6  -2   3   32.55    2.93 
   6   2   3   29.37    3.01 
   7  -2   3   54.51    3.47 
  -7  -2  -3   52.38    3.42 
   7   2   3   52.79    3.64 
   8  -2   3   85.16    4.72 
   8   2   3   92.94    5.14 
   9  -2   3   74.39    4.70 
   9   2   3   70.94    4.76 
  10  -2   3   41.73    4.37 
  10   2   3   41.88    4.46 
  12  -3  -3    5.60    1.92 
 -12  -3   3    0.73    1.41 
 -11  -3   3    0.90    1.25 
  11  -3  -3    1.62    1.30 
 -10  -3   3   24.21    3.08 
  10  -3  -3   30.90    3.33 
  10   3  -3   25.17    2.93 
   9  -3  -3   20.95    2.51 
  -9  -3   3   18.39    2.51 
   9   3  -3   20.58    2.53 
  -8  -3   3   93.32    4.49 
   8  -3  -3   80.10    3.97 
  -8   3   3   81.67    3.80 
   8   3  -3   81.65    3.90 
   7  -3  -3  156.99    5.51 
  -7  -3   3  147.06    5.58 
  -7   3   3  151.48    5.21 
   7   3  -3  152.48    5.29 
   6  -3  -3  150.38    5.04 
  -6  -3   3  154.00    5.33 
  -6   3   3  144.33    4.86 
   6   3  -3  143.93    4.79 
  -5  -3   3  189.87    5.78 
   5  -3  -3  174.24    5.47 
   5   3  -3  197.06    5.33 
  -5   3   3  177.39    5.39 
  -4  -3   3  138.62    4.37 
   4  -3  -3  141.01    4.37 
  -4   3   3  138.83    4.33 
   4   3  -3  137.34    3.88 
  -3  -3   3   57.74    2.24 
  -3   3   3   61.10    2.43 
  -2  -3   3    1.97    0.44 
  -2  -3   3    1.36    0.34 
  -2   3   3    1.21    0.53 
   1  -3  -3    5.74    0.87 
  -1   3   3    6.44    0.92 
   0  -3  -3   64.05    2.67 
   0   3   3   63.06    2.65 
  -1  -3  -3   76.49    3.11 
   1   3   3   72.21    3.05 
   2  -3   3  106.28    2.82 
  -2  -3  -3  105.05    4.06 
   2  -3   3  103.68    2.95 
   2   3   3  105.26    4.04 
   3  -3   3  177.83    4.67 
   3  -3   3  167.81    4.82 
  -3  -3  -3  166.83    5.76 
   3   3   3  173.59    5.85 
  -4  -3  -3  135.72    5.23 
   4  -3   3  145.49    4.58 
   4   3   3  128.96    5.20 
  -5  -3  -3   77.24    3.93 
   5  -3   3   73.51    3.42 
   5   3   3   78.08    4.01 
  -6  -3  -3   62.20    3.61 
   6  -3   3   56.90    3.26 
   6   3   3   61.74    3.78 
  -7  -3  -3   20.09    2.60 
   7  -3   3   28.16    2.87 
   7   3   3   19.01    2.62 
   8  -3   3    5.58    1.63 
   8   3   3    1.68    1.20 
   9  -3   3   -0.16    1.07 
   9   3   3    0.84    1.22 
  10  -3   3    0.48    1.23 
  10   3   3    1.53    1.61 
 -12  -4   3   29.15    3.71 
  12  -4  -3   41.23    4.37 
  11  -4  -3   74.35    4.72 
 -11  -4   3   87.59    5.32 
 -10  -4   3   63.62    4.27 
  10  -4  -3   61.26    4.03 
  -9  -4   3   17.70    2.62 
   9  -4  -3   15.06    2.23 
  -8  -4   3   20.99    2.58 
   8  -4  -3   26.35    2.69 
   8   4  -3   21.18    2.33 
   7  -4  -3    2.18    0.93 
  -7  -4   3    1.00    0.87 
  -7   4   3    0.54    0.68 
   7   4  -3    0.72    0.72 
   6  -4  -3   13.20    1.64 
  -6  -4   3   11.06    1.66 
  -6   4   3    9.99    1.39 
   6   4  -3   14.52    1.59 
  -5  -4   3   86.72    3.68 
   5  -4  -3   92.36    3.59 
   5   4  -3   92.50    3.21 
  -5   4   3   91.95    3.45 
  -4  -4   3   57.05    2.58 
   4   4  -3   50.94    1.96 
  -4   4   3   53.66    2.43 
  -3  -4   3  184.02    5.14 
  -3   4   3  188.23    5.38 
  -2  -4   3  273.62    6.26 
  -2  -4   3  274.67    6.47 
  -2   4   3  275.23    7.22 
   1  -4  -3  190.16    5.57 
  -1   4   3  196.46    5.64 
   0  -4  -3  259.98    7.14 
   0   4   3  252.26    7.10 
  -1  -4  -3   64.04    3.01 
   1   4   3   62.82    2.93 
   2  -4   3   97.89    2.70 
  -2  -4  -3   98.85    4.13 
   2  -4   3  102.98    2.59 
   2   4   3   99.48    4.06 
   3  -4   3   13.35    1.21 
   3  -4   3   14.65    1.16 
  -3  -4  -3   14.76    1.92 
   3   4   3   16.65    2.03 
   4  -4   3   16.12    1.60 
  -4  -4  -3   13.67    1.96 
   4   4   3   12.69    1.87 
   5  -4   3    0.58    0.66 
  -5  -4  -3    0.65    0.93 
   5   4   3    0.69    0.89 
   6  -4   3   36.80    2.62 
  -6  -4  -3   36.83    3.55 
   6   4   3   34.77    3.42 
  -7  -4  -3   93.51    5.02 
   7  -4   3   84.33    4.34 
   7   4   3   89.55    5.00 
   8  -4   3   90.92    4.72 
   8   4   3   72.77    4.75 
   9  -4   3   48.96    4.37 
   9   4   3   51.34    4.89 
 -11  -5   3    0.80    1.29 
  11  -5  -3    0.50    1.03 
  10  -5  -3   22.54    2.85 
 -10  -5   3   18.73    3.00 
  -9  -5   3   24.81    3.13 
   9  -5  -3   24.55    2.81 
   8  -5  -3   74.54    3.98 
  -8  -5   3   82.78    4.50 
   7  -5  -3  118.09    4.83 
  -7  -5   3  126.25    5.31 
   6  -5  -3  128.32    4.80 
  -6  -5   3  127.28    5.07 
  -6   5   3  130.53    4.55 
   6   5  -3  126.11    4.35 
   5  -5  -3  122.05    4.41 
  -5  -5   3  118.98    4.57 
   5   5  -3  118.57    3.76 
  -5   5   3  116.91    4.17 
  -4  -5   3   86.02    3.48 
  -4   5   3   84.99    3.32 
  -3  -5   3   36.25    1.95 
  -3  -5   3   38.72    1.83 
  -3   5   3   38.16    2.09 
  -2  -5   3    0.82    0.37 
  -2  -5   3    0.49    0.42 
  -2   5   3    0.74    0.53 
  -1  -5   3    4.64    0.46 
  -1  -5   3    3.84    0.40 
   1  -5  -3    3.17    0.84 
  -1   5   3    5.58    1.05 
   0  -5  -3   30.57    2.11 
   0   5   3   33.58    2.10 
  -1  -5  -3   35.74    2.35 
   1   5   3   34.83    2.28 
   2  -5   3   80.01    2.09 
   2  -5   3   75.61    2.16 
  -2  -5  -3   76.04    3.73 
   2   5   3   71.96    3.55 
   3  -5   3  162.41    4.39 
  -3  -5  -3  153.18    5.90 
   3  -5   3  161.91    4.20 
   3   5   3  147.07    5.67 
  -4  -5  -3  119.23    5.30 
   4  -5   3  122.61    4.05 
   4   5   3  125.98    5.25 
   5  -5   3   74.31    3.36 
  -5  -5  -3   81.45    4.41 
   5   5   3   76.32    4.15 
   6  -5   3   65.17    3.46 
  -6  -5  -3   68.01    4.38 
   6   5   3   67.18    4.14 
  -7  -5  -3   21.16    2.94 
   7  -5   3   16.91    2.27 
   7   5   3   19.20    2.92 
  -8  -5  -3    2.69    1.60 
   8  -5   3    1.28    1.14 
   8   5   3    3.22    1.50 
   9  -5   3    0.97    1.17 
   9   5   3   -0.33    1.13 
  11  -6  -3   43.67    4.30 
 -11  -6   3   41.50    4.53 
  10  -6  -3   27.20    3.18 
 -10  -6   3   30.39    3.78 
   9  -6  -3   20.23    2.65 
  -9  -6   3   19.16    2.82 
   8  -6  -3   30.04    3.03 
  -8  -6   3   38.97    3.72 
   7  -6  -3    0.11    0.73 
  -7  -6   3    0.94    0.93 
   6  -6  -3    2.22    0.92 
  -6  -6   3    3.14    1.10 
  -5  -6   3   27.10    2.55 
  -4  -6   3   80.94    3.56 
  -4   6   3   91.60    3.52 
  -3  -6   3  205.06    5.54 
  -3  -6   3  184.75    5.58 
  -3   6   3  180.93    5.70 
  -2  -6   3  163.97    4.68 
  -2  -6   3  167.83    4.54 
  -2   6   3  163.83    5.28 
  -1  -6   3  162.03    4.07 
   1  -6  -3  157.86    5.41 
  -1  -6   3  166.20    4.14 
  -1   6   3  165.29    5.33 
   0  -6  -3  235.01    7.21 
   0   6   3  234.78    6.98 
  -1  -6  -3   55.12    3.18 
   1   6   3   57.15    3.01 
  -2  -6  -3   31.89    3.00 
   2  -6   3   30.73    1.18 
   2  -6   3   26.87    1.18 
   2   6   3   27.74    2.57 
  -3  -6  -3   10.06    1.92 
   3  -6   3    8.09    0.95 
   3   6   3   11.20    1.81 
  -4  -6  -3    3.20    1.35 
   4  -6   3    3.92    0.85 
   4   6   3    3.26    1.17 
   5  -6   3   11.00    1.48 
  -5  -6  -3    5.10    1.62 
   5   6   3    8.91    1.85 
  -6  -6  -3   30.18    3.55 
   6  -6   3   31.47    2.72 
   6   6   3   33.27    3.62 
  -7  -6  -3   28.11    3.52 
   7  -6   3   29.55    2.91 
   7   6   3   28.10    3.42 
   8  -6   3   46.32    3.40 
  -8  -6  -3   55.53    5.05 
   8   6   3   42.54    4.33 
   9  -6   3   44.93    4.16 
  10  -7  -3   12.70    2.31 
 -10  -7   3   15.57    2.86 
  -9  -7   3   28.18    3.55 
   9  -7  -3   20.32    2.70 
   8  -7  -3   81.71    4.29 
  -8  -7   3   69.82    4.40 
   7  -7  -3   92.18    4.41 
  -7  -7   3   98.91    4.97 
  -6  -7   3   89.98    4.50 
  -5  -7   3   61.15    3.44 
  -4  -7   3   53.70    3.00 
  -3  -7   3   31.74    2.10 
  -2  -7   3    0.23    0.52 
  -2   7   3    0.91    0.67 
  -1  -7   3    0.24    0.42 
   1  -7  -3   -0.02    0.64 
  -1  -7   3    0.13    0.42 
  -1   7   3   -0.65    0.50 
   0  -7  -3   26.28    2.55 
   0  -7   3   27.49    1.32 
   0   7   3   25.95    2.35 
  -1  -7  -3   45.41    3.07 
   1  -7   3   46.36    1.52 
   1  -7   3   47.28    1.69 
   1   7   3   46.78    2.85 
  -2  -7  -3   32.11    3.09 
   2  -7   3   28.52    1.29 
   2   7   3   28.63    2.67 
  -3  -7  -3  117.79    5.46 
   3  -7   3  113.90    3.46 
   3   7   3  113.92    4.94 
   4  -7   3   92.90    3.38 
  -4  -7  -3   97.80    5.10 
   4   7   3   99.51    4.77 
  -5  -7  -3   71.52    4.54 
   5  -7   3   69.71    3.16 
   5   7   3   69.96    4.19 
  -6  -7  -3   66.08    4.57 
   6  -7   3   69.36    3.45 
  -7  -7  -3    8.77    2.33 
   7  -7   3   13.16    2.03 
  -8  -7  -3    3.90    1.88 
   8  -7   3    2.98    1.29 
 -10  -8   3   31.28    3.96 
  10  -8  -3   25.15    3.20 
  -9  -8   3   14.65    2.75 
   9  -8  -3   14.25    2.41 
  -8  -8   3   17.51    2.74 
  -7  -8   3    0.89    1.00 
  -6  -8   3    6.82    1.67 
  -5  -8   3   21.17    2.47 
  -4  -8   3   27.54    2.63 
  -3  -8   3   88.57    3.81 
   2  -8  -3  185.34    6.45 
  -2  -8   3  196.57    5.85 
   1  -8  -3  141.65    5.45 
  -1  -8   3  136.79    4.28 
   0  -8  -3   73.32    3.93 
  -1  -8  -3   36.40    3.33 
   2  -8   3   38.70    1.66 
  -2  -8  -3   34.78    3.48 
  -3  -8  -3   12.91    2.34 
   3  -8   3    9.50    1.09 
   4  -8   3    2.09    0.75 
  -4  -8  -3    0.63    1.17 
  -5  -8  -3    3.24    1.58 
   5  -8   3    5.97    1.16 
   6  -8   3   25.04    2.44 
  -6  -8  -3   26.38    3.60 
  -7  -8  -3   38.51    4.51 
   7  -8   3   43.50    3.03 
  -9  -9   3   13.43    2.67 
  -8  -9   3   19.38    2.99 
  -7  -9   3   54.05    3.97 
  -6  -9   3  100.83    5.19 
  -5  -9   3   76.00    4.19 
  -4  -9   3   43.91    3.00 
  -3  -9   3   14.90    1.94 
   2  -9  -3    0.05    0.80 
  -2  -9   3    0.24    0.72 
  -1  -9   3   -0.43    0.53 
   1  -9  -3   -0.74    0.64 
   0  -9  -3   11.08    1.94 
   0  -9   3   14.33    1.41 
  -1  -9  -3   31.13    3.28 
  -2  -9  -3   44.86    4.06 
   3  -9   3   92.66    3.27 
  -3  -9  -3   93.55    5.32 
  -4  -9  -3   38.59    4.12 
   4  -9   3   34.82    2.03 
  -5  -9  -3   30.61    3.83 
   5  -9   3   28.68    2.09 
  -6  -9  -3   52.71    5.21 
   6  -9   3   45.48    2.84 
  -8 -10   3    8.53    2.23 
  -7 -10   3   -0.80    0.99 
  -6 -10   3    0.74    1.17 
  -5 -10   3   22.38    2.80 
  -4 -10   3   47.21    3.34 
  -3 -10   3   74.17    3.89 
  -2 -10   3   43.86    2.78 
   2 -10  -3   39.21    2.99 
  -1 -10   3   42.59    2.57 
   1 -10  -3   47.44    3.40 
   0 -10  -3  105.84    5.31 
   0 -10   3  102.37    3.84 
  -1 -10  -3   42.03    3.99 
  -2 -10  -3   27.37    3.36 
  -3 -10  -3    3.02    1.57 
  -4 -10  -3    1.36    1.48 
  -5 -10  -3    1.45    1.56 
   5 -10   3    1.47    0.96 
  -6 -11   3   35.75    3.80 
  -5 -11   3   31.30    3.44 
  -4 -11   3   34.96    3.47 
  -3 -11   3   13.40    2.11 
   3 -11  -3   11.47    2.06 
   2 -11  -3    0.27    1.02 
  -2 -11   3    1.42    1.02 
  -1 -11   3    3.04    1.10 
   1 -11  -3    3.14    1.44 
   0 -11   3   11.68    1.66 
   0 -11  -3   15.51    2.63 
  -1 -11  -3   17.74    2.83 
   1 -11   3   19.22    1.92 
  -2 -11  -3   18.12    2.97 
  -3 -11  -3   46.99    4.67 
  -4 -11  -3   43.86    4.62 
   4 -12  -3   13.76    2.36 
  -4 -12   3   14.77    2.49 
  -3 -12   3   41.88    3.76 
   3 -12  -3   36.69    3.73 
   2 -12  -3   63.04    4.23 
  -2 -12   3   57.92    3.67 
  -1 -12   3   49.16    3.20 
   1 -12  -3   47.27    4.42 
   0 -12  -3   43.90    4.28 
   0 -12   3   42.50    2.91 
   1 -12   3   12.42    1.78 
  -1 -12  -3    9.13    2.30 
  -2 -12  -3   17.31    3.01 
   2 -12   3   12.87    1.77 
  12   0  -4    9.23    2.10 
 -11   0   4   30.62    3.32 
  11   0  -4   34.75    3.60 
 -10   0   4   79.92    4.29 
   9   0  -4   92.94    4.44 
  -9   0   4   95.70    4.48 
  -8   0   4  108.54    4.65 
   8   0  -4  125.15    4.84 
   7   0  -4  186.16    5.97 
  -7   0   4  183.36    6.07 
  -6   0   4   96.08    3.77 
   6   0  -4   97.81    3.68 
   5   0  -4   15.61    1.49 
  -5   0   4   11.63    1.34 
  -4   0   4    0.79    0.49 
  -3   0   4    1.46    0.48 
  -2   0   4  151.02    4.13 
   1   0  -4  115.36    3.32 
  -1   0   4  112.74    3.30 
   0   0   4   67.49    2.37 
   0   0  -4   62.75    2.27 
  -1   0  -4  166.70    4.60 
   1   0   4  176.74    4.95 
   2   0   4  218.75    6.30 
  -2   0  -4  224.82    5.85 
  -3   0  -4  126.18    4.02 
   3   0   4  129.72    4.62 
   4   0   4   69.28    3.43 
  -4   0  -4   64.97    2.82 
   5   0   4   36.41    2.61 
   6   0   4    2.52    1.10 
   7   0   4   -0.67    0.78 
   8   0   4    2.46    1.42 
   9   0   4   29.76    3.66 
  12  -1  -4   21.08    3.08 
  12   1  -4   20.54    2.92 
 -11  -1   4   35.28    3.66 
  11  -1  -4   35.35    3.59 
  11   1  -4   25.68    3.09 
  10  -1  -4    9.44    1.89 
 -10  -1   4   11.07    2.05 
  10   1  -4   12.21    2.06 
 -10   1   4    8.67    1.74 
   9  -1  -4   -0.30    0.75 
  -9  -1   4    0.21    0.83 
   9   1  -4    1.00    0.90 
  -9   1   4    0.06    0.79 
  -8  -1   4    7.18    1.42 
   8  -1  -4    9.42    1.63 
   8   1  -4    5.00    1.21 
  -8   1   4    6.61    1.37 
   7  -1  -4    9.19    1.43 
  -7  -1   4   11.74    1.62 
  -7   1   4   14.08    1.74 
   7   1  -4   10.26    1.44 
   6  -1  -4   44.94    2.39 
  -6  -1   4   40.94    2.39 
  -6   1   4   46.93    2.46 
   6   1  -4   40.76    2.21 
  -5  -1   4  184.24    5.47 
   5  -1  -4  186.11    5.41 
  -5   1   4  184.43    5.46 
   5   1  -4  175.87    5.15 
  -4  -1   4  108.81    3.60 
   4   1  -4  113.81    3.45 
  -4   1   4  108.27    3.66 
  -3  -1   4  467.54   10.72 
  -3   1   4  476.52   10.97 
  -2  -1   4  271.15    6.29 
  -2   1   4  253.49    6.57 
   2   1  -4  263.45    6.10 
  -1  -1   4   67.53    2.21 
  -1  -1   4   65.26    2.09 
   1  -1  -4   66.48    2.48 
  -1   1   4   68.13    2.48 
   0  -1  -4   73.67    2.76 
   0  -1   4   77.18    2.36 
   0  -1   4   77.45    2.53 
   0   1   4   76.16    2.80 
  -1  -1  -4    0.04    0.44 
   1  -1   4    0.07    0.34 
   1  -1   4    0.21    0.36 
   1   1   4    0.50    0.48 
  -2  -1  -4    0.57    0.54 
   2  -1   4    1.16    0.56 
   2   1   4    0.73    0.53 
   3  -1   4   21.25    1.93 
  -3  -1  -4   21.56    1.93 
   3   1   4   20.29    2.11 
   4  -1   4   67.36    3.25 
  -4  -1  -4   64.50    3.02 
   4   1   4   52.39    3.11 
  -5  -1  -4   78.37    3.61 
   5  -1   4   70.45    3.69 
   5   1   4   85.16    4.17 
   6  -1   4   52.60    3.39 
   6   1   4   53.74    3.48 
   7  -1   4   52.99    3.64 
   7   1   4   50.26    3.69 
   8  -1   4   52.68    3.90 
   8   1   4   56.69    4.10 
   9  -1   4   23.93    3.30 
   9   1   4   20.14    3.17 
  12  -2  -4   10.26    2.38 
 -12  -2   4   12.36    2.49 
  11  -2  -4   20.28    2.82 
 -11  -2   4   18.60    2.71 
  11   2  -4   28.25    3.32 
  10  -2  -4   59.68    3.82 
 -10  -2   4   59.46    3.89 
 -10   2   4   64.57    3.77 
  10   2  -4   63.46    3.80 
  -9  -2   4  124.14    5.41 
   9  -2  -4  121.34    5.28 
   9   2  -4  119.07    5.07 
  -9   2   4  127.21    5.18 
  -8  -2   4   99.61    4.57 
   8  -2  -4  108.93    4.61 
   8   2  -4  107.69    4.43 
  -8   2   4  113.61    4.56 
  -7  -2   4   87.14    3.96 
   7  -2  -4   96.29    3.99 
  -7   2   4   92.84    3.91 
   7   2  -4   97.87    3.86 
   6  -2  -4  103.95    3.98 
  -6  -2   4  109.06    4.14 
  -6   2   4  101.53    3.98 
   6   2  -4  103.74    3.74 
  -5  -2   4   33.47    1.97 
   5  -2  -4   28.81    1.84 
   5   2  -4   32.53    1.74 
  -5   2   4   31.03    1.90 
  -4  -2   4    0.85    0.48 
  -4   2   4    0.22    0.44 
   4   2  -4    0.96    0.44 
  -3  -2   4    2.09    0.52 
  -3   2   4    2.17    0.63 
  -2  -2   4   48.77    1.70 
  -2   2   4   44.86    2.07 
  -1  -2   4  116.92    3.10 
  -1  -2   4  116.90    2.99 
   1  -2  -4  123.49    3.90 
  -1   2   4  122.79    3.88 
   0  -2  -4  310.92    8.13 
   0  -2   4  319.10    6.93 
   0  -2   4  317.66    7.11 
   1  -2   4  228.18    5.43 
  -1  -2  -4  220.28    6.43 
   1  -2   4  228.68    5.48 
   1   2   4  214.53    6.46 
  -2  -2  -4   74.15    3.24 
   2  -2   4   75.36    2.64 
   2  -2   4   68.92    2.65 
   2   2   4   71.64    3.29 
  -3  -2  -4  153.91    5.31 
   3  -2   4  149.37    4.80 
   3   2   4  157.75    5.57 
   4  -2   4   94.56    3.85 
  -4  -2  -4   93.71    4.12 
   4   2   4   96.01    4.41 
   5  -2   4   15.31    1.94 
  -5  -2  -4   21.56    2.36 
   5   2   4   22.58    2.66 
   6  -2   4    1.96    1.01 
   6   2   4    1.72    1.16 
   7  -2   4    0.67    0.95 
   7   2   4    0.42    0.96 
   8  -2   4    9.30    2.02 
   8   2   4    6.06    1.85 
   9  -2   4   41.62    4.22 
   9   2   4   24.90    3.43 
 -12  -3   4   23.54    3.38 
  12  -3  -4   19.58    3.07 
 -11  -3   4   24.17    3.23 
  11  -3  -4   27.59    3.25 
  10  -3  -4    6.74    1.73 
 -10  -3   4    8.34    1.90 
  -9  -3   4    0.31    0.88 
   9  -3  -4    0.99    0.94 
  -9   3   4    0.77    0.83 
   9   3  -4   -0.50    0.67 
   8  -3  -4    0.82    0.81 
  -8  -3   4    1.14    0.88 
   8   3  -4    0.59    0.81 
  -8   3   4    1.05    0.83 
  -7  -3   4   19.95    2.27 
   7  -3  -4   21.73    2.22 
   7   3  -4   18.41    1.88 
  -7   3   4   18.21    2.03 
  -6  -3   4   83.48    3.70 
   6  -3  -4   86.23    3.66 
   6   3  -4   89.90    3.38 
  -6   3   4   93.45    3.71 
  -5  -3   4  233.00    6.69 
   5  -3  -4  222.44    6.66 
   5   3  -4  239.67    6.13 
  -5   3   4  236.44    6.69 
  -4  -3   4  114.83    3.83 
  -4   3   4  121.04    4.06 
  -3  -3   4  192.90    4.84 
  -3  -3   4  180.47    4.91 
  -3   3   4  181.49    5.38 
  -2  -3   4  140.26    3.63 
  -2   3   4  141.80    4.48 
  -1  -3   4  103.28    2.45 
   1  -3  -4  101.59    3.64 
  -1  -3   4  101.18    2.49 
  -1   3   4   97.59    3.62 
   0  -3  -4   53.98    2.62 
   0   3   4   53.23    2.60 
   1  -3   4    0.56    0.27 
  -1  -3  -4   -0.05    0.54 
   1  -3   4    0.58    0.28 
   1   3   4    0.82    0.61 
   2  -3   4    2.62    0.54 
   2  -3   4    2.92    0.60 
  -2  -3  -4    2.14    0.86 
   2   3   4    1.74    0.81 
  -3  -3  -4   15.13    1.96 
   3  -3   4   16.95    1.48 
   3  -3   4   19.05    1.66 
   3   3   4   16.70    2.12 
  -4  -3  -4   19.66    2.29 
   4  -3   4   16.96    1.77 
   4   3   4   20.61    2.47 
  -5  -3  -4   54.63    3.47 
   5  -3   4   58.54    3.13 
   5   3   4   57.88    3.60 
   6  -3   4   56.52    3.37 
  -6  -3  -4   55.37    3.63 
   6   3   4   60.51    3.87 
   7  -3   4   78.30    4.33 
   7   3   4   74.18    4.61 
   8  -3   4   76.12    4.52 
   8   3   4   76.28    4.92 
   9  -3   4    8.52    2.18 
   9   3   4   13.64    2.68 
  12  -4  -4   10.84    2.37 
 -12  -4   4    8.06    2.15 
  11  -4  -4   40.24    3.94 
 -11  -4   4   48.01    4.61 
  10  -4  -4   64.46    4.10 
 -10  -4   4   71.55    4.49 
  -9  -4   4   64.87    4.10 
   9  -4  -4   69.13    3.96 
   8  -4  -4   62.67    3.53 
  -8  -4   4   52.45    3.45 
  -8   4   4   60.76    3.28 
   7  -4  -4  109.19    4.58 
  -7  -4   4  118.59    4.86 
  -7   4   4  112.02    4.45 
   7   4  -4  108.70    4.12 
   6  -4  -4  147.79    5.19 
  -6  -4   4  144.66    5.25 
  -6   4   4  138.09    4.94 
   6   4  -4  144.38    4.54 
  -5  -4   4   21.71    2.00 
   5   4  -4   20.39    1.33 
  -5   4   4   24.27    2.09 
  -4  -4   4    3.56    0.81 
  -4   4   4    1.43    0.63 
  -3  -4   4    0.46    0.41 
  -3  -4   4    1.17    0.44 
  -3   4   4    0.40    0.54 
  -2  -4   4  137.05    3.35 
  -2  -4   4  127.18    3.45 
  -2   4   4  128.15    4.40 
   1  -4  -4   34.09    2.14 
  -1   4   4   38.43    2.23 
   0  -4  -4   63.83    3.08 
   0   4   4   71.20    3.24 
  -1  -4  -4  299.45    8.42 
   1   4   4  280.67    8.26 
  -2  -4  -4  206.37    6.90 
   2  -4   4  207.43    5.19 
   2  -4   4  224.16    5.10 
   2   4   4  205.42    6.86 
  -3  -4  -4  139.04    5.53 
   3  -4   4  136.12    4.23 
   3  -4   4  143.96    4.08 
   3   4   4  140.88    5.56 
  -4  -4  -4   24.85    2.75 
   4  -4   4   25.24    1.82 
   4   4   4   22.72    2.64 
  -5  -4  -4    7.28    1.68 
   5  -4   4    4.07    1.10 
   5   4   4    6.63    1.62 
  -6  -4  -4    5.62    1.61 
   6  -4   4    5.69    1.42 
   6   4   4    7.70    1.90 
   7  -4   4    2.31    1.17 
   7   4   4    0.96    1.20 
   8  -4   4    2.65    1.38 
   8   4   4    2.69    1.63 
   9  -4   4   25.03    3.24 
   9   4   4   21.67    3.35 
  11  -5  -4   21.54    2.99 
 -11  -5   4   24.37    3.40 
  10  -5  -4    9.26    2.04 
 -10  -5   4    9.85    2.16 
   9  -5  -4    2.10    1.12 
  -9  -5   4    0.02    1.02 
  -8  -5   4    1.55    1.00 
   8  -5  -4    1.45    0.98 
  -7  -5   4   17.60    2.20 
   7  -5  -4   17.94    2.14 
  -7   5   4   21.13    2.18 
  -6  -5   4   62.67    3.32 
  -6   5   4   64.89    3.17 
  -5  -5   4  129.57    4.73 
  -5   5   4  132.61    4.69 
  -4  -5   4   75.65    3.19 
  -4   5   4   88.27    3.52 
  -3  -5   4  228.58    6.12 
  -3  -5   4  233.71    5.88 
  -3   5   4  234.07    6.80 
  -2  -5   4  187.01    4.47 
  -2  -5   4  181.44    4.65 
  -2   5   4  181.94    5.79 
   1  -5  -4   81.29    3.53 
  -1   5   4   80.30    3.50 
   0  -5  -4   28.89    2.17 
   0   5   4   32.24    2.23 
  -1  -5  -4    1.02    0.82 
   1   5   4    1.33    0.78 
   2  -5   4    2.06    0.40 
   2  -5   4    2.36    0.49 
  -2  -5  -4    2.96    1.10 
   2   5   4    1.69    0.91 
   3  -5   4   14.28    1.30 
  -3  -5  -4   14.41    2.12 
   3   5   4   11.65    1.87 
   4  -5   4   21.20    1.87 
  -4  -5  -4   18.30    2.52 
   4   5   4   21.60    2.62 
  -5  -5  -4   76.93    4.49 
   5  -5   4   64.18    3.22 
   5   5   4   66.50    4.10 
  -6  -5  -4   54.82    4.08 
   6  -5   4   51.71    3.10 
   6   5   4   53.45    3.84 
  -7  -5  -4   51.92    4.78 
   7  -5   4   53.11    3.52 
   7   5   4   47.16    4.56 
   8  -5   4   49.89    3.66 
   8   5   4   43.81    4.47 
 -11  -6   4   14.59    2.94 
 -10  -6   4   44.32    4.37 
  10  -6  -4   42.90    3.93 
  -9  -6   4  100.55    5.33 
   9  -6  -4   99.90    5.02 
   8  -6  -4   96.64    4.66 
  -8  -6   4   93.94    4.93 
  -7  -6   4   69.10    3.87 
  -6  -6   4   48.19    3.02 
  -5  -6   4   12.29    1.71 
  -5   6   4   17.30    1.89 
  -4  -6   4    1.39    0.74 
  -4   6   4    0.64    0.67 
  -3  -6   4    0.20    0.51 
  -3   6   4    0.10    0.59 
  -2  -6   4   37.01    1.72 
  -2  -6   4   42.21    1.63 
   2  -6  -4   37.60    2.42 
  -2   6   4   34.51    2.32 
  -1  -6   4   81.38    2.16 
   1  -6  -4   76.13    3.65 
  -1   6   4   85.74    3.78 
   0  -6  -4  137.58    5.33 
   0   6   4  144.09    5.27 
  -1  -6  -4   99.97    4.61 
   1   6   4  101.06    4.40 
   2  -6   4   47.34    1.61 
  -2  -6  -4   47.82    3.21 
   2  -6   4   47.18    1.51 
   2   6   4   45.91    3.02 
   3  -6   4  106.74    3.40 
  -3  -6  -4  117.63    5.37 
   3   6   4  108.18    5.00 
  -4  -6  -4   81.47    4.59 
   4  -6   4   75.85    3.10 
   4   6   4   79.68    4.40 
  -5  -6  -4   20.20    2.88 
   5  -6   4   23.46    2.21 
   5   6   4   19.45    2.77 
  -6  -6  -4    2.57    1.56 
   6  -6   4    1.08    0.97 
   6   6   4    0.32    1.11 
  -7  -6  -4   -1.28    0.93 
   7  -6   4    0.30    0.92 
   7   6   4    0.61    1.16 
   8  -6   4    5.71    1.66 
   8   6   4    3.83    1.81 
  10  -7  -4    7.05    1.90 
 -10  -7   4    5.39    1.94 
  -9  -7   4   -1.40    0.91 
   9  -7  -4    1.47    1.15 
  -8  -7   4    6.88    1.81 
  -7  -7   4    7.01    1.60 
  -6  -7   4   21.95    2.48 
  -5  -7   4  101.78    4.39 
  -4  -7   4   85.16    3.67 
  -3  -7   4  188.45    5.71 
  -3   7   4  197.12    6.33 
   2  -7  -4  117.58    4.80 
  -2  -7   4  121.63    3.81 
  -2   7   4  119.63    4.70 
  -1  -7   4   39.75    1.53 
  -1  -7   4   36.71    1.54 
   1  -7  -4   36.75    2.70 
  -1   7   4   41.81    2.66 
   0  -7  -4   37.34    3.29 
   0   7   4   39.51    2.69 
  -1  -7  -4    1.57    1.00 
   1   7   4   -0.67    0.66 
   2  -7   4    0.08    0.33 
  -2  -7  -4   -0.28    0.78 
   2   7   4   -0.18    0.68 
   3  -7   4   16.64    1.23 
  -3  -7  -4   16.99    2.51 
   3   7   4   16.02    2.31 
   4  -7   4   51.22    2.41 
  -4  -7  -4   53.10    3.88 
   4   7   4   45.81    3.40 
   5  -7   4   44.26    2.54 
  -5  -7  -4   42.84    4.28 
   5   7   4   45.94    4.19 
  -6  -7  -4   34.61    4.04 
   6  -7   4   24.37    2.47 
   7  -7   4   32.04    3.10 
  -7  -7  -4   34.62    4.23 
 -10  -8   4   36.46    4.17 
  -9  -8   4   35.44    3.89 
  -8  -8   4   59.30    4.06 
  -7  -8   4   78.37    4.49 
  -6  -8   4   43.60    3.14 
  -5  -8   4   10.76    1.78 
  -4  -8   4    1.35    0.85 
  -3  -8   4    1.02    0.71 
   2  -8  -4   35.36    2.66 
  -2  -8   4   34.27    2.02 
  -1  -8   4   42.55    1.93 
   1  -8  -4   44.34    3.06 
   0  -8  -4   51.75    3.51 
  -1  -8  -4   99.07    4.98 
  -2  -8  -4   95.67    5.12 
   2  -8   4   89.63    2.66 
  -3  -8  -4   58.87    4.11 
   3  -8   4   51.98    2.15 
  -4  -8  -4   21.43    3.10 
   4  -8   4   25.38    1.70 
   5  -8   4   20.33    2.00 
  -5  -8  -4   18.24    2.99 
  -6  -8  -4    0.64    1.38 
   6  -8   4    0.47    0.86 
   7  -8   4    0.58    1.01 
  -7  -8  -4    0.33    1.62 
  -9  -9   4    0.20    1.25 
  -8  -9   4    1.03    1.23 
  -7  -9   4    5.39    1.62 
  -6  -9   4   35.89    3.47 
  -5  -9   4   99.17    4.72 
  -4  -9   4   45.49    2.95 
   3  -9  -4  107.54    4.98 
  -3  -9   4  107.11    4.30 
   2  -9  -4   71.28    4.05 
  -2  -9   4   70.58    3.17 
  -1  -9   4   32.62    1.90 
   1  -9  -4   23.15    2.80 
   0  -9   4   24.72    1.48 
   0  -9  -4   25.55    3.03 
  -1  -9  -4    0.22    1.02 
  -2  -9  -4    1.65    1.28 
   3  -9   4    8.46    1.06 
  -3  -9  -4    7.36    1.98 
   4  -9   4   15.58    1.58 
  -4  -9  -4   17.19    2.92 
   5  -9   4   25.96    2.27 
  -5  -9  -4   30.15    3.87 
   6  -9   4   35.95    2.58 
  -8 -10   4   28.35    3.51 
  -7 -10   4   37.25    3.82 
  -6 -10   4   36.34    3.67 
  -5 -10   4   15.10    2.31 
  -4 -10   4   -0.02    0.85 
   3 -10  -4    0.59    1.01 
  -3 -10   4    0.04    0.73 
  -2 -10   4   12.42    1.70 
   2 -10  -4   14.93    2.45 
  -1 -10   4   27.34    1.98 
   1 -10  -4   32.54    3.51 
   0 -10  -4   63.43    4.33 
   0 -10   4   72.93    2.89 
  -1 -10  -4   91.38    5.20 
  -2 -10  -4   41.05    4.33 
  -3 -10  -4   53.86    5.05 
  -4 -10  -4   16.95    3.06 
   4 -10   4   23.72    2.00 
  -5 -10  -4    2.56    1.83 
   5 -10   4    5.94    1.27 
  -6 -11   4   21.45    2.96 
  -5 -11   4   60.68    4.01 
  -4 -11   4   44.85    3.26 
   4 -11  -4   43.84    4.00 
  -3 -11   4   50.32    3.26 
   3 -11  -4   53.04    3.83 
  -2 -11   4   43.71    2.90 
   2 -11  -4   52.09    4.51 
   1 -11  -4   30.01    3.52 
  -1 -11   4   29.15    2.51 
   0 -11   4   11.18    1.51 
   0 -11  -4   10.60    2.28 
  -1 -11  -4    0.35    1.27 
   1 -11   4    0.06    0.66 
  -2 -11  -4    0.41    1.28 
  -3 -11  -4    8.67    2.39 
  -4 -12   4   -0.38    0.98 
   4 -12  -4    0.40    1.16 
  -3 -12   4    0.09    1.02 
   3 -12  -4    0.06    1.24 
   2 -12  -4   28.23    3.50 
  -2 -12   4   27.00    2.78 
  -1 -12   4   16.74    2.10 
   0 -12  -4   17.50    2.92 
   0 -12   4   21.07    2.17 
  -1 -12  -4   37.59    4.22 
   1 -12   4   39.28    2.48 
  12   0  -5    1.05    1.36 
  11   0  -5    0.84    1.18 
 -11   0   5    1.18    1.14 
  10   0  -5   10.52    1.99 
 -10   0   5    6.76    1.64 
   9   0  -5   20.03    2.31 
  -9   0   5   21.96    2.49 
   8   0  -5   64.70    3.35 
  -8   0   5   73.06    3.66 
  -7   0   5   96.76    4.14 
   7   0  -5  106.11    4.12 
  -6   0   5   86.54    3.69 
   6   0  -5   97.97    3.66 
  -5   0   5  147.42    4.78 
  -4   0   5  151.65    4.62 
  -3   0   5  111.11    3.60 
  -2   0   5   68.42    2.53 
   2   0  -5   67.03    2.47 
  -1   0   5    0.27    0.37 
   1   0  -5    0.49    0.41 
   0   0  -5    4.55    0.75 
   0   0   5    2.81    0.67 
  -1   0  -5   98.37    3.23 
   1   0   5   95.55    3.55 
  -2   0  -5  109.10    3.60 
   2   0   5  110.64    4.17 
   3   0   5  150.18    5.36 
  -3   0  -5  152.42    4.67 
   4   0   5   74.33    3.81 
   5   0   5  141.89    5.81 
   6   0   5   86.43    4.58 
   7   0   5    5.17    1.59 
   8   0   5   19.90    3.07 
   9   0   5   -0.65    1.17 
 -12  -1   5   20.63    2.92 
  12  -1  -5   29.30    3.47 
  11  -1  -5   61.02    4.03 
 -11  -1   5   54.12    3.85 
 -11   1   5   61.92    3.99 
  11   1  -5   60.28    3.99 
  10  -1  -5   56.03    3.57 
 -10  -1   5   55.69    3.74 
  10   1  -5   56.38    3.61 
 -10   1   5   63.35    3.75 
  -9  -1   5   98.13    4.63 
   9  -1  -5   87.24    4.33 
   9   1  -5   91.30    4.29 
  -9   1   5   90.80    4.39 
   8  -1  -5   41.54    2.70 
  -8  -1   5   40.66    2.77 
  -8   1   5   45.83    2.82 
   8   1  -5   41.77    2.60 
   7  -1  -5    0.96    0.70 
  -7  -1   5    0.36    0.64 
   7   1  -5    0.88    0.70 
  -7   1   5    0.74    0.67 
   6  -1  -5   17.18    1.76 
  -6  -1   5   15.20    1.76 
   6   1  -5   16.62    1.66 
  -6   1   5   16.61    1.77 
  -5  -1   5    9.29    1.25 
  -5   1   5   10.28    1.36 
  -4  -1   5   46.87    2.18 
  -4   1   5   48.41    2.32 
  -3  -1   5   62.78    2.43 
  -3   1   5   67.25    2.67 
   2  -1  -5  240.96    6.41 
  -2  -1   5  239.01    6.08 
  -2   1   5  249.24    6.50 
   1  -1  -5  184.96    5.34 
  -1  -1   5  192.14    4.94 
  -1   1   5  187.92    5.39 
   0  -1  -5  143.37    4.58 
   0  -1   5  153.17    4.25 
   0   1   5  150.32    4.75 
   1  -1   5   86.23    3.16 
  -1  -1  -5   92.30    3.44 
   1   1   5   90.85    3.59 
  -2  -1  -5   83.31    3.39 
   2  -1   5   89.92    3.47 
   2   1   5   84.46    3.70 
   3  -1   5   19.25    1.98 
  -3  -1  -5   21.82    2.05 
   3   1   5   19.28    2.15 
  -4  -1  -5    1.06    0.78 
   4  -1   5    0.97    0.77 
   4   1   5    1.32    0.96 
   5  -1   5    7.32    1.58 
   5   1   5    6.39    1.54 
   6  -1   5   19.21    2.59 
   6   1   5   22.11    2.80 
   7  -1   5   23.64    3.01 
   7   1   5   26.90    3.34 
   8  -1   5   21.21    3.02 
   8   1   5   20.45    3.05 
   9  -1   5   44.14    4.49 
   9   1   5   60.91    5.42 
 -12  -2   5    2.87    1.64 
  12  -2  -5    2.52    1.60 
  11  -2  -5   -0.20    1.08 
 -11  -2   5   -0.07    1.06 
 -10  -2   5   11.90    2.13 
  10  -2  -5    7.45    1.71 
  10   2  -5    3.78    1.31 
 -10   2   5    6.82    1.61 
   9  -2  -5   29.85    3.00 
  -9  -2   5   31.69    3.20 
  -9   2   5   31.32    2.95 
   9   2  -5   30.49    2.80 
  -8  -2   5   71.33    3.77 
   8  -2  -5   70.81    3.63 
  -8   2   5   71.76    3.65 
   8   2  -5   76.39    3.55 
   7  -2  -5   53.94    2.97 
  -7  -2   5   55.93    3.05 
   7   2  -5   52.91    2.72 
  -7   2   5   51.77    2.94 
  -6  -2   5  136.98    4.84 
   6  -2  -5  134.28    4.80 
   6   2  -5  129.64    4.36 
  -6   2   5  142.99    4.93 
  -5  -2   5  317.33    8.51 
  -5   2   5  335.97    8.77 
  -4  -2   5   93.63    3.27 
  -4   2   5   86.94    3.40 
  -3  -2   5   36.55    1.76 
  -3   2   5   42.57    2.14 
   2  -2  -5   57.13    2.56 
  -2  -2   5   56.99    2.06 
  -2   2   5   58.60    2.62 
  -1  -2   5    3.53    0.62 
  -1  -2   5    1.84    0.46 
   1  -2  -5    1.94    0.69 
  -1   2   5    3.13    0.78 
   0  -2  -5   16.38    1.69 
   0  -2   5   13.74    0.94 
   0  -2   5   14.27    1.07 
   0   2   5   12.58    1.51 
  -1  -2  -5   51.25    2.66 
   1  -2   5   50.58    2.08 
   1  -2   5   51.54    2.17 
   1   2   5   50.46    2.75 
  -2  -2  -5   47.42    2.71 
   2  -2   5   52.10    2.41 
   2  -2   5   52.81    2.37 
   2   2   5   48.28    2.86 
  -3  -2  -5  178.84    6.11 
   3  -2   5  190.63    5.85 
   3   2   5  184.09    6.51 
  -4  -2  -5  107.15    4.62 
   4  -2   5  120.73    4.64 
   4   2   5  107.17    4.95 
   5  -2   5   81.40    4.04 
   5   2   5   88.11    4.58 
   6  -2   5   58.26    3.66 
   6   2   5   62.88    4.02 
   7  -2   5   24.51    3.02 
   7   2   5   25.56    3.29 
   8   2   5   22.50    3.22 
   9  -2   5   -0.01    1.16 
   9   2   5    2.13    1.57 
  12  -3  -5   54.71    4.87 
 -12  -3   5   34.76    4.06 
  11  -3  -5   50.91    4.45 
 -11  -3   5   45.52    4.20 
  10  -3  -5   39.71    3.70 
 -10  -3   5   33.93    3.49 
  -9  -3   5   41.62    3.14 
   9  -3  -5   42.94    3.04 
  -9   3   5   43.59    2.97 
  -8  -3   5   34.20    3.19 
   8  -3  -5   37.68    3.22 
  -8   3   5   33.85    2.53 
  -7  -3   5   10.80    1.68 
   7  -3  -5    9.12    1.49 
  -7   3   5   11.61    1.70 
   7   3  -5    8.52    1.31 
  -6  -3   5   11.82    1.61 
  -6   3   5   11.50    1.55 
   6   3  -5   10.09    1.23 
  -5  -3   5   15.96    1.67 
  -5   3   5   15.52    1.74 
  -4  -3   5   42.52    2.10 
  -4   3   5   47.25    2.44 
  -3  -3   5   29.60    1.52 
  -3  -3   5   28.19    1.46 
  -3   3   5   26.97    1.86 
  -2  -3   5   85.38    2.59 
   2  -3  -5   85.94    3.44 
  -2   3   5   88.30    3.49 
  -1  -3   5  211.08    5.01 
  -1  -3   5  206.16    4.84 
   1  -3  -5  205.37    6.25 
  -1   3   5  206.31    6.28 
   0  -3   5  281.41    6.49 
   0  -3   5  278.36    6.29 
   0  -3  -5  291.71    8.06 
   0   3   5  268.07    7.93 
   1  -3   5  119.79    3.42 
  -1  -3  -5  131.59    4.80 
   1  -3   5  125.12    3.53 
   1   3   5  118.25    4.74 
   2  -3   5   77.70    2.91 
   2  -3   5   82.46    2.92 
  -2  -3  -5   85.10    3.89 
   2   3   5   76.26    3.79 
   3  -3   5    3.20    0.88 
  -3  -3  -5    2.38    1.06 
   3   3   5    2.61    1.06 
  -4  -3  -5   -0.34    0.80 
   4  -3   5    0.10    0.67 
   4   3   5   -0.05    0.75 
  -5  -3  -5    1.05    0.98 
   5  -3   5    1.61    0.89 
   5   3   5    1.77    1.14 
   6  -3   5   27.26    2.89 
   6   3   5   30.88    3.52 
   7  -3   5   30.98    3.30 
   7   3   5   29.26    3.52 
   8  -3   5   34.13    3.71 
   8   3   5   27.65    3.60 
  12  -4  -5    2.70    1.53 
 -12  -4   5    1.30    1.40 
  11  -4  -5    2.88    1.45 
 -11  -4   5   -2.15    0.83 
 -10  -4   5    1.20    1.21 
  10  -4  -5    1.45    1.12 
   9  -4  -5    5.21    1.45 
  -9  -4   5    5.32    1.54 
   8  -4  -5   80.66    4.17 
  -8  -4   5   88.56    4.46 
  -8   4   5   96.30    4.29 
  -7  -4   5  119.46    4.95 
  -7   4   5  126.90    4.95 
  -6  -4   5  116.11    4.55 
  -6   4   5  115.89    4.52 
  -5  -4   5  154.38    5.09 
  -5   4   5  155.93    5.32 
  -4  -4   5   72.25    2.89 
  -4   4   5   71.71    3.28 
  -3  -4   5   94.62    3.11 
  -3  -4   5   96.15    3.00 
  -3   4   5  100.22    3.93 
  -2  -4   5   48.32    1.77 
   2  -4  -5   52.32    2.76 
  -2   4   5   52.52    2.75 
  -1  -4   5    8.23    0.64 
  -1  -4   5    7.55    0.58 
   1  -4  -5    8.31    1.41 
  -1   4   5    4.88    1.10 
   0  -4   5    5.49    0.42 
   0  -4  -5    8.20    1.43 
   0   4   5    6.17    1.26 
  -1  -4  -5   85.69    4.01 
   1  -4   5   90.16    2.50 
   1  -4   5   90.46    2.56 
   1   4   5   95.52    4.22 
  -2  -4  -5   68.64    3.73 
   2  -4   5   67.61    2.51 
   2  -4   5   71.15    2.48 
   2   4   5   69.44    3.68 
   3  -4   5   62.58    2.76 
  -3  -4  -5   69.33    3.80 
   3   4   5   67.00    3.81 
  -4  -4  -5   65.41    3.87 
   4  -4   5   67.56    3.18 
   4   4   5   70.43    4.14 
  -5  -4  -5  118.50    5.57 
   5  -4   5  113.28    4.68 
   5   4   5  106.62    5.45 
   6  -4   5   78.18    4.12 
   6   4   5   72.52    4.56 
   7  -4   5   19.52    2.65 
   7   4   5   16.23    2.87 
   8  -4   5   13.03    2.34 
   8   4   5   10.23    2.53 
 -11  -5   5   49.84    4.68 
  11  -5  -5   47.72    4.32 
 -10  -5   5   41.09    4.00 
  -9  -5   5   35.74    3.57 
   9  -5  -5   45.33    3.26 
  -8  -5   5   26.44    2.85 
  -7  -5   5    3.36    1.13 
  -7   5   5    3.03    1.10 
  -6  -5   5    9.03    1.53 
  -6   5   5    7.77    1.48 
  -5  -5   5    6.58    1.20 
  -5   5   5    7.47    1.31 
  -4  -5   5   37.00    2.06 
  -4   5   5   37.93    2.45 
  -3  -5   5   62.24    2.41 
  -3  -5   5   59.05    2.23 
  -3   5   5   59.08    3.03 
  -2  -5   5  111.37    2.93 
   2  -5  -5  100.15    4.23 
  -2  -5   5  107.86    3.03 
  -2   5   5  104.68    4.29 
   1  -5  -5  126.35    4.90 
  -1   5   5  128.63    4.93 
   0  -5  -5  155.29    5.80 
   0   5   5  164.40    5.88 
  -1  -5  -5   94.74    4.33 
   1   5   5   83.40    4.08 
   2  -5   5   74.56    2.37 
   2  -5   5   73.37    2.46 
  -2  -5  -5   74.39    4.02 
   2   5   5   72.72    3.92 
  -3  -5  -5    6.55    1.60 
   3  -5   5    5.77    1.00 
   3   5   5    5.28    1.52 
   4  -5   5    0.11    0.63 
  -4  -5  -5    0.18    0.99 
   4   5   5   -0.13    0.98 
   5  -5   5    0.90    0.86 
  -5  -5  -5    1.89    1.32 
   5   5   5    0.91    1.11 
   6  -5   5   19.43    2.39 
   6   5   5   18.95    2.92 
   7  -5   5   19.42    2.57 
   7   5   5   18.50    3.07 
   8  -5   5   24.73    3.12 
   8   5   5   22.06    3.39 
  11  -6  -5   -0.25    1.05 
 -11  -6   5   -0.52    1.15 
 -10  -6   5    7.57    1.94 
  10  -6  -5    7.74    1.95 
  -9  -6   5   29.16    3.38 
  -8  -6   5   50.44    3.54 
  -7  -6   5   24.04    2.64 
  -6  -6   5   65.26    3.45 
  -6   6   5   64.03    3.45 
  -5  -6   5  172.39    5.76 
  -5   6   5  178.95    6.09 
  -4  -6   5   81.23    3.32 
  -4   6   5   85.69    3.89 
  -3  -6   5   44.36    2.13 
  -3   6   5   46.75    2.83 
   2  -6  -5   37.66    2.65 
  -2  -6   5   35.62    1.46 
  -2  -6   5   35.16    1.58 
  -2   6   5   39.30    2.61 
   1  -6  -5    0.08    0.65 
  -1   6   5    0.62    0.75 
   0  -6  -5    5.95    1.43 
   0   6   5    5.69    1.32 
  -1  -6  -5   29.23    2.96 
   1   6   5   24.79    2.69 
  -2  -6  -5   31.16    3.21 
   2  -6   5   35.34    1.51 
   2   6   5   40.04    3.61 
  -3  -6  -5  145.17    6.37 
   3  -6   5  151.84    4.45 
   3   6   5  152.10    6.38 
  -4  -6  -5  104.14    5.51 
   4  -6   5  101.78    3.88 
   4   6   5  108.03    5.38 
   5  -6   5   57.15    3.06 
  -5  -6  -5   69.70    4.63 
   5   6   5   56.90    4.05 
  -6  -6  -5   33.51    3.91 
   6  -6   5   41.25    2.92 
   6   6   5   42.15    4.17 
   7  -6   5   13.15    2.17 
   7   6   5    7.93    2.13 
 -10  -7   5   28.91    3.58 
  -9  -7   5   58.25    4.13 
  -8  -7   5   26.91    3.05 
  -7  -7   5   -0.25    0.81 
  -6  -7   5    5.78    1.36 
  -5  -7   5    4.89    1.21 
  -4  -7   5   29.99    2.07 
  -4   7   5   29.31    2.72 
  -3  -7   5   39.32    2.07 
  -3   7   5   33.83    2.56 
  -2  -7   5  129.17    3.78 
   2  -7  -5  126.90    5.30 
  -2   7   5  127.56    5.16 
  -1  -7   5  117.03    3.02 
   1  -7  -5  120.79    5.26 
  -1   7   5  118.05    4.98 
   0  -7  -5   75.08    4.18 
   0   7   5   82.23    4.16 
  -1  -7  -5   45.89    3.31 
   1   7   5   46.95    3.27 
   2  -7   5   40.64    1.57 
  -2  -7  -5   35.23    3.64 
   2   7   5   44.09    3.21 
  -3  -7  -5   15.35    2.60 
   3  -7   5   15.09    1.38 
   3   7   5   13.33    2.34 
  -4  -7  -5    1.91    1.40 
   4  -7   5    1.11    0.72 
   4   7   5    1.57    1.31 
  -5  -7  -5    4.68    1.94 
   5  -7   5    4.24    1.17 
   5   7   5    6.51    1.89 
  -6  -7  -5    9.68    2.58 
   6  -7   5    8.87    1.61 
   6   7   5    9.93    2.34 
   7  -7   5   16.63    2.33 
 -10  -8   5    4.91    1.91 
  -9  -8   5   10.86    2.36 
  -8  -8   5   31.43    3.40 
  -7  -8   5   52.38    3.55 
  -6  -8   5   60.79    3.57 
  -5  -8   5   79.53    3.88 
  -4  -8   5   53.84    2.91 
   3  -8  -5   33.55    3.17 
  -3  -8   5   35.15    2.13 
  -2  -8   5   19.62    1.60 
   2  -8  -5   18.56    2.46 
   1  -8  -5    1.64    1.09 
  -1  -8   5    1.47    0.50 
   0  -8  -5    1.49    1.10 
  -1  -8  -5   40.55    3.91 
   2  -8   5   48.49    1.72 
  -2  -8  -5   43.95    4.22 
  -3  -8  -5   69.44    4.62 
   3  -8   5   64.32    2.46 
   4  -8   5   29.43    1.93 
  -4  -8  -5   37.09    4.10 
   5  -8   5   65.49    3.21 
  -5  -8  -5   63.17    4.74 
   6  -8   5   53.18    3.17 
  -9  -9   5   24.09    3.32 
  -8  -9   5   12.44    2.35 
  -7  -9   5    0.76    1.05 
  -6  -9   5    4.15    1.35 
  -5  -9   5    4.60    1.37 
  -4  -9   5   16.18    2.00 
  -3  -9   5   26.94    2.31 
   3  -9  -5   26.97    3.05 
  -2  -9   5   62.27    2.78 
   2  -9  -5   67.23    4.13 
  -1  -9   5   67.68    2.59 
   1  -9  -5   73.19    4.42 
   0  -9   5   89.10    2.67 
   0  -9  -5   85.25    4.91 
  -1  -9  -5   65.61    4.40 
   2  -9   5   32.09    1.44 
  -2  -9  -5   31.17    3.69 
   3  -9   5    8.43    1.04 
  -3  -9  -5    7.50    2.16 
   4  -9   5   -0.06    0.65 
  -4  -9  -5   -0.87    1.21 
   5  -9   5    3.25    1.05 
  -5  -9  -5    4.64    2.06 
  -7 -10   5   26.40    3.20 
  -6 -10   5   52.78    3.65 
  -5 -10   5   87.15    4.45 
   4 -10  -5   28.67    3.29 
  -4 -10   5   30.35    2.85 
  -3 -10   5   13.97    1.86 
   3 -10  -5   17.34    2.62 
   2 -10  -5   13.35    2.31 
  -2 -10   5   12.67    1.62 
   1 -10  -5    0.35    1.17 
  -1 -10   5    0.47    0.70 
   0 -10  -5    5.68    1.86 
   0 -10   5    4.68    0.87 
  -1 -10  -5   21.08    3.14 
  -2 -10  -5   20.45    3.35 
   3 -10   5   41.80    2.01 
  -3 -10  -5   34.74    4.21 
   4 -10   5   39.73    2.21 
  -4 -10  -5   35.30    4.35 
  -6 -11   5    0.32    1.07 
  -5 -11   5    7.62    1.82 
   4 -11  -5   15.27    2.56 
  -4 -11   5   14.92    2.17 
   3 -11  -5   16.41    2.70 
  -3 -11   5   15.81    2.08 
   2 -11  -5   25.67    3.37 
  -2 -11   5   30.82    2.34 
  -1 -11   5   59.01    2.93 
   1 -11  -5   57.75    4.33 
   0 -11   5   66.75    2.88 
   0 -11  -5   73.02    4.93 
  -1 -11  -5   34.22    4.10 
   1 -11   5   28.78    1.78 
  -2 -11  -5   22.26    3.58 
 -12   0   6   33.57    3.64 
 -11   0   6   59.98    3.97 
  11   0  -6   53.15    3.77 
  10   0  -6   14.76    2.25 
 -10   0   6   13.95    2.21 
  -9   0   6    3.16    1.18 
   9   0  -6    0.38    0.82 
  -8   0   6    4.59    1.22 
   8   0  -6    5.18    1.27 
  -7   0   6   28.83    2.20 
  -6   0   6   11.70    1.56 
  -5   0   6   64.07    2.93 
  -4   0   6  324.17    8.46 
  -3   0   6  454.88   10.89 
   3   0  -6  448.35   10.68 
  -2   0   6  109.10    3.73 
   2   0  -6  111.81    3.64 
  -1   0   6   82.04    3.21 
   1   0  -6   94.16    3.17 
   0   0  -6  119.27    3.79 
   0   0   6  118.77    4.13 
   1   0   6   16.16    1.74 
  -1   0  -6   18.31    1.57 
   2   0   6    7.63    1.43 
   3   0   6    5.11    1.26 
   4   0   6   60.82    3.62 
   5   0   6   34.92    3.40 
   6   0   6   42.47    3.95 
   7   0   6   31.99    3.69 
   8   0   6   26.25    3.54 
 -12  -1   6    4.84    1.77 
  12  -1  -6    1.89    1.40 
 -11  -1   6   13.52    2.32 
 -11   1   6   18.81    2.59 
 -10  -1   6   68.33    4.03 
  10  -1  -6   65.86    3.88 
  10   1  -6   59.80    3.68 
 -10   1   6   60.50    3.80 
   9  -1  -6   44.25    2.97 
  -9  -1   6   38.62    2.89 
  -9   1   6   43.06    2.96 
   9   1  -6   41.55    2.86 
   8  -1  -6  139.17    5.29 
  -8  -1   6  140.92    5.46 
   8   1  -6  136.27    5.10 
  -8   1   6  131.98    5.31 
  -7  -1   6   89.00    3.91 
  -7   1   6   81.89    3.81 
  -6  -1   6   53.29    2.79 
  -6   1   6   47.52    2.69 
  -5  -1   6   71.71    3.11 
  -5   1   6   70.94    3.17 
  -4  -1   6    8.85    1.18 
  -4   1   6   12.18    1.49 
  -3  -1   6    0.34    0.44 
   3  -1  -6    0.30    0.45 
  -3   1   6    0.28    0.48 
   3   1  -6    0.02    0.37 
   2  -1  -6    6.34    1.02 
  -2  -1   6    5.27    0.85 
  -2   1   6    6.97    1.10 
  -1  -1   6   28.22    1.61 
   1  -1  -6   28.81    1.85 
  -1   1   6   27.09    1.81 
   0  -1  -6   95.65    3.63 
   0  -1   6   93.76    3.37 
   0   1   6   96.22    3.80 
  -1  -1  -6  151.43    4.97 
   1  -1   6  148.08    4.88 
   1   1   6  159.52    5.42 
  -2  -1  -6  111.78    4.14 
   2  -1   6  104.64    4.17 
   2   1   6  107.23    4.55 
   3  -1   6  194.73    6.53 
   3   1   6  200.67    6.97 
   4  -1   6   80.57    4.08 
   4   1   6   78.78    4.28 
   5  -1   6   56.92    3.61 
   5   1   6   53.84    3.69 
   6  -1   6    9.36    1.97 
   6   1   6   12.19    2.32 
   7  -1   6    0.23    1.15 
   7   1   6    0.05    1.12 
   8  -1   6    3.90    1.77 
   8   1   6    0.48    1.32 
  12  -2  -6   26.44    3.36 
 -12  -2   6   27.13    3.35 
 -11  -2   6   38.27    3.88 
  11  -2  -6   43.84    4.04 
 -11   2   6   36.39    3.59 
  10  -2  -6    7.85    1.81 
 -10  -2   6    7.32    1.81 
 -10   2   6    9.63    1.92 
  -9  -2   6    1.95    1.19 
   9  -2  -6    4.25    1.34 
  -9   2   6    3.37    1.21 
  -8  -2   6    0.46    0.79 
   8  -2  -6   -0.20    0.69 
  -8   2   6   -0.13    0.69 
   8   2  -6   -0.38    0.61 
  -7  -2   6   39.50    2.63 
  -7   2   6   36.25    2.54 
  -6  -2   6   63.02    3.14 
  -6   2   6   63.08    3.17 
  -5  -2   6  125.13    4.41 
  -5   2   6  134.08    4.71 
  -4  -2   6  117.18    3.88 
  -4   2   6  110.73    4.18 
   3  -2  -6  126.13    4.31 
  -3  -2   6  122.94    3.83 
  -3   2   6  114.54    4.25 
   2  -2  -6  216.66    6.36 
  -2  -2   6  216.83    5.64 
  -2   2   6  212.66    6.41 
  -1  -2   6  249.84    6.21 
   1  -2  -6  238.04    7.06 
  -1  -2   6  252.96    6.42 
  -1   2   6  240.90    7.15 
   0  -2   6  110.65    3.57 
   0  -2   6  117.81    3.81 
   0  -2  -6  114.89    4.34 
   0   2   6  121.81    4.56 
  -1  -2  -6   10.41    1.56 
   1  -2   6   12.54    1.35 
   1   2   6   11.00    1.71 
  -2  -2  -6    2.24    0.97 
   2  -2   6    5.30    1.06 
   2   2   6    3.64    1.21 
  -3  -2  -6    4.70    1.24 
   3  -2   6    7.57    1.37 
   3   2   6    8.79    1.69 
   4  -2   6   35.84    3.09 
   4   2   6   33.53    3.38 
   5  -2   6   15.00    2.20 
   5   2   6   24.54    3.00 
   6  -2   6   61.00    3.89 
   6   2   6   57.84    4.15 
   7  -2   6   74.79    4.65 
   7   2   6   72.78    4.89 
   8  -2   6   28.58    3.57 
   8   2   6   30.91    3.96 
  12  -3  -6    2.95    1.58 
 -12  -3   6    4.55    1.81 
 -11  -3   6   10.74    2.19 
  11  -3  -6   10.45    2.16 
 -10  -3   6   44.10    3.95 
  10  -3  -6   43.44    3.86 
 -10   3   6   37.92    3.49 
   9  -3  -6   40.10    2.99 
  -9  -3   6   42.14    3.18 
  -9   3   6   44.22    3.09 
  -8  -3   6  111.29    4.95 
  -8   3   6  112.21    4.80 
  -7  -3   6  103.65    4.41 
  -7   3   6   96.43    4.29 
  -6  -3   6   83.09    3.66 
  -6   3   6   79.90    3.71 
  -5  -3   6   55.90    2.72 
  -5   3   6   61.71    3.09 
  -4  -3   6   18.13    1.62 
  -4   3   6   19.42    2.00 
   3  -3  -6    1.96    0.74 
  -3  -3   6    1.16    0.52 
  -3  -3   6    0.84    0.51 
  -3   3   6    1.15    0.68 
   2  -3  -6   22.19    2.14 
  -2  -3   6   18.58    1.18 
  -2   3   6   23.59    2.18 
  -1  -3   6   30.42    1.43 
   1  -3  -6   29.90    2.21 
  -1  -3   6   29.60    1.56 
  -1   3   6   33.32    2.26 
   0  -3   6  116.65    3.64 
   0  -3   6  119.96    3.46 
   0  -3  -6  125.73    4.73 
   0   3   6  115.06    4.72 
   1  -3   6  145.62    4.31 
  -1  -3  -6  146.82    5.48 
   1   3   6  142.73    5.56 
   2  -3   6   86.65    3.33 
  -2  -3  -6   77.60    3.87 
   2   3   6   78.94    4.07 
  -3  -3  -6  165.69    6.19 
   3  -3   6  163.89    5.44 
   3   3   6  154.76    6.36 
   4  -3   6   40.32    2.74 
   4   3   6   42.21    3.91 
   5  -3   6   41.42    2.95 
   5   3   6   42.83    4.00 
   6  -3   6   15.17    2.35 
   6   3   6   16.95    2.67 
   7  -3   6    0.10    1.08 
   7   3   6    0.62    1.30 
   8  -3   6    0.68    1.20 
   8   3   6    0.63    1.38 
  12  -4  -6   26.21    3.41 
 -12  -4   6   29.55    3.75 
  11  -4  -6   41.55    4.07 
 -11  -4   6   33.41    3.76 
 -10  -4   6    4.44    1.56 
  10  -4  -6    4.90    1.47 
  -9  -4   6    5.34    1.49 
  -9   4   6    5.74    1.51 
  -8  -4   6   -0.12    0.73 
  -8   4   6    0.47    0.83 
  -7  -4   6   49.65    2.99 
  -7   4   6   48.24    2.99 
  -6  -4   6   29.05    2.17 
  -6   4   6   29.87    2.70 
  -5  -4   6   66.32    2.99 
  -5   4   6   63.85    3.26 
  -4  -4   6  155.08    4.85 
  -4   4   6  172.57    5.75 
   3  -4  -6  163.61    5.59 
  -3  -4   6  165.89    4.52 
  -3  -4   6  155.14    4.49 
  -3   4   6  154.35    5.51 
  -2  -4   6  130.94    3.61 
   2  -4  -6  129.39    4.88 
  -2   4   6  125.67    4.91 
  -1  -4   6  149.40    3.90 
   1  -4  -6  144.49    5.37 
  -1  -4   6  143.49    3.73 
  -1   4   6  145.71    5.44 
   0  -4  -6  114.35    4.78 
   0  -4   6  118.05    3.39 
   0  -4   6  118.17    3.20 
   0   4   6  124.18    5.01 
  -1  -4  -6   18.13    2.26 
   1  -4   6   18.20    1.20 
   1   4   6   18.99    2.40 
  -2  -4  -6    1.16    0.92 
   2  -4   6    1.05    0.60 
   2   4   6    0.30    0.79 
  -3  -4  -6   -0.08    0.90 
   3  -4   6    0.14    0.59 
   3   4   6   -0.05    0.88 
   4  -4   6   23.69    2.34 
  -4  -4  -6   17.46    2.47 
   4   4   6   20.28    2.74 
   5  -4   6   53.32    3.23 
   5   4   6   47.22    4.32 
   6  -4   6   58.22    3.75 
   6   4   6   65.22    4.54 
   7  -4   6   48.39    3.67 
   7   4   6   42.46    4.45 
 -11  -5   6   14.64    2.59 
 -10  -5   6   48.87    4.48 
  -9  -5   6   48.73    3.56 
  -8  -5   6   89.76    4.53 
  -7  -5   6   64.33    3.51 
  -7   5   6   64.99    3.59 
  -6  -5   6   48.22    2.85 
  -6   5   6   53.61    3.14 
  -5  -5   6   46.77    2.55 
  -5   5   6   49.11    2.99 
  -4  -5   6   10.71    1.31 
  -4   5   6   11.13    1.67 
   3  -5  -6    1.05    0.86 
  -3  -5   6    0.82    0.49 
  -3   5   6    0.63    0.72 
   2  -5  -6   10.77    1.69 
  -2  -5   6   12.35    1.02 
  -2   5   6   12.25    1.81 
   1  -5  -6   13.19    1.92 
  -1  -5   6   12.09    0.76 
  -1   5   6   15.14    2.07 
   0  -5   6   81.96    2.17 
   0  -5   6   79.21    2.29 
   0  -5  -6   72.32    3.97 
   0   5   6   82.87    4.14 
   1  -5   6  120.36    3.34 
  -1  -5  -6  122.94    5.35 
   1   5   6  130.40    5.44 
  -2  -5  -6   86.53    4.55 
   2  -5   6   76.96    2.88 
   2   5   6   80.49    4.35 
  -3  -5  -6  148.21    6.38 
   3  -5   6  147.70    4.82 
   3   5   6  148.29    6.40 
  -4  -5  -6   51.56    3.86 
   4  -5   6   48.31    2.78 
   4   5   6   52.51    3.83 
   5  -5   6   37.02    2.71 
   5   5   6   46.28    4.41 
   6  -5   6   12.71    2.11 
   6   5   6   10.60    2.37 
   7  -5   6   -0.29    0.91 
   7   5   6    1.24    1.51 
 -11  -6   6   33.24    3.93 
 -10  -6   6   17.02    2.82 
  -9  -6   6    2.19    1.38 
  -8  -6   6    0.17    0.90 
  -7  -6   6   19.00    2.36 
  -6  -6   6   28.18    2.58 
  -6   6   6   28.12    2.82 
  -5  -6   6   85.45    3.70 
  -5   6   6   90.38    4.26 
  -4  -6   6  115.56    4.07 
  -4   6   6  117.08    4.95 
   3  -6  -6  133.93    5.39 
  -3  -6   6  135.52    4.11 
  -3   6   6  133.98    5.38 
   2  -6  -6  142.58    5.62 
  -2  -6   6  136.91    3.76 
  -2   6   6  136.82    5.50 
   1  -6  -6  117.46    5.06 
  -1  -6   6  102.52    2.67 
  -1   6   6  109.22    4.93 
   0  -6  -6   64.75    3.87 
   0   6   6   59.98    3.66 
  -1  -6  -6    7.39    1.76 
   1  -6   6    7.73    0.67 
   1   6   6    6.14    1.56 
  -2  -6  -6    1.84    1.24 
   2  -6   6    4.23    0.77 
   2   6   6    1.59    1.05 
  -3  -6  -6    5.15    1.74 
   3  -6   6    5.52    1.04 
   3   6   6    5.00    1.71 
   4  -6   6   28.21    2.11 
  -4  -6  -6   34.11    3.77 
   4   6   6   24.72    3.18 
   5  -6   6   13.24    1.90 
  -5  -6  -6   10.64    2.35 
   5   6   6   18.07    2.91 
   6  -6   6   32.49    3.11 
   6   6   6   39.54    4.32 
 -10  -7   6   36.60    3.94 
  -9  -7   6   27.35    3.24 
  -8  -7   6   72.74    4.22 
  -7  -7   6   46.56    3.19 
  -6  -7   6   27.64    2.64 
  -5  -7   6   39.41    2.55 
  -4  -7   6    7.44    1.22 
  -4   7   6    4.62    1.36 
  -3  -7   6   -0.17    0.47 
   3  -7  -6   -0.23    0.81 
  -3   7   6    0.23    0.88 
  -2  -7   6    5.47    0.78 
   2  -7  -6    5.83    1.48 
  -2   7   6    7.88    1.60 
   1  -7  -6   21.09    2.62 
  -1   7   6   28.74    3.04 
   0  -7  -6   39.30    3.76 
   0   7   6   42.13    3.12 
  -1  -7  -6   79.98    4.66 
   1   7   6   80.47    4.52 
  -2  -7  -6   73.37    4.57 
   2  -7   6   72.25    2.45 
   2   7   6   68.04    4.27 
   3  -7   6  122.74    4.00 
  -3  -7  -6  120.21    6.12 
   3   7   6  127.76    6.15 
   4  -7   6   55.23    2.79 
  -4  -7  -6   56.88    5.11 
   4   7   6   55.63    4.17 
   5  -7   6   31.60    2.42 
  -5  -7  -6   31.12    3.88 
   5   7   6   37.70    4.19 
   6  -7   6    4.36    1.41 
  -9  -8   6    0.29    1.09 
  -8  -8   6    0.39    1.12 
  -7  -8   6   15.64    2.25 
  -6  -8   6   11.43    1.85 
  -5  -8   6   37.02    2.55 
  -4  -8   6  100.28    3.96 
   4  -8  -6  104.34    5.04 
  -3  -8   6  136.39    4.37 
   3  -8  -6  126.56    5.78 
  -2  -8   6   59.76    2.36 
   2  -8  -6   59.10    3.92 
  -1  -8   6   55.72    1.87 
   1  -8  -6   57.97    3.89 
   0  -8  -6   69.59    4.38 
  -1  -8  -6    8.54    2.03 
   2  -8   6    2.65    0.58 
  -2  -8  -6    3.18    1.64 
   3  -8   6    2.07    0.70 
  -3  -8  -6    0.78    1.34 
  -4  -8  -6   26.70    3.71 
   4  -8   6   26.19    1.92 
  -5  -8  -6   15.83    2.97 
   5  -8   6   21.63    2.19 
  -8  -9   6   53.42    3.86 
  -7  -9   6   53.00    3.65 
  -6  -9   6   28.11    2.86 
  -5  -9   6   17.25    2.14 
   4  -9  -6    2.59    1.33 
  -4  -9   6    2.52    0.99 
  -3  -9   6   -0.27    0.60 
   3  -9  -6   -0.69    0.91 
  -2  -9   6    3.15    0.82 
   2  -9  -6    4.00    1.61 
   1  -9  -6   15.00    2.55 
  -1  -9   6   14.52    1.18 
   0  -9  -6   48.97    4.53 
  -1  -9  -6   82.40    5.19 
  -3  -9  -6   53.36    5.14 
   3  -9   6   55.39    2.25 
   4  -9   6   38.52    2.20 
  -4  -9  -6   36.06    4.38 
  -7 -10   6   11.73    2.20 
  -6 -10   6   17.60    2.46 
  -5 -10   6   31.25    2.98 
   5 -10  -6   37.75    3.92 
   4 -10  -6   33.68    3.73 
  -4 -10   6   37.15    2.63 
  -3 -10   6   35.32    2.38 
   3 -10  -6   39.40    4.07 
   2 -10  -6   61.88    4.43 
  -2 -10   6   64.27    2.87 
   1 -10  -6   75.79    4.91 
  -1 -10   6   70.14    2.71 
   0 -10  -6   38.33    4.15 
  -1 -10  -6    5.06    2.02 
  -2 -10  -6    2.48    1.71 
  -3 -10  -6    0.81    1.55 
  -5 -11   6   18.32    2.40 
   5 -11  -6   16.64    2.89 
   4 -11  -6    6.75    2.09 
  -4 -11   6    5.44    1.45 
   3 -11  -6    0.03    1.17 
  -3 -11   6   -0.27    0.83 
  -2 -11   6    7.78    1.34 
   2 -11  -6    7.05    2.14 
  -1 -11   6    8.31    1.23 
   1 -11  -6    2.87    1.77 
   0 -11  -6   28.12    3.78 
  -1 -11  -6   46.27    5.03 
 -12   0   7   30.78    3.57 
 -11   0   7   49.90    3.70 
 -10   0   7   79.83    4.50 
  10   0  -7   89.63    4.54 
  -9   0   7  103.26    4.88 
  -8   0   7   66.13    3.62 
  -7   0   7   16.50    2.00 
  -6   0   7    9.66    1.49 
  -5   0   7    7.00    1.23 
   4   0  -7   11.94    1.40 
  -4   0   7   16.18    1.71 
  -3   0   7   66.30    2.99 
   3   0  -7   72.42    2.92 
  -2   0   7   68.24    3.01 
   2   0  -7   71.15    2.86 
   1   0  -7   49.53    2.33 
  -1   0   7   50.25    2.60 
   0   0   7  161.76    5.44 
   1   0   7  188.34    6.29 
   2   0   7   51.02    3.12 
   3   0   7   83.53    4.24 
   4   0   7   14.12    2.26 
   5   0   7    0.06    0.97 
   6   0   7    2.91    1.42 
   7   0   7   12.29    2.53 
 -12  -1   7   13.78    2.49 
 -12   1   7   11.28    2.44 
 -11  -1   7    6.78    1.82 
  11  -1  -7    9.25    1.98 
 -11   1   7    8.60    1.96 
 -10  -1   7    1.29    1.13 
  10  -1  -7   -0.05    0.94 
 -10   1   7    0.54    0.95 
  -9  -1   7   11.38    1.91 
  -9   1   7    8.51    1.76 
  -8  -1   7   14.74    2.06 
  -8   1   7   16.32    2.18 
  -7  -1   7   65.62    3.41 
  -7   1   7   66.77    3.50 
  -6  -1   7   74.20    3.44 
  -6   1   7   74.01    3.54 
  -5  -1   7  163.01    5.27 
  -5   1   7  151.00    5.30 
  -4  -1   7  109.40    4.03 
  -4   1   7  117.50    4.34 
   4   1  -7  115.94    3.76 
  -3  -1   7  130.77    4.36 
   3  -1  -7  129.96    4.51 
  -3   1   7  140.01    4.77 
   2  -1  -7   26.27    1.89 
  -2  -1   7   29.71    1.81 
  -2   1   7   30.27    2.03 
   1  -1  -7   11.26    1.44 
  -1  -1   7    9.87    1.30 
  -1   1   7   12.63    1.62 
   0  -1   7    5.19    1.03 
   0  -1  -7    7.84    1.28 
   0   1   7    9.06    1.48 
   1  -1   7   18.02    1.91 
   1   1   7   16.91    2.08 
   2  -1   7   41.81    2.70 
   2   1   7   35.59    3.21 
   3  -1   7   47.89    3.11 
   3   1   7   61.83    3.65 
   4  -1   7   44.66    3.21 
   4   1   7   46.35    3.39 
   5  -1   7   69.58    4.20 
   5   1   7   58.91    4.09 
   6  -1   7   43.59    4.14 
   6   1   7   48.73    4.63 
   7  -1   7   39.80    4.23 
   7   1   7   46.40    4.69 
  12  -2  -7   30.12    3.53 
  11  -2  -7   55.57    3.95 
 -11  -2   7   54.01    3.96 
 -11   2   7   54.00    3.87 
 -10  -2   7   85.52    4.73 
 -10   2   7   90.51    4.78 
  -9  -2   7   61.70    3.74 
  -9   2   7   59.05    3.66 
  -8  -2   7   65.86    3.66 
  -8   2   7   68.55    3.72 
  -7  -2   7   41.81    2.71 
  -7   2   7   35.66    2.56 
  -6  -2   7    6.56    1.25 
  -6   2   7    7.44    1.36 
  -5  -2   7    4.03    0.96 
  -5   2   7    0.76    0.71 
  -4  -2   7    1.67    0.65 
  -4   2   7    0.49    0.62 
   3  -2  -7   50.28    2.73 
  -3  -2   7   55.25    2.45 
  -3   2   7   51.27    2.79 
   2  -2  -7  157.90    5.36 
  -2  -2   7  161.66    4.75 
  -2   2   7  159.95    5.54 
  -1  -2   7  107.98    3.69 
   1  -2  -7  115.23    4.38 
  -1   2   7  111.42    4.52 
   0  -2  -7   80.30    3.69 
   0  -2   7   80.30    3.16 
   0   2   7   83.76    3.95 
   1  -2   7  158.51    5.16 
  -1  -2  -7  152.59    5.53 
   1   2   7  156.55    5.97 
   2  -2   7   70.60    3.45 
   2   2   7   79.03    4.15 
   3  -2   7   54.88    3.18 
   3   2   7   58.20    3.73 
   4  -2   7   10.54    1.84 
   4   2   7    8.84    1.97 
   5  -2   7    0.04    0.92 
   5   2   7   -0.69    0.96 
   6  -2   7    5.48    1.67 
   6   2   7    8.44    2.12 
   7  -2   7   14.55    2.69 
   7   2   7   12.65    2.65 
 -12  -3   7    8.18    2.18 
  12  -3  -7    8.15    2.15 
 -11  -3   7   11.56    2.32 
 -10  -3   7    0.14    1.00 
 -10   3   7   -1.38    0.81 
  -9  -3   7    4.89    1.47 
  -9   3   7    8.18    1.75 
  -8  -3   7   29.20    2.93 
  -8   3   7   28.53    2.86 
  -7  -3   7   89.63    4.18 
  -7   3   7   91.05    4.27 
  -6  -3   7   87.87    3.85 
  -6   3   7   87.14    4.07 
  -5  -3   7   97.68    3.83 
  -5   3   7   98.00    4.22 
  -4  -3   7   44.27    2.27 
  -4   3   7   45.83    2.77 
  -3  -3   7  135.15    4.26 
   3  -3  -7  145.67    5.16 
  -3   3   7  138.99    5.20 
   2  -3  -7   31.10    2.24 
  -2  -3   7   27.39    1.59 
  -2   3   7   28.89    2.68 
  -1  -3   7    7.29    0.97 
   1  -3  -7    6.56    1.36 
  -1   3   7    9.09    1.60 
   0  -3   7    6.66    0.99 
   0  -3  -7    8.54    1.52 
   0   3   7    8.67    1.65 
   1  -3   7   14.55    1.54 
  -1  -3  -7   16.84    2.19 
   1   3   7   20.29    2.46 
   2  -3   7   13.56    1.70 
  -2  -3  -7    9.70    1.75 
   2   3   7   13.51    2.17 
   3  -3   7   31.85    2.37 
   3   3   7   28.88    3.16 
   4  -3   7   61.22    3.51 
   4   3   7   61.01    4.14 
   5  -3   7   75.89    4.25 
   5   3   7   79.29    4.91 
   6  -3   7   62.88    4.05 
   6   3   7   52.71    4.89 
   7  -3   7   34.45    3.83 
   7   3   7   28.42    3.80 
 -11  -4   7   45.95    4.41 
  -9  -4   7   52.31    3.57 
  -9   4   7   56.65    3.62 
  -8  -4   7   79.93    4.23 
  -8   4   7   83.68    4.27 
  -7  -4   7   41.88    2.81 
  -7   4   7   42.09    2.93 
  -6  -4   7    6.39    1.28 
  -6   4   7    6.69    1.45 
  -5  -4   7    1.87    0.78 
  -5   4   7    2.32    0.98 
  -4  -4   7   19.07    1.73 
  -4   4   7   19.88    2.23 
  -3  -4   7   40.68    1.98 
   3  -4  -7   40.66    2.68 
  -3   4   7   39.04    2.66 
   2  -4  -7   37.58    2.65 
  -2  -4   7   40.92    1.84 
  -2   4   7   42.02    2.81 
   1  -4  -7  111.54    4.74 
  -1  -4   7  105.91    3.24 
  -1   4   7  101.25    4.67 
   0  -4   7  178.40    4.80 
   0  -4  -7  176.87    6.41 
   0   4   7  167.63    6.49 
  -1  -4  -7  162.15    6.38 
   1  -4   7  172.27    5.02 
   1   4   7  176.95    6.79 
   2  -4   7   31.65    2.08 
  -2  -4  -7   28.48    3.04 
   2   4   7   31.10    3.30 
   3  -4   7   29.90    2.24 
   3   4   7   28.44    3.26 
   4  -4   7   13.60    1.94 
   4   4   7   13.70    2.47 
   5  -4   7    1.35    0.90 
   5   4   7    1.02    1.21 
   6  -4   7    3.31    1.46 
   6   4   7    5.36    1.95 
 -11  -5   7    6.64    1.91 
 -10  -5   7   -0.78    0.93 
  -9  -5   7   10.17    2.01 
  -8  -5   7   26.14    2.90 
  -8   5   7   33.54    3.27 
  -7  -5   7   58.82    3.37 
  -7   5   7   52.73    3.43 
  -6  -5   7   56.80    3.08 
  -6   5   7   51.28    3.25 
  -5  -5   7  113.07    4.22 
  -5   5   7  110.57    4.88 
  -4  -5   7   75.53    3.00 
   4  -5  -7   68.65    3.68 
  -4   5   7   65.74    3.68 
   3  -5  -7  126.55    5.22 
  -3  -5   7  124.74    3.89 
  -3   5   7  122.39    5.20 
  -2  -5   7   19.03    1.21 
   2  -5  -7   21.28    2.52 
  -2   5   7   16.85    2.24 
  -1  -5   7    4.37    0.66 
   1  -5  -7    4.57    1.32 
  -1   5   7    3.29    1.23 
   0  -5  -7    6.99    1.63 
   0  -5   7    3.19    0.62 
   0   5   7    4.78    1.43 
   1  -5   7   14.19    1.33 
  -1  -5  -7   14.75    2.36 
   1   5   7   18.08    2.50 
  -2  -5  -7   13.16    2.30 
   2  -5   7   14.20    1.53 
   2   5   7   11.17    2.12 
  -3  -5  -7   32.35    3.47 
   3  -5   7   37.46    2.37 
   3   5   7   30.85    3.48 
   4  -5   7   58.42    3.25 
   4   5   7   51.43    4.66 
   5  -5   7   50.98    3.31 
   5   5   7   61.50    5.35 
   6  -5   7   35.55    3.50 
   6   5   7   42.54    4.52 
 -11  -6   7   47.87    4.58 
 -10  -6   7   85.12    5.05 
  -9  -6   7   48.10    3.58 
  -8  -6   7   35.24    3.36 
  -7  -6   7   21.48    2.41 
  -6  -6   7    5.18    1.27 
  -6   6   7    2.00    1.17 
  -5  -6   7    2.36    0.87 
  -5   6   7    1.94    1.06 
  -4  -6   7    3.38    0.88 
   4  -6  -7    3.63    1.33 
  -4   6   7    7.54    1.63 
  -3  -6   7   40.04    1.96 
   3  -6  -7   37.84    3.43 
  -3   6   7   38.46    2.90 
  -2  -6   7   91.37    2.83 
   2  -6  -7   85.16    4.44 
  -2   6   7   86.40    4.49 
   1  -6  -7   51.88    3.48 
  -1  -6   7   46.97    1.71 
  -1   6   7   49.19    3.39 
   0  -6  -7   45.07    3.40 
   0  -6   7   40.72    1.54 
   0   6   7   44.65    3.29 
  -1  -6  -7  120.65    5.71 
   1  -6   7  118.17    3.47 
   1   6   7  111.56    5.50 
  -2  -6  -7   65.19    4.38 
   2  -6   7   61.94    2.64 
   2   6   7   64.92    4.23 
   3  -6   7   53.69    2.76 
  -3  -6  -7   59.41    4.20 
   3   6   7   58.25    4.23 
   4  -6   7    8.78    1.53 
   4   6   7    6.08    1.86 
   5  -6   7   -0.22    0.83 
   5   6   7    0.82    1.30 
 -10  -7   7   -1.15    1.03 
  -9  -7   7    3.10    1.44 
  -8  -7   7    3.36    1.33 
  -7  -7   7   36.61    3.30 
  -6  -7   7   54.06    3.18 
  -5  -7   7   90.19    3.88 
  -4  -7   7   62.87    2.88 
   4  -7  -7   59.07    3.79 
  -4   7   7   63.44    3.89 
   3  -7  -7   62.73    4.01 
  -3  -7   7   70.51    2.77 
  -3   7   7   79.51    4.31 
  -2  -7   7   15.82    1.17 
   2  -7  -7   13.30    2.26 
  -2   7   7   23.49    2.90 
  -1  -7   7    8.88    0.75 
   1  -7  -7    7.84    1.82 
  -1   7   7    6.30    1.65 
   0  -7  -7    5.49    1.66 
   0   7   7    1.64    1.21 
   1  -7   7    9.46    0.89 
  -1  -7  -7   10.79    2.32 
   1   7   7    9.68    2.05 
   2  -7   7   28.46    1.70 
  -2  -7  -7   28.60    3.63 
   2   7   7   29.60    3.49 
  -3  -7  -7   37.52    4.16 
   3  -7   7   37.46    2.18 
   3   7   7   35.07    3.94 
   4  -7   7   27.12    2.42 
   4   7   7   26.41    3.59 
   5  -7   7   41.44    2.87 
   5   7   7   41.30    4.56 
  -9  -8   7   56.12    4.03 
  -8  -8   7   42.96    3.87 
  -7  -8   7   12.07    2.01 
  -6  -8   7    3.23    1.18 
  -5  -8   7    2.30    1.01 
   4  -8  -7    2.63    1.31 
  -4  -8   7    4.05    1.04 
   3  -8  -7   27.66    3.19 
  -3  -8   7   24.89    1.70 
  -2  -8   7   41.41    1.88 
   2  -8  -7   52.87    3.77 
   1  -8  -7   36.24    3.87 
   0  -8  -7   73.21    4.76 
  -1  -8  -7   87.84    5.27 
   2  -8   7   23.71    1.42 
  -2  -8  -7   20.99    3.18 
  -3  -8  -7   39.50    4.46 
   3  -8   7   39.06    2.13 
   4  -8   7    9.40    1.47 
  -8  -9   7   10.97    2.11 
  -7  -9   7   47.10    3.40 
  -6  -9   7   32.43    3.04 
   5  -9  -7   55.30    4.00 
  -5  -9   7   55.45    3.21 
  -4  -9   7   33.65    2.31 
   4  -9  -7   30.86    3.53 
  -3  -9   7   44.34    2.33 
   3  -9  -7   41.20    4.07 
   2  -9  -7   15.94    2.75 
  -2  -9   7   18.16    1.44 
   1  -9  -7    7.13    2.09 
   0  -9  -7    2.76    1.58 
  -1  -9  -7    6.17    2.11 
  -2  -9  -7    5.92    2.15 
   3  -9   7   16.86    1.47 
  -3  -9  -7   15.15    3.07 
   6 -10  -7    0.69    1.29 
  -6 -10   7    1.16    1.09 
   5 -10  -7   -0.06    1.26 
  -5 -10   7    1.12    0.97 
  -4 -10   7    0.41    0.85 
   4 -10  -7    0.29    1.30 
  -3 -10   7   15.28    1.67 
   3 -10  -7   10.90    2.44 
   2 -10  -7   37.33    4.13 
  -2 -10   7   37.81    2.02 
   1 -10  -7   41.30    4.39 
   0 -10  -7   31.59    3.96 
  -1 -10  -7   50.48    5.10 
  -3 -11   7   38.27    2.47 
   3 -11  -7   45.29    4.77 
  -2 -11   7    9.18    1.29 
 -12   0   8    0.96    1.27 
 -11   0   8   10.32    2.10 
 -10   0   8   16.45    2.47 
  -9   0   8   36.35    3.36 
  -8   0   8   80.79    4.15 
  -7   0   8   63.29    3.48 
  -6   0   8   81.98    3.86 
  -5   0   8  132.50    4.92 
  -4   0   8   11.50    1.55 
  -3   0   8   20.14    2.01 
  -2   0   8    0.23    0.60 
  -1   0   8   37.45    2.44 
   0   0   8   46.37    2.84 
   1   0   8   72.70    3.78 
   2   0   8   82.48    4.28 
   3   0   8   83.29    4.49 
   4   0   8   77.64    4.58 
   5   0   8   42.77    4.19 
   6   0   8   19.94    3.08 
 -12  -1   8   48.63    4.58 
 -12   1   8   50.14    4.56 
 -11  -1   8   64.69    4.32 
 -11   1   8   62.09    4.19 
 -10  -1   8   46.37    3.48 
 -10   1   8   42.50    3.84 
  -9  -1   8   29.43    3.10 
  -9   1   8   23.12    2.73 
  -8  -1   8    8.50    1.66 
  -8   1   8    9.26    1.72 
  -7  -1   8    0.66    0.79 
  -7   1   8   -0.14    0.67 
  -6  -1   8    2.40    0.93 
  -6   1   8    3.83    1.09 
  -5  -1   8   45.72    2.68 
  -5   1   8   51.03    2.92 
  -4  -1   8   76.00    3.36 
   4  -1  -8   74.63    3.38 
  -4   1   8   78.48    3.59 
  -3  -1   8   65.62    3.07 
   3  -1  -8   70.89    3.23 
  -3   1   8   72.20    3.41 
  -2  -1   8   93.44    3.78 
   2  -1  -8   99.14    3.92 
  -2   1   8  100.46    4.21 
  -1  -1   8   57.79    2.90 
  -1   1   8   55.94    3.12 
   0  -1   8   49.22    2.78 
   0   1   8   43.59    2.88 
   1  -1   8   39.11    2.64 
   1   1   8   39.05    2.89 
   2  -1   8    7.57    1.58 
   2   1   8   10.34    1.90 
   3  -1   8    2.46    1.17 
   3   1   8    2.20    1.19 
   4  -1   8    6.32    1.70 
   4   1   8   10.62    2.18 
   5  -1   8    6.66    1.85 
   5   1   8    9.36    2.21 
   6  -1   8   48.39    4.53 
   6   1   8   36.49    4.08 
 -12  -2   8    2.00    1.54 
 -11  -2   8   13.28    2.45 
 -11   2   8   13.01    2.36 
 -10  -2   8   19.75    2.70 
 -10   2   8   18.23    2.61 
  -9  -2   8   29.51    3.09 
  -9   2   8   24.39    2.80 
  -8  -2   8   75.48    4.12 
  -8   2   8   94.99    4.52 
  -7  -2   8  123.40    4.99 
  -7   2   8  109.45    4.87 
  -6  -2   8   89.59    3.95 
  -6   2   8   91.66    4.24 
  -5  -2   8   68.60    3.20 
  -5   2   8   63.73    3.43 
   4  -2  -8    7.50    1.38 
  -4  -2   8    8.66    1.31 
  -4   2   8    9.50    1.53 
  -3  -2   8   12.06    1.44 
   3  -2  -8   13.33    1.79 
  -3   2   8   15.28    1.93 
  -2  -2   8    3.71    0.89 
   2  -2  -8    5.61    1.27 
  -2   2   8    4.44    1.17 
  -1  -2   8   20.71    1.92 
   1  -2  -8   22.12    2.28 
  -1   2   8   21.84    2.40 
   0  -2   8   24.65    2.17 
   0   2   8   18.61    2.35 
   1  -2   8   65.73    3.29 
   1   2   8   57.60    3.69 
   2  -2   8  100.28    4.49 
   2   2   8  109.32    5.21 
   3  -2   8   74.18    3.98 
   3   2   8   67.72    4.29 
   4  -2   8   45.41    3.36 
   4   2   8   40.90    4.16 
   5  -2   8   63.26    4.15 
   5   2   8   43.31    4.39 
   6  -2   8   31.68    3.63 
   6   2   8   26.33    3.56 
 -12  -3   8   32.70    3.86 
 -11  -3   8   43.78    4.17 
 -10  -3   8   34.06    3.60 
 -10   3   8   34.44    3.48 
  -9  -3   8   32.38    3.24 
  -9   3   8   40.00    3.65 
  -8  -3   8   13.77    2.07 
  -8   3   8   13.18    2.09 
  -7  -3   8    2.58    1.00 
  -7   3   8    2.47    1.15 
  -6  -3   8    3.41    1.06 
  -6   3   8    2.78    1.08 
  -5  -3   8   31.13    2.14 
  -5   3   8   31.95    2.92 
  -4  -3   8   29.32    1.95 
   4  -3  -8   37.14    3.07 
  -4   3   8   27.65    2.66 
  -3  -3   8   57.65    2.64 
   3  -3  -8   55.62    3.17 
  -3   3   8   57.19    3.31 
   2  -3  -8  174.11    6.16 
  -2  -3   8  165.80    5.10 
  -2   3   8  175.34    6.36 
  -1  -3   8   81.96    3.17 
   1  -3  -8   76.13    3.90 
  -1   3   8   81.45    4.17 
   0  -3  -8   49.18    3.18 
   0  -3   8   43.61    2.38 
   0   3   8   44.38    3.19 
   1  -3   8   24.99    2.25 
   1   3   8   21.14    2.67 
   2  -3   8    2.31    1.02 
   2   3   8    2.28    1.20 
   3  -3   8    0.58    0.82 
   3   3   8   -0.50    0.80 
   4  -3   8    8.57    1.85 
   4   3   8    7.00    1.99 
   5  -3   8   19.63    2.73 
   5   3   8   14.11    2.74 
   6  -3   8   52.10    3.87 
   6   3   8   53.01    5.11 
 -11  -4   8    3.17    1.56 
 -10  -4   8   16.35    2.60 
  -9  -4   8   61.56    3.93 
  -9   4   8   63.76    4.02 
  -8  -4   8   82.85    4.32 
  -8   4   8   75.93    4.26 
  -7  -4   8   76.64    3.89 
  -7   4   8   72.23    4.06 
  -6  -4   8   65.44    3.34 
  -6   4   8   65.58    3.73 
  -5  -4   8   85.26    3.62 
  -5   4   8   89.12    4.35 
   4  -4  -8   16.32    2.19 
  -4  -4   8   15.76    1.65 
  -4   4   8   17.39    2.25 
   3  -4  -8    5.53    1.43 
  -3  -4   8    5.33    0.96 
  -3   4   8    3.86    1.32 
  -2  -4   8    3.47    0.78 
   2  -4  -8    4.49    1.37 
  -2   4   8    3.39    1.19 
  -1  -4   8   31.66    1.77 
   1  -4  -8   32.53    3.05 
  -1   4   8   26.84    2.96 
   0  -4   8   41.26    2.15 
   0  -4  -8   44.10    3.22 
   0   4   8   39.68    3.65 
   1  -4   8   24.09    2.11 
   1   4   8   22.89    2.87 
   2  -4   8   49.26    2.84 
   2   4   8   48.66    3.72 
   3  -4   8   76.49    3.84 
   3   4   8   87.05    5.05 
   4  -4   8   52.92    3.44 
   4   4   8   52.85    4.84 
   5  -4   8   44.02    3.32 
   5   4   8   50.45    4.95 
 -11  -5   8   36.83    4.04 
 -10  -5   8   22.06    2.94 
  -9  -5   8   23.02    2.83 
  -8  -5   8    7.64    1.70 
  -8   5   8    7.69    1.81 
  -7  -5   8    0.72    0.82 
  -7   5   8    1.15    1.06 
  -6  -5   8    1.73    0.90 
  -6   5   8    3.59    1.31 
  -5  -5   8   40.82    2.50 
  -5   5   8   44.53    3.17 
  -4  -5   8   49.62    2.46 
   4  -5  -8   45.38    3.15 
  -4   5   8   43.31    3.10 
  -3  -5   8   45.85    2.20 
   3  -5  -8   39.66    2.99 
  -3   5   8   40.85    3.62 
  -2  -5   8  102.81    3.40 
   2  -5  -8  100.52    4.85 
  -2   5   8  100.62    4.98 
   1  -5  -8   55.09    3.68 
  -1  -5   8   54.08    2.23 
  -1   5   8   54.31    3.66 
   0  -5  -8   44.95    3.41 
   0  -5   8   39.23    1.98 
   0   5   8   41.48    3.86 
  -1  -5  -8   26.44    3.16 
   1  -5   8   23.40    1.74 
   1   5   8   23.23    2.95 
   2  -5   8    1.88    0.92 
   2   5   8    2.39    1.35 
   3  -5   8    0.45    0.87 
   3   5   8   -0.29    1.05 
   4  -5   8    7.41    1.61 
   4   5   8    4.81    1.87 
   5  -5   8    5.59    1.60 
   5   5   8    9.97    2.38 
 -10  -6   8   16.70    2.63 
  -9  -6   8   19.58    2.70 
  -8  -6   8   40.95    3.11 
  -7  -6   8   71.79    3.86 
  -7   6   8   75.37    4.40 
  -6  -6   8   69.06    3.51 
  -6   6   8   72.78    4.18 
  -5  -6   8   70.63    3.27 
   5  -6  -8   63.02    3.97 
  -5   6   8   70.75    4.10 
  -4  -6   8   12.46    1.48 
   4  -6  -8   10.98    2.00 
  -4   6   8   10.40    1.97 
   3  -6  -8    9.06    1.91 
  -3  -6   8   10.63    1.23 
  -3   6   8    7.39    1.76 
  -2  -6   8    2.72    0.68 
   2  -6  -8    3.02    1.32 
  -2   6   8    1.64    1.10 
   1  -6  -8   11.71    2.18 
  -1  -6   8   13.94    1.17 
  -1   6   8   11.56    2.17 
   0  -6  -8   14.77    2.52 
   0   6   8   14.82    2.46 
   1  -6   8   51.60    2.39 
  -1  -6  -8   57.03    4.18 
   1   6   8   57.54    4.04 
   2  -6   8   86.99    3.53 
   2   6   8   88.14    5.21 
   3  -6   8   48.14    2.84 
   3   6   8   52.64    4.80 
   4  -6   8   30.32    2.83 
   4   6   8   31.52    4.05 
  -9  -7   8   10.19    2.09 
  -8  -7   8    5.64    1.56 
  -7  -7   8   -0.31    0.78 
  -6  -7   8    3.35    1.13 
   5  -7  -8   29.90    3.30 
  -5  -7   8   27.42    2.41 
  -5   7   8   24.10    2.94 
   4  -7  -8   55.70    3.79 
  -4  -7   8   45.96    2.45 
  -4   7   8   47.45    4.18 
   3  -7  -8   53.34    3.86 
  -3  -7   8   52.96    2.37 
  -3   7   8   53.02    3.70 
   2  -7  -8   51.77    3.81 
  -2  -7   8   56.88    2.19 
  -2   7   8   54.78    3.86 
  -1  -7   8   29.90    1.43 
   1  -7  -8   23.04    3.06 
  -1   7   8   29.26    3.37 
   0  -7   8   24.43    1.32 
   0  -7  -8   25.07    3.21 
   0   7   8   22.89    3.07 
   1  -7   8   21.96    1.50 
  -1  -7  -8   25.76    3.39 
   1   7   8   29.67    3.67 
  -2  -7  -8    7.70    2.17 
   2  -7   8    7.28    1.19 
   2   7   8    4.94    1.84 
   3  -7   8    0.58    0.80 
   3   7   8    1.96    1.38 
   4  -7   8    5.96    1.44 
   4   7   8    7.93    2.26 
  -8  -8   8   46.93    3.46 
  -7  -8   8   41.00    3.01 
  -6  -8   8   44.41    2.95 
  -5  -8   8   51.39    2.94 
   5  -8  -8   53.62    3.93 
  -4  -8   8    5.57    1.16 
   4  -8  -8    5.68    1.80 
   3  -8  -8   10.20    2.20 
  -3  -8   8   11.10    1.30 
  -2  -8   8    0.66    0.53 
   2  -8  -8   -0.93    1.02 
  -1  -8   8   19.81    1.11 
   1  -8  -8   20.55    3.19 
   0  -8  -8   24.10    3.35 
   0   8   8   23.29    3.12 
   1  -8   8   29.75    1.53 
  -1  -8  -8   34.17    4.19 
  -2  -8  -8   28.83    3.76 
   2  -8   8   29.01    1.76 
   3  -8   8   39.25    2.33 
  -7  -9   8   -0.49    0.94 
  -6  -9   8    1.58    1.10 
   6  -9  -8    1.07    1.48 
   5  -9  -8   16.36    2.86 
  -5  -9   8   17.75    2.08 
  -4  -9   8   33.83    2.25 
   4  -9  -8   27.14    3.51 
   3  -9  -8   32.68    3.82 
  -3  -9   8   31.99    1.94 
  -2  -9   8   52.27    2.13 
   2  -9  -8   52.99    4.89 
   1  -9  -8   36.83    4.18 
   0  -9  -8   32.73    4.10 
  -1  -9  -8   14.62    3.08 
   5 -10  -8   22.89    3.41 
  -5 -10   8   21.43    2.31 
   4 -10  -8    5.48    2.08 
  -4 -10   8    5.42    1.23 
  -3 -10   8    4.40    1.03 
   3 -10  -8    0.49    1.44 
   2 -10  -8   -0.35    1.44 
   1 -10  -8    9.59    2.57 
 -12   0   9   10.51    2.35 
 -11   0   9   19.67    2.92 
 -10   0   9    5.63    1.64 
  -9   0   9    1.71    1.14 
  -8   0   9    3.94    1.29 
  -7   0   9   38.16    2.85 
  -6   0   9   83.94    4.02 
  -5   0   9  181.24    6.30 
  -4   0   9  123.08    4.86 
  -3   0   9   50.99    2.95 
  -2   0   9   68.26    3.52 
  -1   0   9   40.46    2.77 
   0   0   9    3.52    1.22 
   1   0   9    0.16    0.85 
   2   0   9   12.27    2.11 
   3   0   9   31.13    3.42 
   4   0   9   26.45    3.29 
   5   0   9   12.16    2.47 
 -11  -1   9   38.53    3.90 
 -11   1   9   41.54    4.06 
 -10  -1   9   54.59    3.82 
 -10   1   9   50.76    3.71 
  -9  -1   9   45.84    3.38 
  -9   1   9   48.78    3.44 
  -8  -1   9   69.93    3.93 
  -8   1   9   60.53    3.71 
  -7  -1   9   53.66    3.29 
  -7   1   9   59.44    3.48 
  -6  -1   9   19.16    2.26 
  -6   1   9   19.76    2.35 
  -5  -1   9   14.26    1.83 
  -5   1   9   12.65    1.84 
  -4  -1   9    2.74    0.94 
  -4   1   9    2.95    1.03 
  -3  -1   9    9.41    1.49 
  -3   1   9    7.40    1.47 
  -2  -1   9   48.02    2.79 
  -2   1   9   44.41    2.92 
  -1  -1   9   53.29    2.99 
  -1   1   9   43.89    3.05 
   0  -1   9   93.32    4.26 
   0   1   9   87.69    4.50 
   1  -1   9   63.14    3.61 
   1   1   9   62.41    3.90 
   2  -1   9   57.69    3.65 
   2   1   9   59.44    3.95 
   3  -1   9   70.55    4.23 
   3   1   9   62.48    4.25 
   4  -1   9    3.02    1.50 
   4   1   9    6.83    1.91 
   5  -1   9    1.09    1.33 
   5   1   9    6.78    2.04 
 -11  -2   9   11.82    2.36 
 -11   2   9   13.31    2.37 
 -10  -2   9    0.90    1.11 
 -10   2   9    0.70    1.07 
  -9  -2   9    1.72    1.09 
  -9   2   9    0.77    1.07 
  -8  -2   9   18.53    2.38 
  -8   2   9   21.52    2.66 
  -7  -2   9   68.32    3.66 
  -7   2   9   68.18    3.91 
  -6  -2   9   51.20    3.04 
  -6   2   9   57.45    3.40 
   5  -2  -9   68.28    3.57 
  -5  -2   9   67.42    3.36 
  -5   2   9   64.19    3.65 
  -4  -2   9  130.45    4.72 
  -4   2   9  117.91    5.11 
  -3  -2   9  130.09    4.70 
  -3   2   9  120.42    5.23 
  -2  -2   9   76.27    3.46 
  -2   2   9   76.78    4.07 
  -1  -2   9   31.17    2.25 
  -1   2   9   33.27    3.21 
   0  -2   9    1.55    0.89 
   0   2   9    1.25    1.07 
   1  -2   9    2.82    1.12 
   1   2   9    3.63    1.39 
   2  -2   9    7.11    1.61 
   2   2   9    4.26    1.45 
   3  -2   9   15.12    2.33 
   3   2   9   16.21    2.63 
   4  -2   9   42.72    4.03 
   4   2   9   43.02    4.38 
   5  -2   9   33.27    3.67 
   5   2   9   30.92    3.85 
 -11  -3   9   32.23    3.70 
 -11   3   9   28.78    3.39 
 -10  -3   9   53.58    3.86 
 -10   3   9   52.35    3.81 
  -9  -3   9   51.51    3.60 
  -9   3   9   43.24    3.94 
  -8  -3   9   86.99    4.48 
  -8   3   9   85.95    4.60 
  -7  -3   9   65.98    3.62 
  -7   3   9   62.43    3.76 
  -6  -3   9   14.53    1.91 
  -6   3   9   21.61    2.61 
  -5  -3   9   18.64    2.00 
   5  -3  -9   18.29    2.34 
  -5   3   9   12.71    2.00 
   4  -3  -9   10.38    1.78 
  -4  -3   9    9.42    1.44 
  -4   3   9    7.31    1.58 
   3  -3  -9    7.57    1.62 
  -3  -3   9    8.73    1.30 
  -3   3   9    8.81    1.72 
  -2  -3   9   46.23    2.50 
  -2   3   9   44.48    3.24 
  -1  -3   9   62.71    3.03 
  -1   3   9   67.40    4.04 
   0  -3   9   71.17    3.41 
   0   3   9   76.24    4.43 
   1  -3   9   48.81    2.98 
   1   3   9   52.71    3.78 
   2  -3   9   42.42    2.98 
   2   3   9   44.67    4.19 
   3  -3   9   52.98    3.47 
   3   3   9   44.02    4.44 
   4  -3   9   10.38    2.08 
   4   3   9   10.98    2.48 
   5  -3   9    7.49    1.95 
   5   3   9    5.80    2.06 
 -11  -4   9   10.22    2.26 
 -10  -4   9    2.13    1.32 
 -10   4   9   -0.68    1.08 
  -9  -4   9    2.53    1.22 
  -9   4   9    2.02    1.27 
  -8  -4   9   17.08    2.31 
  -8   4   9   17.17    2.54 
  -7  -4   9   35.75    2.71 
  -7   4   9   36.50    3.50 
  -6  -4   9   57.00    3.19 
  -6   4   9   58.74    3.71 
   5  -4  -9   88.03    4.46 
  -5  -4   9   80.59    3.62 
  -5   4   9   78.79    4.36 
   4  -4  -9   94.22    4.63 
  -4  -4   9   88.46    3.68 
  -4   4   9   96.22    4.76 
   3  -4  -9   99.40    4.81 
  -3  -4   9  100.12    3.80 
  -3   4   9   95.05    4.83 
   2  -4  -9   60.09    3.72 
  -2  -4   9   70.47    3.02 
  -2   4   9   71.59    4.17 
  -1  -4   9   40.65    2.30 
  -1   4   9   42.53    3.86 
   0  -4   9    1.68    0.83 
   0   4   9    0.97    1.16 
   1  -4   9   -0.07    0.69 
   1   4   9   -0.73    0.88 
   2  -4   9   -0.56    0.74 
   2   4   9    1.49    1.28 
   3  -4   9   28.52    2.97 
   3   4   9   34.61    3.93 
   4  -4   9   49.26    3.53 
   4   4   9   48.07    4.76 
 -10  -5   9   38.72    3.92 
  -9  -5   9   32.09    3.37 
  -8  -5   9   61.24    3.78 
  -8   5   9   61.89    4.07 
  -7  -5   9   50.31    3.21 
  -7   5   9   56.53    3.78 
  -6  -5   9   15.05    1.96 
  -6   5   9   13.65    2.33 
   5  -5  -9   13.45    2.22 
  -5  -5   9   12.50    1.67 
  -5   5   9   11.30    2.06 
  -4  -5   9    4.09    0.99 
   4  -5  -9    5.57    1.56 
  -4   5   9    7.43    1.77 
  -3  -5   9    4.79    1.00 
   3  -5  -9    2.62    1.31 
  -3   5   9    4.25    1.49 
  -2  -5   9   29.44    1.87 
   2  -5  -9   37.22    3.55 
  -2   5   9   37.92    3.67 
   1  -5  -9   56.26    3.85 
  -1  -5   9   54.49    2.52 
  -1   5   9   49.46    3.69 
   0  -5   9   67.51    3.00 
   0   5   9   71.97    4.61 
   1  -5   9   59.08    2.98 
   1   5   9   57.44    4.21 
   2  -5   9   43.42    2.79 
   2   5   9   40.77    4.28 
   3  -5   9   40.99    2.92 
   3   5   9   43.59    4.46 
   4  -5   9    6.37    1.69 
   4   5   9    6.12    2.12 
 -10  -6   9    0.57    1.23 
  -9  -6   9   -0.16    1.01 
  -8  -6   9    6.74    1.64 
  -7  -6   9   45.61    3.15 
  -7   6   9   51.87    3.81 
   6  -6  -9   52.84    3.82 
  -6  -6   9   42.60    2.82 
  -6   6   9   46.74    3.55 
   5  -6  -9   75.33    4.46 
  -5  -6   9   75.56    3.52 
  -5   6   9   83.23    4.68 
  -4  -6   9   98.63    3.86 
   4  -6  -9  102.65    5.27 
  -4   6   9   96.12    5.19 
   3  -6  -9   76.76    4.55 
  -3  -6   9   76.88    3.10 
  -3   6   9   79.86    4.68 
   2  -6  -9   51.37    4.53 
  -2  -6   9   41.36    2.12 
  -2   6   9   41.11    4.02 
   1  -6  -9   19.19    2.87 
  -1  -6   9   20.19    1.68 
  -1   6   9   20.65    3.03 
   0  -6   9    2.19    0.80 
   0   6   9    4.78    1.68 
   1  -6   9    1.83    0.90 
   1   6   9    0.79    1.31 
   2  -6   9    9.42    1.58 
   2   6   9    6.34    2.03 
   3  -6   9   12.68    1.92 
   3   6   9   17.55    3.05 
  -9  -7   9   23.45    3.02 
  -8  -7   9   30.48    3.17 
  -7  -7   9   36.28    3.24 
  -6  -7   9   15.92    2.08 
   6  -7  -9   16.05    2.64 
   5  -7  -9    9.64    2.24 
  -5  -7   9   12.70    1.71 
  -5   7   9   11.76    2.29 
  -4  -7   9    0.95    0.76 
   4  -7  -9    1.31    1.23 
  -4   7   9    2.15    1.44 
  -3  -7   9    5.88    1.05 
   3  -7  -9    5.27    1.87 
  -3   7   9    6.45    1.82 
   2  -7  -9   26.44    3.41 
  -2  -7   9   26.70    1.65 
  -2   7   9   32.05    3.75 
   1  -7  -9   26.53    3.33 
  -1  -7   9   24.95    1.56 
  -1   7   9   31.71    3.79 
   0  -7   9   54.72    2.41 
   0   7   9   59.66    5.21 
   1  -7   9   51.11    2.55 
   1   7   9   54.03    5.08 
   2  -7   9   37.95    2.40 
   2   7   9   40.83    4.55 
  -8  -8   9    5.70    1.65 
  -7  -8   9   22.89    2.68 
  -6  -8   9   42.39    2.90 
   6  -8  -9   45.62    4.46 
  -5  -8   9   77.91    3.66 
   5  -8  -9   87.39    5.19 
   4  -8  -9   61.55    4.47 
  -4  -8   9   56.30    2.84 
   3  -8  -9   32.97    3.86 
  -3  -8   9   36.14    2.04 
  -2  -8   9   47.18    2.14 
   2  -8  -9   47.40    4.60 
   1  -8  -9   27.55    3.68 
  -1  -8   9   23.27    1.40 
   0  -8  -9    2.67    1.89 
  -6  -9   9    7.63    1.59 
   6  -9  -9   10.19    2.49 
   5  -9  -9    4.35    1.79 
  -5  -9   9    6.51    1.38 
  -4  -9   9    0.58    0.80 
   4  -9  -9    2.06    1.58 
  -3  -9   9    4.23    0.95 
   3  -9  -9    4.05    1.85 
  -2  -9   9   31.55    1.66 
   2  -9  -9   30.41    3.95 
   1  -9  -9   33.51    4.12 
 -11   0  10   47.80    4.49 
 -10   0  10   50.19    3.76 
  -9   0  10   12.92    2.32 
  -8   0  10   11.80    2.07 
  -7   0  10    2.55    1.18 
  -6   0  10    8.28    1.66 
  -5   0  10   30.71    2.91 
  -4   0  10   33.63    2.55 
  -3   0  10   39.42    2.83 
  -2   0  10   94.74    4.52 
  -1   0  10   90.47    4.54 
   0   0  10   79.93    4.40 
   1   0  10   51.10    3.66 
   2   0  10   20.19    2.82 
   3   0  10    5.13    1.75 
   4   0  10    1.49    1.33 
 -11  -1  10   -0.07    1.07 
 -11   1  10    0.93    1.27 
 -10  -1  10   17.92    2.66 
 -10   1  10   15.94    2.57 
  -9  -1  10   22.65    2.86 
  -9   1  10   17.11    2.50 
  -8  -1  10   35.42    3.35 
  -8   1  10   40.97    3.70 
  -7  -1  10   64.19    3.77 
  -7   1  10   63.58    3.87 
  -6  -1  10  102.47    4.62 
  -6   1  10   96.04    4.70 
  -5  -1  10   77.38    3.90 
  -5   1  10   79.13    4.12 
  -4  -1  10   44.83    2.90 
  -4   1  10   46.92    3.18 
  -3  -1  10   45.99    2.91 
  -3   1  10   42.49    3.02 
  -2  -1  10    5.14    1.36 
  -2   1  10    7.72    1.65 
  -1  -1  10   -0.53    0.68 
  -1   1  10    1.34    1.04 
   0  -1  10    8.10    1.70 
   0   1  10    7.72    1.79 
   1  -1  10   50.93    3.54 
   1   1  10   42.74    4.02 
   2  -1  10   23.21    2.96 
   2   1  10   21.66    2.96 
   3  -1  10   31.37    3.51 
   3   1  10   33.79    3.82 
   4  -1  10   33.32    3.87 
   4   1  10   45.89    4.61 
 -11  -2  10   38.02    3.96 
 -11   2  10   35.63    3.90 
 -10  -2  10   42.49    4.01 
 -10   2  10   44.79    4.17 
  -9  -2  10   20.14    2.68 
  -9   2  10   17.48    2.58 
  -8  -2  10   14.77    2.30 
  -8   2  10   11.97    2.16 
  -7  -2  10    4.05    1.24 
  -7   2  10    2.56    1.23 
  -6  -2  10    1.23    0.93 
  -6   2  10   -0.36    0.77 
  -5  -2  10   14.42    1.94 
  -5   2  10   14.11    2.10 
  -4  -2  10   47.54    2.94 
  -4   2  10   49.50    3.33 
  -3  -2  10   75.39    3.68 
  -3   2  10   77.09    4.22 
  -2  -2  10   78.28    3.79 
  -2   2  10   80.42    4.45 
  -1  -2  10   63.22    3.47 
  -1   2  10   57.89    3.89 
   0  -2  10   88.74    4.33 
   0   2  10   91.29    5.01 
   1  -2  10   55.97    3.58 
   1   2  10   48.25    4.46 
   2  -2  10   13.41    2.22 
   2   2  10   12.78    2.54 
   3  -2  10    9.51    2.05 
   3   2  10    4.02    1.77 
 -11  -3  10    0.03    1.16 
 -11   3  10    0.22    1.20 
 -10  -3  10   20.27    2.82 
 -10   3  10   20.51    2.89 
  -9  -3  10   37.63    3.63 
  -9   3  10   32.72    3.48 
  -8  -3  10   43.62    3.19 
  -8   3  10   38.98    3.72 
  -7  -3  10   53.81    3.38 
  -7   3  10   52.89    3.67 
  -6  -3  10   50.27    3.14 
  -6   3  10   54.94    3.63 
  -5  -3  10   63.16    3.41 
  -5   3  10   64.85    3.99 
  -4  -3  10   58.22    3.10 
  -4   3  10   53.18    3.65 
  -3  -3  10   33.01    2.32 
  -3   3  10   36.08    3.48 
  -2  -3  10    7.01    1.37 
  -2   3  10    7.09    1.79 
  -1  -3  10   -0.49    0.65 
  -1   3  10    1.23    1.19 
   0  -3  10    2.21    1.05 
   0   3  10    3.65    1.49 
   1  -3  10   22.05    2.55 
   1   3  10   15.33    2.67 
   2  -3  10   22.09    2.72 
   2   3  10   22.87    3.19 
   3  -3  10   43.72    4.00 
   3   3  10   53.57    5.06 
 -10  -4  10   52.64    4.59 
 -10   4  10   46.41    4.34 
  -9  -4  10   23.95    2.92 
  -9   4  10   27.33    3.26 
  -8  -4  10   11.25    2.02 
  -8   4  10    8.99    2.05 
  -7  -4  10    1.44    0.99 
  -7   4  10    2.22    1.37 
  -6  -4  10    4.83    1.30 
  -6   4  10    3.25    1.35 
  -5  -4  10   19.16    2.15 
  -5   4  10   20.83    2.79 
  -4  -4  10   15.06    1.84 
  -4   4  10   12.50    2.18 
  -3  -4  10   46.09    2.70 
  -3   4  10   49.60    4.32 
  -2  -4  10  133.74    4.74 
  -2   4  10  112.90    5.79 
  -1  -4  10   73.35    3.47 
  -1   4  10   75.00    4.62 
   0  -4  10   62.16    3.34 
   0   4  10   65.89    4.47 
   1  -4  10   28.69    2.80 
   1   4  10   24.13    3.28 
   2  -4  10    8.56    1.78 
   2   4  10    9.68    2.30 
   3  -4  10   10.18    2.03 
   3   4  10    9.81    2.45 
 -10  -5  10   19.94    2.90 
  -9  -5  10   24.71    3.01 
  -9   5  10   26.59    3.35 
  -8  -5  10   22.55    2.78 
  -8   5  10   24.12    3.18 
   7  -5 -10   57.58    3.95 
  -7  -5  10   51.69    3.34 
  -7   5  10   57.27    4.06 
   6  -5 -10   68.79    4.35 
  -6  -5  10   69.56    3.61 
  -6   5  10   63.21    4.21 
   5  -5 -10   74.72    4.40 
  -5  -5  10   73.19    3.58 
  -5   5  10   74.07    4.52 
  -4  -5  10   47.10    2.73 
  -4   5  10   44.12    4.21 
  -3  -5  10   25.36    2.21 
  -3   5  10   22.69    3.09 
  -2  -5  10    5.82    1.17 
  -2   5  10    1.23    1.28 
  -1  -5  10    0.78    0.75 
  -1   5  10    1.62    1.35 
   0  -5  10    4.10    1.17 
   0   5  10    3.14    1.55 
   1  -5  10   26.57    2.60 
   1   5  10   25.31    3.50 
   2  -5  10   33.14    3.04 
   2   5  10   21.97    3.39 
  -9  -6  10    9.79    2.07 
  -8  -6  10    7.13    1.72 
  -7  -6  10    1.73    1.07 
   7  -6 -10    3.06    1.65 
  -7   6  10    0.96    1.28 
  -6  -6  10    1.19    0.88 
   6  -6 -10   -0.21    1.19 
  -6   6  10    0.21    1.08 
  -5  -6  10   15.48    1.89 
   5  -6 -10   14.50    2.57 
  -5   6  10   14.55    2.51 
   4  -6 -10   38.02    3.99 
  -4  -6  10   33.06    2.29 
  -4   6  10   41.57    4.08 
  -3  -6  10   35.07    2.18 
  -3   6  10   34.99    3.85 
  -2  -6  10   45.35    2.43 
  -2   6  10   45.21    4.38 
  -1  -6  10   44.68    2.48 
  -1   6  10   42.71    4.35 
   0  -6  10   75.98    3.41 
   0   6  10   74.01    4.98 
   1  -6  10   47.97    2.88 
   1   6  10   44.65    4.69 
  -8  -7  10   22.45    2.75 
  -7  -7  10   45.20    3.16 
   7  -7 -10   48.54    4.64 
  -6  -7  10   65.74    3.57 
   6  -7 -10   67.18    4.67 
   5  -7 -10   52.72    4.82 
  -5  -7  10   51.86    2.95 
  -5   7  10   49.01    4.63 
  -4  -7  10   24.58    2.19 
   4  -7 -10   27.35    3.47 
  -4   7  10   24.31    3.31 
  -3  -7  10   28.54    1.97 
   3  -7 -10   23.13    3.25 
  -3   7  10   25.37    3.35 
  -2  -7  10    5.49    1.07 
  -2   7  10    4.85    1.94 
  -1  -7  10    0.01    0.63 
  -1   7  10   -0.82    1.12 
   0  -7  10    5.69    1.17 
   0   7  10    7.28    2.28 
   6  -8 -10    0.63    1.40 
  -6  -8  10    0.53    0.98 
  -5  -8  10    9.73    1.60 
   5  -8 -10    7.70    2.15 
   4  -8 -10   18.26    3.03 
  -4  -8  10   22.85    2.11 
   3  -8 -10   31.92    4.05 
  -3  -8  10   26.48    1.90 
  -2  -8  10   52.54    2.46 
  -1  -8  10   49.83    2.32 
 -10   0  11   35.82    3.82 
  -9   0  11   22.91    2.91 
  -8   0  11   44.74    3.97 
  -7   0  11   34.79    3.45 
  -6   0  11   39.68    3.59 
  -5   0  11   16.23    2.32 
  -4   0  11    0.87    0.95 
  -3   0  11    0.41    0.92 
  -2   0  11   19.37    2.58 
  -1   0  11   41.90    3.88 
   0   0  11   42.76    4.01 
   1   0  11   57.39    4.14 
   2   0  11   66.70    4.56 
 -10  -1  11    8.59    2.07 
 -10   1  11    9.34    2.25 
  -9  -1  11    1.10    1.12 
  -9   1  11   -0.59    0.95 
  -8  -1  11    3.33    1.38 
  -8   1  11    2.77    1.28 
  -7  -1  11   13.46    2.18 
  -7   1  11   17.39    2.49 
  -6  -1  11   21.32    2.59 
  -6   1  11   17.15    2.44 
  -5  -1  11   60.24    3.63 
  -5   1  11   65.76    3.99 
  -4  -1  11   40.33    2.96 
  -4   1  11   43.13    3.22 
  -3  -1  11   31.50    3.07 
  -3   1  11   30.93    3.24 
  -2  -1  11   68.38    3.96 
  -2   1  11   67.19    4.20 
  -1  -1  11   28.53    3.05 
  -1   1  11   24.83    3.10 
   0  -1  11   20.84    2.78 
   0   1  11   18.76    2.77 
   1  -1  11    3.38    1.47 
   1   1  11    1.86    1.39 
   2  -1  11    4.14    1.58 
   2   1  11    7.22    2.06 
 -10  -2  11   34.92    3.78 
 -10   2  11   33.94    3.72 
  -9  -2  11   41.97    3.92 
  -9   2  11   40.08    3.90 
  -8  -2  11   57.67    3.81 
  -8   2  11   57.35    3.98 
  -7  -2  11   19.90    2.54 
  -7   2  11   18.91    2.68 
  -6  -2  11   24.78    2.70 
  -6   2  11   23.51    2.92 
  -5  -2  11   12.52    1.96 
  -5   2  11   13.39    2.23 
  -4  -2  11   -0.36    0.73 
  -4   2  11    2.05    1.20 
  -3  -2  11    0.58    0.91 
  -3   2  11    0.08    0.98 
  -2  -2  11   12.18    1.93 
  -2   2  11   11.44    2.21 
  -1  -2  11   31.61    3.12 
  -1   2  11   29.66    3.49 
   0  -2  11   52.73    3.53 
   0   2  11   41.22    4.18 
   1  -2  11   61.51    4.00 
   1   2  11   50.81    4.82 
   2  -2  11   43.20    4.06 
   2   2  11   37.21    4.13 
 -10  -3  11   14.26    2.49 
 -10   3  11   12.87    2.56 
  -9  -3  11   -0.48    0.91 
  -9   3  11   -0.05    1.13 
  -8  -3  11    5.26    1.57 
  -8   3  11    4.63    1.58 
  -7  -3  11   12.60    2.05 
  -7   3  11   10.05    2.06 
  -6  -3  11   12.05    1.91 
  -6   3  11    9.88    2.00 
  -5  -3  11   38.38    2.77 
  -5   3  11   41.69    3.89 
  -4  -3  11   64.66    3.54 
  -4   3  11   58.25    3.99 
  -3  -3  11   58.71    3.37 
  -3   3  11   63.38    4.25 
  -2  -3  11   67.96    3.71 
  -2   3  11   71.64    4.57 
  -1  -3  11   24.70    2.63 
  -1   3  11   23.07    3.14 
   0  -3  11   11.49    2.00 
   0   3  11   11.52    2.43 
   1  -3  11    5.65    1.68 
   1   3  11    2.64    1.58 
   2  -3  11    1.73    1.29 
   2   3  11    1.63    1.53 
  -9  -4  11   28.43    3.23 
  -9   4  11   23.05    3.17 
  -8  -4  11   46.42    3.41 
  -8   4  11   43.90    4.32 
  -7  -4  11   19.63    2.54 
  -7   4  11   29.72    3.49 
  -6  -4  11   22.30    2.55 
  -6   4  11   30.48    3.45 
  -5  -4  11   12.10    1.85 
  -5   4  11   10.76    2.25 
  -4  -4  11    1.04    0.86 
  -4   4  11    0.56    1.23 
  -3  -4  11    1.10    0.91 
  -3   4  11    3.06    1.47 
  -2  -4  11   16.64    2.07 
  -2   4  11   23.18    3.29 
  -1  -4  11   24.20    2.54 
  -1   4  11   21.64    3.15 
   0  -4  11   23.10    2.64 
   0   4  11   21.75    3.25 
   1  -4  11   48.50    3.40 
   1   4  11   57.04    5.27 
  -8  -5  11    1.33    1.09 
  -8   5  11    1.13    1.36 
  -7  -5  11   13.62    2.11 
  -7   5  11   16.95    2.74 
  -6  -5  11   17.03    2.26 
  -6   5  11   14.12    2.58 
  -5  -5  11   35.35    2.63 
  -5   5  11   37.69    4.02 
  -4  -5  11   39.64    2.66 
  -4   5  11   41.60    4.17 
  -3  -5  11   34.53    2.42 
  -3   5  11   35.95    3.98 
  -2  -5  11   49.22    2.93 
  -2   5  11   52.52    4.82 
  -1  -5  11   28.52    2.63 
  -1   5  11   24.65    3.45 
   0  -5  11   11.67    1.89 
   0   5  11   10.03    2.51 
  -7  -6  11   21.44    2.56 
  -7   6  11   16.47    2.82 
  -6  -6  11   24.95    2.64 
  -6   6  11   25.58    3.51 
  -5  -6  11    9.34    1.63 
  -5   6  11    8.08    2.09 
  -4  -6  11    0.55    0.79 
  -4   6  11    0.50    1.27 
  -3  -6  11    0.04    0.77 
  -3   6  11    0.88    1.43 
  -2  -6  11    7.79    1.41 
  -2   6  11    5.81    2.08 
  -1  -6  11   30.50    2.62 
  -1   6  11   33.96    4.17 
  -6  -7  11   18.88    2.34 
  -5  -7  11   43.04    2.84 
  -4  -7  11   27.25    2.47 
  -4   7  11   33.54    4.17 
  -3  -7  11   14.67    1.79 
  -3   7  11   20.74    3.36 
  -2  -7  11   41.16    2.45 
  -2   7  11   32.92    4.11 
  -9   0  12    8.24    2.03 
  -8   0  12   34.14    3.61 
  -7   0  12   81.51    4.71 
  -6   0  12   43.34    3.95 
  -5   0  12   37.42    3.69 
  -4   0  12   28.48    3.22 
  -3   0  12   26.53    3.15 
  -2   0  12    4.85    1.63 
  -1   0  12    1.50    1.31 
   0   0  12    2.80    1.48 
  -9  -1  12   19.07    2.84 
  -9   1  12   24.76    3.30 
  -8  -1  12   31.44    3.46 
  -8   1  12   31.23    3.47 
  -7  -1  12    4.26    1.54 
  -7   1  12    6.51    1.85 
  -6  -1  12    1.24    0.99 
  -6   1  12    0.64    1.08 
  -5  -1  12    0.79    0.97 
  -5   1  12    0.41    1.03 
  -4  -1  12   29.12    3.13 
  -4   1  12   21.28    2.96 
  -3  -1  12   30.98    3.33 
  -3   1  12   29.74    3.47 
  -2  -1  12   33.81    3.50 
  -2   1  12   34.95    3.77 
  -1  -1  12   48.81    3.70 
  -1   1  12   47.76    4.48 
   0  -1  12   54.62    4.00 
   0   1  12   45.57    4.53 
  -9  -2  12   16.37    2.56 
  -9   2  12   17.12    2.81 
  -8  -2  12   31.70    3.41 
  -8   2  12   27.72    3.40 
  -7  -2  12   41.12    3.75 
  -7   2  12   38.72    3.96 
  -6  -2  12   31.88    3.27 
  -6   2  12   20.03    2.89 
  -5  -2  12   66.37    3.93 
  -5   2  12   57.37    4.09 
  -4  -2  12   45.62    3.28 
  -4   2  12   44.44    4.16 
  -3  -2  12   18.31    2.49 
  -3   2  12   19.09    2.91 
  -2  -2  12    7.46    1.77 
  -2   2  12    7.15    1.99 
  -1  -2  12    0.09    0.99 
  -1   2  12    0.28    1.19 
   0  -2  12    5.37    1.68 
   0   2  12    1.52    1.51 
  -8  -3  12   26.87    3.15 
  -8   3  12   23.22    3.29 
  -7  -3  12    3.28    1.29 
  -7   3  12    1.49    1.42 
  -6  -3  12   -0.83    0.89 
  -6   3  12   -0.28    1.06 
  -5  -3  12    1.80    1.12 
  -5   3  12    0.94    1.20 
  -4  -3  12   21.15    2.55 
  -4   3  12   28.78    3.52 
  -3  -3  12   32.30    3.17 
  -3   3  12   33.05    3.85 
  -2  -3  12   34.73    3.29 
  -2   3  12   33.01    3.84 
  -1  -3  12   34.44    3.40 
  -1   3  12   31.25    3.86 
   0  -3  12   36.56    3.65 
   0   3  12   43.37    4.67 
  -8  -4  12   22.08    2.87 
  -8   4  12   18.82    2.99 
  -7  -4  12   48.83    3.47 
  -7   4  12   45.62    4.45 
  -6  -4  12   21.71    2.60 
  -6   4  12   21.74    3.19 
  -5  -4  12   53.30    3.42 
  -5   4  12   59.53    5.13 
  -4  -4  12   38.06    2.92 
  -4   4  12   46.81    4.50 
  -3  -4  12   23.46    2.61 
  -3   4  12   20.58    3.14 
  -2  -4  12    6.08    1.53 
  -2   4  12    7.29    2.01 
  -1  -4  12    2.51    1.27 
  -1   4  12   -0.01    1.37 
  -6  -5  12    0.71    0.98 
  -6   5  12   -0.80    1.11 
  -5  -5  12    0.78    0.96 
  -5   5  12    0.90    1.41 
  -4  -5  12   12.82    1.96 
  -4   5  12   15.76    2.93 
  -3  -5  12   24.85    2.61 
  -2  -5  12   27.92    2.80 
  -2   5  12   31.72    3.97 
  -7   0  13    4.87    1.75 
  -6   0  13   16.16    2.64 
  -5   0  13   17.95    2.82 
  -4   0  13   25.09    3.23 
  -3   0  13   40.79    4.16 
  -7  -1  13   53.19    3.95 
  -7   1  13   56.76    4.17 
  -6  -1  13   28.69    3.38 
  -6   1  13   26.45    3.33 
  -5  -1  13   21.37    2.95 
  -5   1  13   25.05    3.35 
  -4  -1  13    7.49    1.93 
  -4   1  13   15.10    2.64 
  -3  -1  13    1.64    1.32 
  -3   1  13    0.66    1.29 
  -6  -2  13   21.64    2.89 
  -6   2  13   14.88    2.77 
  -5  -2  13   27.41    3.22 
  -5   2  13   31.73    3.71 
  -4  -2  13   34.39    3.59 
  -4   2  13   35.84    4.06 
  -3  -2  13   43.12    4.02 
  -3   2  13   36.88    4.14 
  -5  -3  13   24.43    2.97 
  -5   3  13   21.91    3.22 
   0   0   0    0.00    0.00 
;
_shelx_hkl_checksum              30419
loop_
_space_group_symop_operation_xyz
'x, y, z'
'-x, y+1/2, -z'
'-x, -y, -z'
'x, -y-1/2, z'
loop_
_atom_site_label
_atom_site_type_symbol
_atom_site_fract_x
_atom_site_fract_y
_atom_site_fract_z
_atom_site_U_iso_or_equiv
_atom_site_adp_type
_atom_site_occupancy
_atom_site_site_symmetry_order
_atom_site_calc_flag
_atom_site_refinement_flags_posn
_atom_site_refinement_flags_adp
_atom_site_refinement_flags_occupancy
_atom_site_disorder_assembly
_atom_site_disorder_group
W1 W 0.54867(2) 0.2500 0.85643(2) 0.01164(6) Uani 1 2 d S T P . .
C1 C 0.4999(5) 0.2500 1.0346(5) 0.0189(11) Uani 1 2 d S T P . .
O1 O 0.4769(4) 0.2500 1.1398(4) 0.0277(9) Uani 1 2 d S T P . .
C2 C 0.3929(4) 0.4032(4) 0.7691(4) 0.0181(7) Uani 1 1 d . . . . .
O2 O 0.3071(3) 0.4893(3) 0.7234(3) 0.0254(6) Uani 1 1 d . . . . .
C4 C 0.7012(4) 0.0950(4) 0.9469(3) 0.0152(7) Uani 1 1 d . . . . .
O4 O 0.7824(3) 0.0064(3) 0.9992(3) 0.0246(6) Uani 1 1 d . . . . .
C6 C 0.6150(5) 0.2500 0.6614(5) 0.0121(9) Uani 1 2 d S T P A .
N1 N 0.5195(4) 0.2500 0.5237(4) 0.0148(8) Uani 1 2 d S T P . .
H1 H 0.5613 0.2500 0.4591 0.018 Uiso 1 2 calc R U P . .
C7 C 0.7740(5) 0.2500 0.6758(5) 0.0139(10) Uani 1 2 d DS T P . .
S1 S 0.8322(3) 0.2500 0.5349(5) 0.0219(8) Uani 0.564(6) 2 d DS T P A 1
C8 C 0.9064(13) 0.2500 0.8030(12) 0.008(3) Uiso 0.564(6) 2 d DS . P A 1
H8 H 0.9044 0.2500 0.8973 0.009 Uiso 0.564(6) 2 calc R U P A 1
S1A S 0.9142(5) 0.2500 0.8379(5) 0.0155(10) Uani 0.436(6) 2 d DS T P A 2
C8A C 0.8404(19) 0.2500 0.570(2) 0.040(10) Uiso 0.436(6) 2 d DS . P A 2
H8A H 0.7832 0.2500 0.4685 0.048 Uiso 0.436(6) 2 calc R U P A 2
C9 C 1.0460(6) 0.2500 0.7778(6) 0.0232(12) Uani 1 2 d DS T P . .
H9 H 1.1457 0.2500 0.8495 0.028 Uiso 1 2 calc R U P A 1
C10 C 1.0074(7) 0.2500 0.6345(6) 0.0325(14) Uani 1 2 d DS T P A .
H10 H 1.0820 0.2500 0.5934 0.039 Uiso 1 2 calc R U P B 1
C11 C 0.3558(5) 0.2500 0.4660(5) 0.0155(10) Uani 1 2 d S T P . .
H11 H 0.3207 0.2500 0.5482 0.019 Uiso 1 2 calc R U P . .
C12 C 0.2961(4) 0.3799(4) 0.3745(4) 0.0202(8) Uani 1 1 d . . . . .
H12A H 0.3334 0.4629 0.4355 0.024 Uiso 1 1 calc R U . . .
H12B H 0.3342 0.3830 0.2953 0.024 Uiso 1 1 calc R U . . .
C13 C 0.1236(4) 0.3799(4) 0.3104(4) 0.0228(8) Uani 1 1 d . . . . .
H13A H 0.0860 0.3864 0.3897 0.027 Uiso 1 1 calc R U . . .
H13B H 0.0869 0.4618 0.2475 0.027 Uiso 1 1 calc R U . . .
C14 C 0.0611(6) 0.2500 0.2227(6) 0.0268(13) Uani 1 2 d S T P . .
H14A H 0.0873 0.2500 0.1360 0.032 Uiso 1 2 calc R U P . .
H14B H -0.0504 0.2500 0.1895 0.032 Uiso 1 2 calc R U P . .
loop_
_atom_site_aniso_label
_atom_site_aniso_U_11
_atom_site_aniso_U_22
_atom_site_aniso_U_33
_atom_site_aniso_U_23
_atom_site_aniso_U_13
_atom_site_aniso_U_12
W1 0.01210(10) 0.01123(10) 0.01100(9) 0.000 0.00375(7) 0.000
C1 0.015(2) 0.014(3) 0.024(3) 0.000 0.003(2) 0.000
O1 0.035(2) 0.028(2) 0.027(2) 0.000 0.0199(19) 0.000
C2 0.0193(18) 0.019(2) 0.0142(17) -0.0053(13) 0.0044(15) -0.0028(16)
O2 0.0240(14) 0.0218(15) 0.0259(14) -0.0023(11) 0.0047(12) 0.0081(12)
C4 0.0167(17) 0.0147(19) 0.0167(17) -0.0025(13) 0.0093(14) -0.0064(15)
O4 0.0261(14) 0.0181(14) 0.0250(14) 0.0060(10) 0.0046(12) 0.0052(12)
C6 0.019(2) 0.002(2) 0.011(2) 0.000 0.0011(19) 0.000
N1 0.018(2) 0.014(2) 0.013(2) 0.000 0.0064(17) 0.000
C7 0.016(2) 0.010(2) 0.016(2) 0.000 0.006(2) 0.000
S1 0.0156(14) 0.0363(19) 0.0113(16) 0.000 0.0025(10) 0.000
S1A 0.0172(18) 0.024(2) 0.007(2) 0.000 0.0060(15) 0.000
C9 0.016(3) 0.017(3) 0.030(3) 0.000 0.002(2) 0.000
C10 0.036(3) 0.038(4) 0.038(3) 0.000 0.029(3) 0.000
C11 0.018(2) 0.016(3) 0.011(2) 0.000 0.003(2) 0.000
C12 0.0170(18) 0.0147(19) 0.0260(19) 0.0023(14) 0.0048(16) -0.0013(15)
C13 0.023(2) 0.0148(19) 0.0237(19) 0.0063(14) 0.0006(16) 0.0039(15)
C14 0.025(3) 0.023(3) 0.020(3) 0.000 -0.006(2) 0.000
loop_
_atom_type_symbol
_atom_type_description
_atom_type_scat_dispersion_real
_atom_type_scat_dispersion_imag
_atom_type_scat_source
C C 0.0033 0.0016 'International Tables Vol C Tables 4.2.6.8 and 6.1.1.4'
H H 0.0000 0.0000 'International Tables Vol C Tables 4.2.6.8 and 6.1.1.4'
N N 0.0061 0.0033 'International Tables Vol C Tables 4.2.6.8 and 6.1.1.4'
O O 0.0106 0.0060 'International Tables Vol C Tables 4.2.6.8 and 6.1.1.4'
S S 0.1246 0.1234 'International Tables Vol C Tables 4.2.6.8 and 6.1.1.4'
W W -0.8490 6.8722 'International Tables Vol C Tables 4.2.6.8 and 6.1.1.4'
loop_
_geom_angle_atom_site_label_1
_geom_angle_atom_site_label_2
_geom_angle_atom_site_label_3
_geom_angle
_geom_angle_site_symmetry_1
_geom_angle_site_symmetry_3
C1 W1 C2 89.98(13) . .
C1 W1 C2 89.98(14) . 4_565
C2 W1 C2 92.91(19) . 4_565
C1 W1 C4 88.66(13) . 4_565
C2 W1 C4 86.38(13) . 4_565
C2 W1 C4 178.46(14) 4_565 4_565
C1 W1 C4 88.65(13) . .
C2 W1 C4 178.46(14) . .
C2 W1 C4 86.38(13) 4_565 .
C4 W1 C4 94.30(18) 4_565 .
C1 W1 C6 177.43(18) . .
C2 W1 C6 91.79(12) . .
C2 W1 C6 91.79(12) 4_565 .
C4 W1 C6 89.60(12) 4_565 .
C4 W1 C6 89.60(12) . .
O1 C1 W1 177.7(4) . .
O2 C2 W1 178.6(3) . .
O4 C4 W1 177.5(3) . .
N1 C6 C7 112.2(4) . .
N1 C6 W1 125.5(3) . .
C7 C6 W1 122.3(3) . .
C6 N1 C11 128.6(4) . .
C6 N1 H1 115.7 . .
C11 N1 H1 115.7 . .
C8 C7 C6 128.8(6) . .
C8A C7 C6 131.6(8) . .
C8A C7 S1A 107.4(8) . .
C6 C7 S1A 121.0(4) . .
C8 C7 S1 106.2(6) . .
C6 C7 S1 124.9(3) . .
C10 S1 C7 94.8(3) . .
C7 C8 C9 114.4(8) . .
C7 C8 H8 122.8 . .
C9 C8 H8 122.8 . .
C9 S1A C7 95.4(4) . .
C7 C8A C10 113.0(13) . .
C7 C8A H8A 123.5 . .
C10 C8A H8A 123.5 . .
C10 C9 C8 106.9(6) . .
C10 C9 S1A 118.1(5) . .
C10 C9 H9 126.6 . .
C8 C9 H9 126.6 . .
C9 C10 C8A 106.1(8) . .
C9 C10 S1 117.7(5) . .
C9 C10 H10 121.2 . .
S1 C10 H10 121.2 . .
N1 C11 C12 109.7(3) . .
N1 C11 C12 109.7(3) . 4_565
C12 C11 C12 110.4(4) . 4_565
N1 C11 H11 109.0 . .
C12 C11 H11 109.0 . .
C12 C11 H11 109.0 4_565 .
C13 C12 C11 110.3(3) . .
C13 C12 H12A 109.6 . .
C11 C12 H12A 109.6 . .
C13 C12 H12B 109.6 . .
C11 C12 H12B 109.6 . .
H12A C12 H12B 108.1 . .
C14 C13 C12 111.4(3) . .
C14 C13 H13A 109.3 . .
C12 C13 H13A 109.3 . .
C14 C13 H13B 109.3 . .
C12 C13 H13B 109.3 . .
H13A C13 H13B 108.0 . .
C13 C14 C13 111.8(4) . 4_565
C13 C14 H14A 109.3 . .
C13 C14 H14A 109.3 4_565 .
C13 C14 H14B 109.3 . .
C13 C14 H14B 109.3 4_565 .
H14A C14 H14B 107.9 . .
loop_
_geom_bond_atom_site_label_1
_geom_bond_atom_site_label_2
_geom_bond_distance
_geom_bond_site_symmetry_2
W1 C1 2.006(5) .
W1 C2 2.048(4) .
W1 C2 2.048(4) 4_565
W1 C4 2.048(4) 4_565
W1 C4 2.048(4) .
W1 C6 2.269(5) .
C1 O1 1.153(6) .
C2 O2 1.137(4) .
C4 O4 1.142(4) .
C6 N1 1.330(5) .
C6 C7 1.473(6) .
N1 C11 1.449(6) .
N1 H1 0.8800 .
C7 C8 1.411(12) .
C7 C8A 1.428(16) .
C7 S1A 1.663(6) .
C7 S1 1.701(6) .
S1 C10 1.590(7) .
C8 C9 1.451(12) .
C8 H8 0.9500 .
S1A C9 1.591(7) .
C8A C10 1.477(16) .
C8A H8A 0.9500 .
C9 C10 1.335(8) .
C9 H9 0.9500 .
C10 H10 0.9500 .
C11 C12 1.532(4) .
C11 C12 1.532(4) 4_565
C11 H11 1.0000 .
C12 C13 1.526(5) .
C12 H12A 0.9900 .
C12 H12B 0.9900 .
C13 C14 1.520(4) .
C13 H13A 0.9900 .
C13 H13B 0.9900 .
C14 C13 1.520(4) 4_565
C14 H14A 0.9900 .
C14 H14B 0.9900 .
loop_
_geom_hbond_atom_site_label_D
_geom_hbond_atom_site_label_H
_geom_hbond_atom_site_label_A
_geom_hbond_distance_DH
_geom_hbond_distance_HA
_geom_hbond_distance_DA
_geom_hbond_angle_DHA
N1 H1 S1 0.88 2.41 2.952(5) 120.4
loop_
_geom_torsion_atom_site_label_1
_geom_torsion_atom_site_label_2
_geom_torsion_atom_site_label_3
_geom_torsion_atom_site_label_4
_geom_torsion
_geom_torsion_site_symmetry_1
_geom_torsion_site_symmetry_4
C7 C6 N1 C11 180.000(1) . .
W1 C6 N1 C11 0.000(2) . .
N1 C6 C7 C8 180.000(4) . .
W1 C6 C7 C8 0.000(4) . .
N1 C6 C7 C8A 0.000(5) . .
W1 C6 C7 C8A 180.000(5) . .
N1 C6 C7 S1A 180.000(2) . .
W1 C6 C7 S1A 0.000(2) . .
N1 C6 C7 S1 0.000(2) . .
W1 C6 C7 S1 180.000(1) . .
C8 C7 S1 C10 0.000(2) . .
C8A C7 S1 C10 0.000(9) . .
C6 C7 S1 C10 180.000(2) . .
S1A C7 S1 C10 0.000(2) . .
C8A C7 C8 C9 0.000(3) . .
C6 C7 C8 C9 180.000(2) . .
S1A C7 C8 C9 180.00(2) . .
S1 C7 C8 C9 0.000(3) . .
C8 C7 S1A C9 0.000(10) . .
C8A C7 S1A C9 0.000(2) . .
C6 C7 S1A C9 180.000(2) . .
S1 C7 S1A C9 0.000(2) . .
C8 C7 C8A C10 0.000(2) . .
C6 C7 C8A C10 180.000(3) . .
S1A C7 C8A C10 0.000(3) . .
S1 C7 C8A C10 180.00(3) . .
C7 C8 C9 C10 0.000(4) . .
C7 C8 C9 S1A 180.000(10) . .
C7 S1A C9 C10 0.000(2) . .
C7 S1A C9 C8 0.000(17) . .
C8 C9 C10 C8A 0.000(4) . .
S1A C9 C10 C8A 0.000(4) . .
C8 C9 C10 S1 0.000(2) . .
S1A C9 C10 S1 0.000(2) . .
C7 C8A C10 C9 0.000(5) . .
C7 C8A C10 S1 180.000(8) . .
C7 S1 C10 C9 0.000(2) . .
C7 S1 C10 C8A 0.000(19) . .
C6 N1 C11 C12 119.2(3) . .
C6 N1 C11 C12 -119.2(3) . 4_565
N1 C11 C12 C13 178.9(3) . .
C12 C11 C12 C13 57.8(5) 4_565 .
C11 C12 C13 C14 -56.0(4) . .
C12 C13 C14 C13 54.5(6) . 4_565
