#------------------------------------------------------------------------------
#$Date: 2016-03-22 21:29:58 +0200 (Tue, 22 Mar 2016) $
#$Revision: 179020 $
#$URL: svn://www.crystallography.net/cod/cif/4/12/18/4121820.cif $
#------------------------------------------------------------------------------
#
# This file is available in the Crystallography Open Database (COD),
# http://www.crystallography.net/
#
# All data on this site have been placed in the public domain by the
# contributors.
#
data_4121820
loop_
_publ_author_name
'Galer, Petra'
'Koro\<sec, Romana C'
'Vidmar, Maja'
'Sket, Boris'
_publ_section_title
;
 Crystal Structures and Emission Properties of the BF2 Complex
 1-Phenyl-3-(3,5-dimethoxyphenyl)-propane-1,3-dione: Multiple Chromisms,
 Aggregation- or Crystallization-Induced Emission, and the Self-Assembly
 Effect.
;
_journal_issue                   20
_journal_name_full               'Journal of the American Chemical Society'
_journal_page_first              7383
_journal_page_last               7394
_journal_paper_doi               10.1021/ja501977a
_journal_volume                  136
_journal_year                    2014
_chemical_formula_moiety         'C17 H15 B F2 O4'
_chemical_formula_sum            'C17 H15 B F2 O4'
_chemical_formula_weight         332.10
_chemical_name_systematic
;
 ?
;
_space_group_IT_number           2
_symmetry_cell_setting           triclinic
_symmetry_Int_Tables_number      2
_symmetry_space_group_name_Hall  '-P 1'
_symmetry_space_group_name_H-M   'P -1'
_atom_sites_solution_hydrogens   geom
_atom_sites_solution_primary     direct
_atom_sites_solution_secondary   difmap
_audit_creation_method           SHELXL-97
_cell_angle_alpha                112.019(9)
_cell_angle_beta                 99.514(7)
_cell_angle_gamma                101.435(7)
_cell_formula_units_Z            2
_cell_length_a                   8.0616(6)
_cell_length_b                   10.0960(9)
_cell_length_c                   10.8105(10)
_cell_measurement_reflns_used    1199
_cell_measurement_temperature    293(2)
_cell_measurement_theta_max      29.0539
_cell_measurement_theta_min      2.9288
_cell_volume                     771.20(14)
_computing_cell_refinement
;
CrysAlisPro, Agilent Technologies,
Version 1.171.36.20 (release 27-06-2012 CrysAlis171 .NET)
(compiled Jul 11 2012,15:38:31)
;
_computing_data_collection
;
CrysAlisPro, Agilent Technologies,
Version 1.171.36.20 (release 27-06-2012 CrysAlis171 .NET)
(compiled Jul 11 2012,15:38:31)
;
_computing_data_reduction
;
CrysAlisPro, Agilent Technologies,
Version 1.171.36.20 (release 27-06-2012 CrysAlis171 .NET)
(compiled Jul 11 2012,15:38:31)
;
_computing_molecular_graphics
;
Ortep-3 for Windows (Farrugia, 1997) and
Mercury 3.1 (C. F. Macrae et al., 2008)
;
_computing_publication_material
;
WinGX publication routines (Farrugia, 1999) and
Encifer 1.4 (F. H. Allen et al., 2004)
;
_computing_structure_refinement  'SHELXL-97 (Sheldrick, 2008)'
_computing_structure_solution    'SIR2008 (M. C. Burla et al., 2007)'
_diffrn_ambient_temperature      293(2)
_diffrn_detector_area_resol_mean 10.4933
_diffrn_measured_fraction_theta_full 0.9987
_diffrn_measured_fraction_theta_max 0.9868
_diffrn_measurement_device_type  'SuperNova, Dual, Cu at zero, Atlas'
_diffrn_measurement_method       '\w scans'
_diffrn_radiation_monochromator  mirror
_diffrn_radiation_source         'SuperNova (Mo) X-ray Source'
_diffrn_radiation_type           MoK\a
_diffrn_radiation_wavelength     0.71073
_diffrn_reflns_av_R_equivalents  0.0529
_diffrn_reflns_av_sigmaI/netI    0.1045
_diffrn_reflns_limit_h_max       10
_diffrn_reflns_limit_h_min       -9
_diffrn_reflns_limit_k_max       11
_diffrn_reflns_limit_k_min       -12
_diffrn_reflns_limit_l_max       12
_diffrn_reflns_limit_l_min       -14
_diffrn_reflns_number            6783
_diffrn_reflns_theta_full        26.0006
_diffrn_reflns_theta_max         29.0539
_diffrn_reflns_theta_min         2.9288
_exptl_absorpt_coefficient_mu    0.115
_exptl_absorpt_correction_T_max  1.00000
_exptl_absorpt_correction_T_min  0.63316
_exptl_absorpt_correction_type   multi-scan
_exptl_absorpt_process_details
;
CrysAlisPro, Agilent Technologies,
Version 1.171.36.20 (release 27-06-2012 CrysAlis171 .NET)
(compiled Jul 11 2012,15:38:31)
Empirical absorption correction using spherical harmonics,
 implemented in SCALE3 ABSPACK scaling algorithm.
;
_exptl_crystal_colour            yellow
_exptl_crystal_density_diffrn    1.430
_exptl_crystal_density_method    'not measured'
_exptl_crystal_description       plate
_exptl_crystal_F_000             344
_exptl_crystal_size_max          0.33
_exptl_crystal_size_mid          0.06
_exptl_crystal_size_min          0.02
_refine_diff_density_max         0.211
_refine_diff_density_min         -0.256
_refine_diff_density_rms         0.048
_refine_ls_extinction_method     none
_refine_ls_goodness_of_fit_ref   1.022
_refine_ls_hydrogen_treatment    constr
_refine_ls_matrix_type           full
_refine_ls_number_parameters     219
_refine_ls_number_reflns         3511
_refine_ls_number_restraints     0
_refine_ls_restrained_S_all      1.022
_refine_ls_R_factor_all          0.1911
_refine_ls_R_factor_gt           0.0768
_refine_ls_shift/su_max          0.000
_refine_ls_shift/su_mean         0.000
_refine_ls_structure_factor_coef Fsqd
_refine_ls_weighting_details
'calc w=1/[\s^2^(Fo^2^)+(0.0656P)^2^+0.0154P] where P=(Fo^2^+2Fc^2^)/3'
_refine_ls_weighting_scheme      calc
_refine_ls_wR_factor_gt          0.1482
_refine_ls_wR_factor_ref         0.1982
_reflns_number_gt                1508
_reflns_number_total             3511
_reflns_threshold_expression     >2\s(I)
_iucr_refine_instructions_details
;
TITL PolymorphB in P-1 #2
CELL  0.71073   8.0616  10.0960  10.8105  112.019   99.514  101.435
ZERR     2.00   0.0006   0.0009   0.0010    0.009    0.007    0.007
LATT   1
SFAC  C    H    B    O    F
UNIT  34   30   2    8    4
MERG   2
MPLA 5 O1 C1 C2 C3 O3 B2
MPLA  6 C1' C2' C3' C4' C5' C6'
MPLA 6 C1" C2" C3" C4" C5" C6"
MPLA 5 O1 C1 C2 C3 O3 B2
FMAP   2
PLAN    5
ACTA
BOND   $H
CONF
WGHT     0.06530     0.01920
L.S.   5
FVAR     1.89283
O3    4    0.190864    0.776857    0.834760    11.00000    0.08435    0.04019 =
         0.04376    0.01089    0.03780    0.00715
O1    4    0.336268    0.894005    0.705562    11.00000    0.09970    0.03943 =
         0.04442    0.01330    0.04261    0.01261
C2    1    0.311703    1.033263    0.925205    11.00000    0.05227    0.03905 =
         0.03513    0.01489    0.02166    0.01428
AFIX  43
H2    2    0.337425    1.125960    0.999121    11.00000   -1.20000
AFIX   0
O5"   4    0.149353    1.169346    1.398996    11.00000    0.09814    0.04318 =
         0.04527    0.01471    0.03959    0.01651
C4"   1    0.051750    0.910860    1.285906    11.00000    0.05469    0.04933 =
         0.03503    0.02152    0.02169    0.01366
AFIX  43
H4"   2    0.018067    0.910661    1.364083    11.00000   -1.20000
AFIX   0
C3    1    0.222021    0.907394    0.934342    11.00000    0.03743    0.03985 =
         0.03714    0.01656    0.01479    0.01265
C1"   1    0.157121    0.910930    1.055066    11.00000    0.03751    0.04099 =
         0.03561    0.01783    0.01651    0.01586
F2    5    0.163174    0.651153    0.601086    11.00000    0.09653    0.05985 =
         0.05047    0.01111    0.02848    0.00502
C3"   1    0.023777    0.778885    1.173264    11.00000    0.04753    0.04053 =
         0.04262    0.02020    0.01809    0.01016
C2"   1    0.075822    0.777586    1.056693    11.00000    0.04839    0.03703 =
         0.03608    0.01056    0.01992    0.01013
AFIX  43
H2"   2    0.056201    0.687904    0.980431    11.00000   -1.20000
AFIX   0
C5"   1    0.130305    1.044514    1.283014    11.00000    0.04697    0.04200 =
         0.03288    0.01251    0.01640    0.01582
O3"   4   -0.052606    0.641823    1.165872    11.00000    0.08724    0.04449 =
         0.05102    0.02005    0.03688    0.00600
C1    1    0.363778    1.022818    0.806935    11.00000    0.04084    0.04664 =
         0.03777    0.01826    0.01567    0.01398
C6"   1    0.184318    1.046465    1.168797    11.00000    0.04514    0.03935 =
         0.04266    0.02088    0.02046    0.01599
AFIX  43
H6"   2    0.237834    1.136222    1.167405    11.00000   -1.20000
AFIX   0
C1'   1    0.450310    1.151590    0.785308    11.00000    0.04217    0.04347 =
         0.04788    0.02420    0.02283    0.01680
F1    5    0.421737    0.707273    0.752851    11.00000    0.08320    0.07418 =
         0.08509    0.04118    0.04153    0.02684
C6'   1    0.527588    1.290698    0.892728    11.00000    0.06580    0.04569 =
         0.05440    0.02302    0.02219    0.01177
AFIX  43
H6'   2    0.521015    1.306109    0.981946    11.00000   -1.20000
AFIX   0
B2    3    0.278017    0.755313    0.721400    11.00000    0.07520    0.04238 =
         0.04331    0.01150    0.02601    0.01014
C2'   1    0.461651    1.132235    0.653035    11.00000    0.08450    0.05180 =
         0.05318    0.02725    0.03743    0.02028
AFIX  43
H2'   2    0.410529    1.039144    0.579265    11.00000   -1.20000
AFIX   0
C4'   1    0.623169    1.386065    0.738330    11.00000    0.09085    0.05516 =
         0.10413    0.05182    0.05339    0.02965
AFIX  43
H4'   2    0.680889    1.465385    0.722800    11.00000   -1.20000
AFIX   0
C5'   1    0.614235    1.406723    0.868946    11.00000    0.08014    0.04224 =
         0.07844    0.02454    0.02619    0.00966
AFIX  43
H5'   2    0.667098    1.499869    0.942286    11.00000   -1.20000
AFIX   0
C8"   1    0.224588    1.310480    1.399730    11.00000    0.09849    0.04324 =
         0.05001    0.01167    0.03745    0.00971
AFIX 137
H8"A  2    0.343409    1.318701    1.393750    11.00000   -1.50000
H8"B  2    0.223209    1.388945    1.483873    11.00000   -1.50000
H8"C  2    0.157644    1.318528    1.322061    11.00000   -1.50000
AFIX   0
C7"   1   -0.097656    0.633557    1.285122    11.00000    0.10634    0.06263 =
         0.06294    0.03567    0.05005    0.01812
AFIX 137
H7"A  2    0.005468    0.677348    1.361467    11.00000   -1.50000
H7"B  2   -0.145982    0.531103    1.266724    11.00000   -1.50000
H7"C  2   -0.182852    0.686641    1.307639    11.00000   -1.50000
AFIX   0
C3'   1    0.547479    1.249044    0.630203    11.00000    0.11290    0.06928 =
         0.08047    0.05195    0.06095    0.04277
AFIX  43
H3'   2    0.554176    1.235058    0.541303    11.00000   -1.20000
AFIX   0
HKLF    4
END
;
_cod_data_source_file            ja501977a_si_003.cif
_cod_data_source_block           PolymorphB
_cod_depositor_comments
'Adding full bibliography for 4121820--4121821.cif.'
_cod_original_cell_volume        771.20(11)
_cod_database_code               4121820
#BEGIN Tags that were not found in dictionaries:
_shelx_hkl_file
;
   0  -3   1 2001.94 74.9891   3
   0  -3   0 3841.79 105.724   3
   0  -3   0 3892.68 139.794   5
   0   3   1 1777.95 80.9170   3
   0  -3  -1 1718.95 73.6136   3
   0  -3  -1 1792.87 102.204   5
   0  -3  -2 13.2803 17.7635   5
   0   3   2 16.5919 16.0068   2
   0  -3  -2 8.38243 11.7271   3
   0   3   2 20.3709 12.3021   6
   0  -3  -3 1294.79 104.746   5
   0   3   3 1279.14 74.0838   6
   0   3   3 1276.95 95.3246   2
   0  -3  -3 1227.40 68.7802   3
   0  -3  -4 214.287 46.6807   5
   0   3   4 187.448 30.7459   6
   0   3   4 239.814 45.8157   2
   0  -3  -4 180.629 29.6982   3
   0  -3  -5 17.7358 16.1308   3
   0  -3  -5-3.65595 14.0145   2
   0   3   5 1.15385 19.2463   2
   0   3   5-5.18077 11.8140   6
   0   3   6 132.575 26.7698   6
   0  -3  -6 138.849 28.6696   3
   0  -3  -6 99.3369 38.0817   2
   0  -3  -7 9.01020 14.4611   3
   0   3   7 17.7649 10.7450   6
   0  -3  -7-4.36976 18.3420   2
   0  -3  -8 61.7549 20.3772   3
   0  -3  -8-27.0452 32.2194   2
   0  -3  -9-17.0232 29.0386   2
   0  -3 -10 7.05544 24.1791   2
   0  -3 -11 55.0223 39.1686   2
   0   4 -13 28.6039 42.9879   2
   0   4 -12 139.385 59.4015   2
   0   4 -11 75.7488 27.9171   6
   0   4 -11 33.2856 29.8049   4
   0   4 -10 3.82397 16.5547   6
   0   4 -10 11.8227 11.8216   3
   0   4 -10 22.2855 29.9969   4
   0   4  -9 53.9312 33.4259   4
   0   4  -9 63.2956 24.2322   6
   0   4  -8 61.4435 31.8554   4
   0   4  -8 69.6195 26.1264   6
   0  -4   7 443.234 52.6604   3
   0  -4   6 133.157 29.6134   3
   0   4  -6 86.8708 18.8927   3
   0   4  -5 790.088 57.4221   3
   0  -4   5 781.663 60.9427   3
   0  -4   4 23.2781 11.3272   3
   0  -4   3 4756.83 133.126   3
   0  -4   3 4387.17 72.7469   1
   0  -4   2 8.91588 9.12587   3
   0   4  -2 10.2449 5.21713   1
   0  -4   1 4108.78 124.903   3
   0  -4   0 1234.63 70.3436   3
   0  -4   0 1294.47 92.9090   5
   0   4   0 1164.32 71.9211   3
   0  -4  -1 7.15533 13.3402   3
   0  -4  -1-0.87274 14.2772   5
   0   4   1-11.0907 12.6673   3
   0  -4  -2 290.153 52.4535   5
   0  -4  -2 344.481 40.6102   3
   0   4   2 319.005 42.3072   6
   0   4   3 87.8440 25.9684   2
   0   4   3 79.4021 22.9349   6
   0  -4  -3 131.204 38.4477   5
   0  -4  -3 118.433 28.0155   3
   0  -4  -4 19.8718 16.1723   3
   0  -4  -4 42.2928 30.5441   5
   0   4   4 57.3367 22.0924   6
   0   4   4 18.1663 21.9482   2
   0  -4  -5 50.3187 20.1800   3
   0   4   5 32.8147 15.6054   6
   0  -4  -5 25.6955 24.3934   5
   0   4   6 10.2274 12.5084   6
   0  -4  -6 25.4749 20.8318   3
   0  -4  -6-10.8081 22.5347   5
   0  -4  -7 15.1669 15.5276   3
   0  -4  -7-48.9590 42.7374   5
   0  -4  -8 68.3715 37.8875   5
   0  -4  -9 8.47716 23.4107   5
   0   5 -13 14.8852 30.1910   2
   0   5 -12 241.102 72.7553   4
   0   5 -12 145.161 41.4576   6
   0   5 -11 47.8833 34.7493   4
   0   5 -11 0.66125 14.3838   6
   0   5 -10-12.7225 12.4952   6
   0   5 -10 8.83692 10.4761   3
   0   5 -10-1.39018 18.8038   4
   0   5  -9-11.1857 16.8261   4
   0   5  -9 3.33530 12.7850   3
   0   5  -9 15.1106 12.1258   6
   0   5  -8-0.62652 10.9874   3
   0  -5   8-0.62027 12.7852   3
   0  -5   7 906.300 78.5050   3
   0   5  -7 838.814 66.5311   3
   0  -5   6 4.83341 13.6044   3
   0  -5   5 286.825 39.4334   3
   0  -5   4 697.820 59.5604   3
   0  -5   4 609.517 30.4989   1
   0  -5   3 17553.3 285.029   3
   0   5  -2 942.744 42.7147   1
   0  -5   2 971.817 68.4542   3
   0  -5   1 844.895 64.4249   3
   0  -5   0 133.222 34.1433   5
   0  -5   0 117.471 27.4003   3
   0   5   0 117.555 28.3728   3
   0  -5  -1 68.4950 23.0183   3
   0  -5  -1 27.9420 25.2464   5
   0   5   1 5.87177 15.1694   3
   0   5   2 698.574 78.8211   2
   0  -5  -2 506.171 54.1888   3
   0   5   2 698.840 68.7221   6
   0  -5  -2 611.866 83.3305   5
   0  -5  -3 114.110 28.8248   3
   0  -5  -3 99.7303 35.1598   5
   0   5   3 91.7854 33.8865   2
   0   5   3 97.1040 29.0476   6
   0  -5  -4 27.1341 21.4544   5
   0  -5  -4 96.2009 28.3573   3
   0   5   4 91.4832 25.7125   6
   0   5   5 331.327 49.8218   6
   0  -5  -5 304.791 74.1031   5
   0  -5  -5 258.686 41.3535   3
   0  -5  -6 500.218 57.0669   3
   0   5   6 457.784 57.9980   6
   0  -5  -6 477.433 92.2709   5
   0  -5  -7 117.804 41.3528   5
   0  -5  -7 90.7625 26.6658   3
   0  -5  -8 66.4851 49.2237   5
   0   6 -13-1.51190 19.9913   4
   0   6 -12 128.418 41.8815   6
   0   6 -12 98.3459 51.3304   4
   0   6 -11 10.2516 12.4482   6
   0   6 -11 9.06696 25.6192   4
   0   6 -10 531.615 91.5821   4
   0   6 -10 441.068 67.3104   6
   0   6  -9 319.705 48.0991   3
   0  -6   9 398.473 58.6059   3
   0  -6   8 4.23387 16.3765   3
   0   6  -8-7.58730 15.4414   3
   0   6  -7 55.2589 22.3909   3
   0  -6   7 21.0128 15.8651   3
   0   6  -6 84.9337 27.8257   3
   0  -6   6 51.0886 24.9581   3
   0  -6   5 349.540 51.5569   3
   0  -6   5 262.315 21.6397   1
   0   6  -5 352.926 48.2220   3
   0  -6   4 636.360 63.2628   3
   0  -6   3 69.9172 28.1911   3
   0   6  -2 20.6843 9.20419   1
   0  -6   2 6.66096 13.2127   3
   0   6  -1 2119.30 118.532   3
   0  -6   1 1882.59 106.891   3
   0   6   0 69.3650 25.9854   3
   0  -6   0 140.479 31.1717   3
   0  -6  -1 115.164 30.4537   3
   0   6   1 115.750 39.8644   5
   0   6   1 69.3135 24.7079   3
   0  -6  -1 133.773 40.9377   5
   0  -6  -2 210.757 55.3270   5
   0  -6  -2 164.850 38.1713   3
   0   6   2 187.894 45.3995   2
   0   6   2 183.792 40.8103   6
   0  -6  -3 110.794 32.5161   3
   0  -6  -3 138.981 49.6108   5
   0   6   3 78.2760 28.7830   6
   0  -6  -4 41.8946 34.1193   5
   0  -6  -4 24.7931 15.6675   3
   0   6   4-47.5062 27.7998   6
   0   6   5 937.289 91.1354   6
   0  -6  -5 901.739 126.886   5
   0  -6  -5 911.462 80.6413   3
   0  -6  -6-15.9352 31.6789   5
   0  -6  -6-0.09821 12.9664   3
   0  -6  -7 21.9613 25.0498   5
   0   7 -13 3.08856 19.3612   6
   0   7 -13-84.6141 42.5397   4
   0   7 -12 24.4027 21.7055   4
   0   7 -12 51.3245 30.4626   6
   0   7 -11 35.5233 26.1420   6
   0   7 -11 88.4718 47.0476   4
   0  -7  10 29.1938 23.2213   3
   0  -7   9 2696.62 161.048   3
   0  -7   8 1744.90 125.285   3
   0  -7   7 1103.08 97.7179   3
   0  -7   6 34.0629 18.6800   3
   0   7  -5 80.6557 33.0184   3
   0  -7   5 59.0319 25.3680   3
   0  -7   4 58.7159 25.2328   3
   0   7  -4 38.1348 25.3303   3
   0  -7   3 307.411 50.0424   3
   0   7  -3 301.291 49.3245   3
   0   7  -3 300.844 58.2271   5
   0   7  -2 558.744 79.5476   5
   0   7  -2 524.541 65.2200   3
   0  -7   2 465.858 58.1883   3
   0   7  -2 440.560 39.2253   1
   0   7  -1-4.84963 17.9447   3
   0  -7   1-21.0310 20.4429   3
   0   7   0 477.905 65.1066   3
   0  -7   0 460.027 61.2278   3
   0  -7  -1 302.867 48.8742   3
   0  -7  -1 325.085 65.4955   5
   0   7   1 454.203 69.7724   6
   0  -7  -2 161.579 37.3555   3
   0   7   2 144.250 38.5523   6
   0  -7  -2 189.932 56.4694   5
   0  -7  -3 36.4974 26.0461   5
   0  -7  -3 51.6364 21.0655   3
   0   7   3 12.4621 16.1026   6
   0  -7  -4 83.2836 26.8491   3
   0  -7  -4 29.3590 22.8670   5
   0  -7  -5-21.6506 13.5443   3
   0  -7  -5 25.9775 33.3076   5
   0  -7  -6 89.1441 38.1039   5
   0  -7  -6 40.0203 18.8064   3
   0   8 -13 4.87736 14.4873   6
   0   8 -12-4.19951 27.2528   4
   0   8 -12 6.98380 14.2402   6
   0  -8  11-23.0714 27.6053   3
   0  -8  10 88.1402 37.0468   3
   0  -8   9-2.59381 18.5291   3
   0  -8   8 314.733 58.9344   3
   0  -8   8 289.763 32.5987   1
   0  -8   7 19.0208 14.5510   3
   0  -8   6 122.566 38.3287   3
   0  -8   5-1.35554 15.4788   3
   0  -8   4 104.351 35.3616   3
   0  -8   3 94.7824 35.4153   3
   0   8  -2 402.754 39.9176   1
   0  -8   2 368.936 55.6119   3
   0  -8   1 14.2470 16.4649   3
   0  -8   0 99.2872 33.0979   3
   0  -8  -1 7.97885 15.3547   3
   0  -8  -2 78.9626 41.9768   5
   0  -8  -2 66.1071 28.4004   3
   0  -8  -3 53.5171 49.7793   5
   0  -8  -3 36.8543 23.1520   3
   0  -8  -4 69.5348 53.4418   5
   0  -8  -4-2.35086 13.8541   3
   0  -8  -5-28.6958 25.8146   5
   0  -8  -5 9.58511 22.9420   3
   0   9 -13 27.0914 29.8206   6
   0   9 -12-9.23641 28.0541   4
   0   9 -12 5.19601 25.0269   6
   0  -9  11-2.01777 17.5499   3
   0  -9  10 2.13383 17.1888   3
   0  -9   9 51.5418 20.3150   3
   0  -9   8 25.0312 16.8021   3
   0  -9   7-10.5821 30.2021   3
   0  -9   6 16.1915 19.2442   3
   0  -9   5 19.2550 26.0227   3
   0  -9   4 17.1577 24.5786   3
   0  -9   3 44.5215 28.8657   3
   0  -9   2 23.0013 23.4157   3
   0   9  -2 23.4505 13.2112   1
   0  -9   1 10.6191 16.8112   3
   0  -9   0 31.3555 22.2663   3
   0  -9  -1 37.9866 22.8913   3
   0  -9  -2-3.55358 16.3518   3
   0  -9  -2-10.2814 34.5723   5
   0  -9  -3 7.83981 31.9030   5
   0  -9  -3-40.7864 28.0272   3
   0  -9  -4 23.9680 48.4243   5
   0  -9  -4 15.2067 17.6285   3
   0  10 -13-42.8104 22.4944   6
   0 -10  12 20.4597 32.3767   3
   0 -10  11 10.5075 20.0541   3
   0 -10  10 96.4504 47.1703   3
   0 -10   9-2.77902 19.7629   3
   0 -10   8 37.3160 27.5390   3
   0 -10   7-31.1525 36.9509   3
   0 -10   6 517.535 82.3750   3
   0 -10   5 197.412 54.0556   3
   0 -10   4 47.7921 25.0579   3
   0 -10   3 46.1679 29.8974   3
   0 -10   2 16.0570 18.9400   3
   0 -10   1 94.1825 38.8768   3
   0 -10   0 45.9276 31.0028   3
   0 -10  -1 33.0783 23.9772   3
   0 -10  -2 49.1588 26.7147   3
   0 -10  -3 91.5028 40.6969   3
   0 -11  12 131.970 54.0546   3
   0 -11  11-14.7862 31.0020   3
   0 -11  10 96.5236 39.2134   3
   0 -11   9-38.1340 37.2718   3
   0 -11   8-27.4967 30.7036   3
   0 -11   7 53.9142 34.0383   3
   0 -11   6 15.9508 23.6314   3
   0 -11   5 0.36427 17.3000   3
   0 -11   4 14.5034 20.9227   3
   0 -11   3 10.3230 29.8559   3
   0 -11   2 67.7663 38.7809   3
   0 -11   1 106.397 43.3118   3
   0 -11   0 28.3757 27.2782   3
   0 -11  -1-6.91891 25.2397   3
   0 -11  -2 4.76313 24.1729   3
   0 -12   8-48.4581 35.5160   3
   0 -12   7 41.6424 34.8561   3
   0 -12   6-33.8446 30.8334   3
   0 -12   5 73.5108 30.5648   3
   0 -12   4 30.5049 30.2984   3
   0 -12   3 95.5273 37.5245   3
   0 -12   2-14.6204 25.0849   3
   1 -12   1 31.9060 32.2072   3
   1 -12   2 13.3474 35.2989   3
   1 -12   3 44.9954 20.8732   3
   1 -12   4 64.3491 34.7165   3
   1 -12   5 50.6471 28.6335   3
   1 -12   6 39.7302 29.7634   3
   1 -12   7 19.4214 33.0476   3
   1 -12   8-69.7949 40.1443   3
   1 -12   9 54.3600 44.3077   3
   1 -11  -3-76.5173 39.3907   3
   1 -11  -2-13.0442 26.1801   3
   1 -11  -1 72.6401 30.0016   3
   1 -11   0 7.54531 18.6367   3
   1 -11   1-26.0229 32.3419   3
   1 -11   2 44.9519 17.9641   3
   1 -11   3 19.9465 16.8781   3
   1 -11   4 23.8987 21.3492   3
   1 -11   5-5.81122 19.5136   3
   1 -11   6 89.2011 40.6538   3
   1 -11   7-16.1379 23.7593   3
   1 -11   8-26.5593 18.1789   3
   1 -11   9-18.2500 29.2866   3
   1 -11  10-11.2781 20.1918   3
   1 -11  11 68.9347 34.5673   3
   1 -11  12 41.3412 29.9516   3
   1 -10  -4-4.84876 20.3843   3
   1 -10  -3 106.174 40.4797   3
   1 -10  -2 22.5984 21.3567   3
   1 -10  -1 61.9402 32.2389   3
   1 -10   0 24.3987 24.8948   3
   1 -10   1 15.2925 19.9833   3
   1 -10   2 0.45264 19.0086   3
   1 -10   3 21.2239 17.4371   3
   1 -10   4 43.0096 26.9942   3
   1 -10   5 57.5336 34.1773   3
   1 -10   6 74.6248 33.7571   3
   1 -10   7 162.382 50.7360   3
   1 -10   8 76.1579 37.3806   3
   1 -10   9-17.4647 26.5797   3
   1 -10  10-19.2089 29.7511   3
   1 -10  11-69.1486 36.7213   3
   1 -10  12 19.7796 40.7350   3
  -1  10 -13 202.399 57.8891   6
   1  -9  -5-2.58143 25.9813   3
   1  -9  -4 32.1264 25.3890   3
   1  -9  -4 18.1645 22.5238   5
   1  -9  -3 70.1870 37.7020   3
   1  -9  -3 45.0800 41.0976   5
   1  -9  -2 50.1918 31.7819   5
   1  -9  -2 44.9972 27.6943   3
   1  -9  -1-11.3822 15.8257   3
   1  -9   0 486.507 71.0448   3
   1  -9   1 2429.92 155.378   3
  -1   9  -2 139.140 21.6670   1
   1  -9   2 222.565 47.8874   3
   1  -9   3 335.268 58.9186   3
   1  -9   4-29.9916 26.4113   3
   1  -9   5 54.9059 27.8083   3
   1  -9   6 53.2448 23.8977   3
   1  -9   7 144.868 39.8020   3
   1  -9   8 0.52837 17.1147   3
   1  -9   9 22.4654 17.9591   3
   1  -9  10 269.893 59.5555   3
   1  -9  11-8.38373 19.6373   3
  -1   9 -12 2.29836 20.7276   4
   1  -9  12-47.1122 37.6325   3
   1  -8  -6 26.3279 24.6582   3
   1  -8  -5 16.2905 18.7279   3
   1  -8  -5 22.9522 35.7778   5
   1  -8  -4 15.8626 31.2258   5
   1  -8  -4 37.1687 22.4564   3
   1  -8  -3-29.7499 33.8498   5
   1  -8  -3 38.7090 28.0909   3
   1  -8  -2 13.0831 15.2364   3
   1  -8  -2-13.7637 32.9887   5
   1  -8  -1 605.456 75.3362   3
   1  -8   0 624.370 74.2956   3
   1  -8   1 3316.25 168.601   3
   1  -8   2 157.158 38.2950   3
   1  -8   3 22.5412 15.2950   3
   1  -8   4-3.51212 16.4151   3
   1  -8   5 49.3261 30.9119   3
   1  -8   6 153.408 41.0930   3
   1  -8   7 119.870 30.7836   3
   1  -8   8-19.3028 14.8468   3
   1  -8   9 1141.43 106.939   3
   1  -8  10 88.8097 34.5117   3
  -1   8 -11 47.9177 37.5902   4
   1  -8  11 48.6700 28.0881   3
  -1   8 -12 125.166 44.4447   6
  -1   8 -12 64.0394 40.7532   4
   1  -7  -7 30.5036 42.2656   5
   1  -7  -6 77.7968 32.2538   3
   1  -7  -6 53.1211 52.7716   5
   1  -7  -5 186.387 44.5442   3
   1  -7  -5 242.891 77.7915   5
   1  -7  -4 104.680 52.1716   5
   1  -7  -4 66.5620 29.5026   3
   1  -7  -3 486.553 66.5322   3
   1  -7  -3 494.512 90.5910   5
   1  -7  -2-11.1749 25.8868   5
  -1   7   2-2.79902 21.3503   6
   1  -7  -2-7.23273 18.5430   3
   1  -7  -1 184.983 50.0539   5
  -1   7   1 281.310 54.9313   6
   1  -7  -1 210.963 44.8783   3
  -1   7   0 46.5914 32.5338   6
   1  -7   0 26.1603 24.9977   3
  -1   7  -1 4.58312 15.4233   3
  -1   7  -1 7.92677 14.2032   5
   1  -7   1 20.5300 21.4713   3
  -1   7  -2 340.162 53.4033   3
  -1   7  -2 243.547 51.9705   5
   1  -7   2 243.221 45.0092   3
   1  -7   3-20.3330 17.2422   3
  -1   7  -3-13.9338 21.0934   3
  -1   7  -3-16.4970 18.2387   5
  -1   7  -4 190.534 36.6732   3
   1  -7   4 150.301 33.2223   3
  -1   7  -5 281.939 46.7807   3
   1  -7   5 260.774 44.2903   3
   1  -7   6 112.457 29.5565   3
  -1   7  -6 193.768 41.7225   3
  -1   7  -7 453.755 61.0922   3
   1  -7   7 369.278 52.2699   3
   1  -7   8 11.8637 13.4355   3
   1  -7   9 530.990 68.8869   3
  -1   7 -10 24.7851 20.5151   4
   1  -7  10-0.69683 19.2707   3
  -1   7 -11 38.1447 35.9653   4
  -1   7 -12-12.9912 14.8685   6
  -1   7 -12 31.0877 30.8392   4
   1  -6  -8-14.1276 25.8636   5
   1  -6  -7 63.2960 30.1021   3
   1  -6  -7 40.4225 38.5511   5
   1  -6  -6 8.96063 17.3396   3
   1  -6  -6 5.84092 29.3074   5
   1  -6  -5 242.101 46.5152   3
  -1   6   5 208.557 47.3475   6
   1  -6  -5 248.731 66.7591   5
  -1   6   4 17.7241 22.9212   6
   1  -6  -4 27.1208 23.6056   3
   1  -6  -4 13.9505 19.5906   5
   1  -6  -3 215.817 43.9916   3
  -1   6   3 245.955 50.1846   2
  -1   6   3 155.935 38.5301   6
   1  -6  -3 235.658 59.2938   5
   1  -6  -2 55.4162 35.1526   5
  -1   6   2 41.8632 22.7129   6
  -1   6   2 37.8329 20.4156   2
   1  -6  -2 30.7261 21.0674   3
  -1   6   1 143.237 41.3598   5
  -1   6   1 130.848 36.6508   6
   1  -6  -1 91.2167 28.5554   3
   1  -6  -1 129.870 41.9480   5
  -1   6   0 327.409 55.8856   6
  -1   6   0 259.988 41.6067   3
   1  -6   0 203.958 39.4707   3
   1  -6   1 7.14192 16.6830   3
   1  -6   2 126.613 30.9155   3
   1  -6   3 184.863 33.9152   3
   1  -6   4 91.5616 23.0312   3
  -1   6  -4 145.092 31.3980   3
   1  -6   5 51.0293 21.9803   3
  -1   6  -5 25.5264 16.5857   3
   1  -6   6 31.0472 20.5798   3
  -1   6  -6 50.7690 22.2909   3
   1  -6   7 0.18059 17.2195   3
  -1   6  -7 0.47309 16.1484   3
   1  -6   8 14.2632 14.3653   3
  -1   6  -8 67.0597 22.5473   3
  -1   6  -9 46.0917 19.7117   3
   1  -6   9 9.03899 16.2000   3
  -1   6  -9-25.9060 24.3014   4
  -1   6 -10 61.8896 24.3506   3
  -1   6 -10 47.9031 36.1062   4
  -1   6 -11 14.2845 22.3660   4
  -1   6 -11 40.4627 22.0750   6
  -1   6 -12 0.80883 16.5167   4
  -1   6 -13 8.60435 32.1088   4
  -1   6 -13 37.0087 43.0313   2
   1  -5  -9 13.0890 43.2548   5
   1  -5  -8 29.8554 39.2634   5
   1  -5  -8 9.38873 14.1744   3
   1  -5  -7 106.990 48.7924   5
   1  -5  -7 110.012 34.9554   3
   1  -5  -6 46.6147 27.5087   3
  -1   5   6 12.4645 16.0129   6
   1  -5  -6 15.7619 22.1109   5
  -1   5   5 218.393 44.1152   6
  -1   5   5 221.205 49.9563   2
   1  -5  -5 227.356 46.3768   3
   1  -5  -5 203.424 57.3748   5
   1  -5  -4 57.0439 27.0096   5
   1  -5  -4 67.7629 31.0586   3
  -1   5   4 75.7568 30.0554   2
  -1   5   4 133.449 38.1712   6
  -1   5   3 24.5173 17.1437   2
  -1   5   3-8.71049 25.4155   6
   1  -5  -3 66.4793 28.8028   3
   1  -5  -3 0.62633 17.6420   5
   1  -5  -2 1027.73 102.896   5
  -1   5   2 1038.98 88.0291   6
   1  -5  -2 1133.10 84.8409   3
   1  -5  -1 31.9514 18.7289   3
  -1   5   1 18.7646 19.9621   6
   1  -5  -1 1.02176 13.3784   5
   1  -5   0 131.854 31.3726   3
   1  -5   0 103.361 27.9292   5
  -1   5   0 103.764 19.6974   3
  -1   5   0 179.959 36.4134   6
   1  -5   1 19.5764 18.2268   3
   1  -5   2 505.166 50.2458   3
   1  -5   3 14.5345 14.8665   3
   1  -5   4 438.762 44.8614   3
   1  -5   5 862.246 64.8398   3
   1  -5   6 102.631 24.9676   3
   1  -5   7 282.355 39.7888   3
  -1   5  -8 12.2792 14.3943   4
   1  -5   8 36.6411 20.1714   3
  -1   5  -9 18.2050 21.3329   4
  -1   5 -10 61.5002 24.4745   6
  -1   5 -10 29.8600 27.6280   4
  -1   5 -10 76.7502 22.2751   3
  -1   5 -11 5.86960 8.63323   6
  -1   5 -11 8.11929 19.6995   4
  -1   5 -12 151.450 58.2304   2
  -1   5 -12 171.379 63.4412   4
  -1   5 -13 59.6401 46.6154   2
   1  -4  -9 58.5948 45.8645   5
   1  -4  -8 19.2550 20.0685   3
   1  -4  -8 8.65738 19.8136   5
  -1   4   7 12.7029 16.5287   6
   1  -4  -7-11.3522 14.2363   3
   1  -4  -6 485.616 62.7196   3
  -1   4   6 478.091 69.5327   2
  -1   4   6 344.269 51.6783   6
   1  -4  -6 460.888 85.0576   5
   1  -4  -5 5.51991 18.8682   5
  -1   4   5 19.2552 17.4452   2
   1  -4  -5 7.61724 16.6931   3
  -1   4   5 1.82212 11.0847   6
  -1   4   4 75.9103 25.3512   6
   1  -4  -4 42.4241 17.0543   3
   1  -4  -4 64.4514 30.4637   5
   1  -4  -3 1454.63 119.263   5
  -1   4   3 1494.02 102.345   2
  -1   4   3 1601.94 102.747   6
   1  -4  -3 1414.69 93.6992   3
   1  -4  -2 3460.96 136.217   3
   1  -4  -2 3298.38 163.488   5
  -1   4   2 3472.96 144.374   6
  -1   4   2 3502.83 144.377   2
   1  -4  -1 2060.63 100.148   3
   1  -4  -1 2095.82 121.819   5
  -1   4   1 2241.25 110.815   6
   1  -4   0 57.7649 17.1199   3
   1  -4   0 52.9212 22.1059   5
   1  -4   1 34.8964 15.9742   3
   1  -4   2 430.386 42.3193   3
   1  -4   3 212.344 29.1067   3
   1  -4   4 103.919 20.6241   3
  -1   4  -4 131.021 25.4463   3
   1  -4   5 96.1723 21.9365   3
  -1   4  -5 124.118 24.1066   3
   1  -4   6 1424.67 78.9844   3
  -1   4  -6 1365.39 73.8316   3
  -1   4  -7 126.382 25.2223   3
  -1   4  -7 81.2459 30.6799   4
   1  -4   7 91.5118 22.7511   3
  -1   4  -8 130.297 43.2462   4
  -1   4  -8 200.437 30.6708   3
  -1   4  -9 4.03313 11.9809   3
  -1   4  -9 2.34537 13.1265   6
  -1   4  -9-2.60349 15.6266   4
  -1   4 -10 99.7533 44.3769   4
  -1   4 -10 111.715 23.0387   3
  -1   4 -10 87.0868 24.6928   6
  -1   4 -11 19.2755 16.7446   6
  -1   4 -11 23.6145 27.9146   2
  -1   4 -12 183.655 61.2272   2
  -1   4 -13-30.4837 25.5092   2
   1  -3 -11 107.056 45.9630   2
   1  -3 -10 6.27703 28.4961   2
   1  -3  -9-24.3016 17.6776   3
   1  -3  -9 22.4496 22.8892   2
   1  -3  -8 12.9998 19.0855   2
   1  -3  -8 18.8228 18.7534   3
  -1   3   8 60.3411 23.3586   6
  -1   3   7 248.329 40.0338   6
   1  -3  -7 234.730 44.5967   3
   1  -3  -7 256.241 58.4693   2
  -1   3   6-14.9290 20.6753   2
  -1   3   6 3.00712 16.7714   6
   1  -3  -6-3.60946 17.5041   2
   1  -3  -6-1.73102 18.9694   3
   1  -3  -5 29.8045 18.3348   2
  -1   3   5 29.5601 10.8686   6
   1  -3  -5 6.62244 21.5759   3
  -1   3   4 276.932 41.6516   6
  -1   3   4 256.617 43.7608   2
   1  -3  -4 324.238 45.6878   6
   1  -3  -4 212.714 35.5401   3
  -1   3   3 1721.04 98.6673   2
   1  -3  -3 1729.15 115.956   5
   1  -3  -3 1644.62 90.9715   3
  -1   3   3 1677.62 96.3530   6
  -1   3   2 2785.67 112.056   2
   1  -3  -2 2786.20 133.583   5
  -1   3   2 2768.32 115.877   6
   1  -3  -2 2555.71 108.170   3
  -1   3   1 837.626 59.6359   6
   1  -3  -1 813.801 65.3113   5
   1  -3  -1 850.223 58.3890   3
   1  -3   0 539.389 50.4727   5
   1  -3   0 501.438 43.8034   3
   1  -3   1 42.1408 16.5580   3
   1  -3   2 1116.57 57.3257   3
   1  -3   2 1095.93 34.1780   1
   1  -3   3 58.8918 14.4686   3
  -1   3  -3 84.8361 17.4954   3
   1  -3   4 642.812 42.3090   3
  -1   3  -4 676.861 44.4490   3
  -1   3  -5 1887.01 72.9731   3
   1  -3   5 1866.98 77.0906   3
   1  -3   6 5160.94 135.209   3
  -1   3  -6 5154.92 214.930   4
  -1   3  -6 5198.12 124.474   3
  -1   3  -7 12.8379 9.98770   3
  -1   3  -7 8.83068 16.0371   4
  -1   3  -8 21.0218 11.7470   6
  -1   3  -8 42.0149 13.5761   3
  -1   3  -8 53.2945 31.8448   4
  -1   3  -9 48.5294 27.9642   2
  -1   3  -9 59.5002 30.8462   4
  -1   3  -9 49.5642 14.6900   3
  -1   3  -9 36.5814 13.6392   6
  -1   3 -10 7.21304 20.3130   2
  -1   3 -10-2.52093 9.43123   6
  -1   3 -11 14.2014 25.9522   2
  -1   3 -12 35.7250 25.1946   2
   1  -2 -12-30.3239 24.1524   2
   1  -2 -11 33.2527 31.7835   2
   1  -2 -10-6.16529 19.8465   2
   1  -2  -9 442.974 84.4576   2
  -1   2   8 1897.79 101.645   6
   1  -2  -8 2075.34 115.342   6
   1  -2  -8 1918.30 156.934   2
  -1   2   7-2.78845 9.72345   6
   1  -2  -7 23.3084 19.2227   6
   1  -2  -7-0.72891 16.2817   2
   1  -2  -6 2526.15 122.663   6
   1  -2  -6 2520.04 150.981   2
  -1   2   6 2478.61 116.129   6
  -1   2   6 2808.83 175.119   4
   1  -2  -5 210.473 41.0153   2
  -1   2   5 274.613 37.6450   6
   1  -2  -5 227.052 36.4140   6
  -1   2   4 315.603 43.1866   2
   1  -2  -4 307.101 43.8411   2
  -1   2   4 280.130 37.0643   6
   1  -2  -4 309.581 39.5137   6
   1  -2  -3 302.262 37.4435   6
   1  -2  -3 300.539 37.9902   2
  -1   2   3 367.173 40.8394   6
  -1   2   3 357.405 39.5101   2
  -1   2   2 80.9715 20.9858   6
  -1   2   2 62.6747 17.2411   2
   1  -2  -2 63.0396 17.1291   6
   1  -2  -1 1724.53 76.6920   6
   1  -2  -1 1703.02 79.9594   5
   1  -2   0 52.5189 11.9783   3
   1  -2   0 101.374 16.7731   5
   1  -2   1 2905.52 80.2089   3
  -1   2  -1 2860.83 58.0093   1
   1  -2   2 3267.81 77.9686   3
  -1   2  -3 1258.98 49.0142   3
   1  -2   3 1253.16 45.6447   3
   1  -2   4 467.393 31.5434   3
  -1   2  -4 483.511 29.7266   3
  -1   2  -4 400.851 49.4605   4
  -1   2  -5 29.8422 19.3665   4
  -1   2  -5 43.5646 10.6089   3
   1  -2   5 29.2350 8.51167   3
  -1   2  -6 104.266 34.6248   4
  -1   2  -6 135.923 21.9636   6
  -1   2  -6 134.907 18.0446   3
  -1   2  -7 17.8821 24.7992   2
  -1   2  -7 33.5457 28.1941   4
  -1   2  -7 2.41556 7.01673   3
  -1   2  -7 2.26462 8.24039   6
  -1   2  -8 158.940 46.7554   2
  -1   2  -8 133.545 17.7992   3
  -1   2  -8 153.926 25.8048   6
  -1   2  -9 66.6732 17.8452   6
  -1   2  -9 66.3779 31.8366   2
  -1   2  -9 43.9903 10.2596   3
  -1   2 -10 13.0102 28.3019   2
  -1   2 -10 29.4503 11.1609   6
  -1   2 -11 35.7240 31.6426   2
  -1   2 -12-50.0950 44.0222   2
   1  -1 -12 63.8791 42.6072   2
   1  -1 -11 80.0036 46.4372   2
   1  -1 -10 14.0317 19.7569   2
   1  -1  -9 44.5475 29.0466   2
   1  -1  -9 89.5555 24.0159   6
   1  -1  -8 1241.65 88.9682   6
   1  -1  -8 1342.88 129.212   2
  -1   1   8 1284.00 81.0819   6
  -1   1   7 387.716 44.6422   6
   1  -1  -7 343.490 60.0522   2
   1  -1  -7 395.726 49.2073   6
   1  -1  -6 411.676 48.3772   6
   1  -1  -6 341.374 54.8221   2
  -1   1   6 378.504 42.5821   6
   1  -1  -5 266.140 41.6198   2
  -1   1   5 306.013 38.4943   6
   1  -1  -5 277.999 37.5405   6
   1  -1  -4 65.5285 19.4630   2
   1  -1  -4 65.8301 17.5085   6
  -1   1   4 42.3013 12.8308   6
   1  -1  -3 2835.17 101.292   6
  -1   1   3 2758.15 101.261   6
   1  -1  -3 2795.17 100.966   2
   1  -1  -2 1611.76 71.6545   6
  -1   1   2 1579.25 71.2792   6
  -1   1   2 1652.34 58.9819   2
   1  -1  -2 1641.76 60.9036   2
   1  -1  -1 1118.72 53.7978   6
  -1   1   0 3030.56 69.0621   1
   1  -1   0 2976.63 54.2784   5
   1  -1   1 248.722 17.6123   3
   1  -1   1 290.515 21.2915   6
   1  -1   2 316.032 15.9077   3
  -1   1  -2 291.773 16.9437   3
  -1   1  -2 278.295 29.6153   4
  -1   1  -3 3965.90 58.5182   3
  -1   1  -3 3970.82 134.295   4
   1  -1   3 4194.66 133.466   4
   1  -1   3 3987.81 60.8386   3
  -1   1  -4 6.78096 4.72352   6
  -1   1  -4 18.2505 18.8727   2
  -1   1  -4-1.32724 3.25128   3
  -1   1  -4-2.37380 9.46115   4
   1  -1   4 2.07396 9.17513   4
  -1   1  -5 249.872 46.2254   2
  -1   1  -5 256.860 22.9950   6
   1  -1   5 238.303 41.2130   4
  -1   1  -5 238.227 16.0457   3
  -1   1  -6 55.6168 28.0338   2
   1  -1   6 14.7021 19.9418   4
  -1   1  -6 4.03964 4.70530   6
  -1   1  -6 4.59441 4.54677   3
   1  -1   7 115.270 37.3494   4
  -1   1  -7 94.1740 34.2111   2
  -1   1  -7 70.0906 9.74137   3
  -1   1  -7 62.5530 12.3909   6
  -1   1  -8 415.136 78.1906   2
  -1   1  -8 247.725 21.7777   6
  -1   1  -8 273.466 19.3781   3
  -1   1  -9 24.9658 20.7799   2
  -1   1  -9 2.00585 3.33036   3
  -1   1 -10 91.1704 44.2371   2
  -1   1 -11-10.1870 26.5496   2
  -1   1 -12 33.5193 37.3123   2
   1   0 -13-66.7520 36.4153   2
   1   0 -12 45.7415 41.1817   2
   1   0 -11-3.24164 37.9347   2
   1   0 -10 51.3317 22.3158   6
   1   0 -10 66.7601 35.2481   2
   1   0  -9 797.092 105.091   2
   1   0  -9 753.858 74.3980   6
   1   0  -8 317.844 62.5578   2
   1   0  -8 359.155 49.0216   6
  -1   0   7 316.505 58.1247   4
   1   0  -7 295.547 55.3850   2
   1   0  -7 323.133 45.7810   6
  -1   0   7 295.559 38.9183   6
   1   0  -6 359.257 44.5955   6
  -1   0   6 379.927 42.0811   6
   1   0  -6 421.069 57.7162   2
   1   0  -5 207.026 36.4874   2
   1   0  -5 151.527 29.6529   6
  -1   0   5 181.345 28.3349   6
  -1   0   4 778.478 53.5137   6
   1   0  -4 767.265 56.6070   6
  -1   0   3 999.028 56.7065   6
   1   0  -3 983.522 57.8145   6
   1   0  -2 13.1340 9.03991   4
   1   0  -2 13.8003 8.33083   6
   1   0  -1 1042.53 36.2297   4
  -1   0  -1 2106.80 75.6306   2
  -1   0  -2 1843.76 84.2320   2
  -1   0  -3 1142.58 78.3750   2
   1   0   3 1117.65 73.1718   4
   1   0   4 137.437 29.7997   4
  -1   0  -4 133.025 32.4335   2
  -1   0  -5 304.931 51.4275   2
  -1   0  -5 259.010 14.8628   3
   1   0   5 287.176 48.8588   4
  -1   0  -6 62.7173 8.23682   3
   1   0   6 101.445 33.7730   4
  -1   0  -6 41.0481 8.70546   3
  -1   0  -6 81.9871 33.7258   2
  -1   0  -7 585.633 86.1180   2
  -1   0  -7 455.674 20.7142   3
  -1   0  -7 429.464 25.7446   3
  -1   0  -8 220.963 15.3186   3
  -1   0  -8 257.518 13.4596   3
  -1   0  -8 350.045 72.1573   2
  -1   0  -9 1256.78 146.841   2
  -1   0 -10 8.69045 23.6387   2
  -1   0 -11-12.0151 32.4682   2
   1   1 -13 52.6829 40.6540   2
   1   1 -12-12.4551 37.0804   2
   1   1 -11 55.6093 35.0701   2
   1   1 -11 61.8807 22.2312   6
   1   1 -10 35.6414 27.9235   2
   1   1 -10 18.5242 17.5394   6
   1   1  -9 159.695 37.7647   6
   1   1  -9 156.216 49.3502   2
   1   1  -8 105.139 38.3250   2
   1   1  -8 60.1370 27.1165   6
   1   1  -8 8.67168 12.5340   3
   1   1  -7 145.473 25.9953   3
   1   1  -7 83.6238 24.2768   6
   1   1  -6-0.79682 10.5546   3
   1   1  -6 15.1916 12.3597   6
   1   1  -6 27.9745 20.4283   4
   1   1  -5 6620.64 223.894   4
   1   1  -5 6546.01 154.671   3
   1   1  -5 6408.88 181.693   6
   1   1  -4 258.366 39.8042   4
   1   1  -4 223.090 31.4264   6
  -1  -1   4 245.269 30.7792   6
   1   1  -3 4509.08 140.476   4
   1   1  -3 4608.15 124.901   6
  -1  -1   3 4623.27 119.101   6
   1   1  -2 8366.74 152.015   6
  -1  -1   1 2979.60 79.7478   1
   1   1  -1 2984.29 81.9014   6
  -1  -1   0 3963.50 74.5184   3
  -1  -1   0 3885.15 89.8495   5
  -1  -1  -1 4044.50 126.341   2
   1   1   1 4110.54 65.8036   3
  -1  -1  -1 4232.41 69.0193   3
  -1  -1  -1 4233.72 115.365   5
  -1  -1  -2 1867.54 98.8829   2
   1   1   2 1865.49 50.1321   3
  -1  -1  -2 1924.44 43.2754   3
  -1  -1  -3 1040.63 83.4787   2
  -1  -1  -3 1030.87 33.2884   3
  -1  -1  -4 1877.85 119.943   2
  -1  -1  -4 1901.55 48.6556   3
   1   1   5 47.3500 25.5157   4
  -1  -1  -5 24.4082 20.2239   2
  -1  -1  -5 51.5503 9.93817   3
   1   1   6 394.809 64.8774   4
  -1  -1  -6 376.166 66.1961   2
  -1  -1  -6 366.267 23.8117   3
  -1  -1  -7 749.581 102.719   2
  -1  -1  -7 615.384 28.5581   3
  -1  -1  -7 562.866 28.7860   3
  -1  -1  -8 5.08811 18.5643   2
  -1  -1  -8 11.9398 3.43593   3
  -1  -1  -9 234.230 63.9136   2
  -1  -1 -10 96.7571 42.8736   2
  -1  -1 -11 56.9675 47.8520   2
   1   2 -13 1.33987 34.2576   2
   1   2 -12-41.7982 36.0850   2
   1   2 -11 20.6427 15.4707   6
   1   2 -11 88.1346 46.2309   2
   1   2 -10 119.849 37.0691   6
   1   2 -10 131.067 50.3474   2
   1   2 -10 115.877 25.0013   3
   1   2  -9 208.893 43.9819   6
   1   2  -8 63.2578 31.8419   4
   1   2  -8 87.2057 28.6747   6
   1   2  -7 368.225 41.3296   3
   1   2  -7 272.939 44.8072   6
   1   2  -7 259.324 53.7710   4
   1   2  -6 86.7396 24.1214   6
   1   2  -6 82.4032 31.0338   4
   1   2  -6 107.104 20.9565   3
   1   2  -5 9897.05 190.054   3
   1   2  -5 9762.26 224.970   6
   1   2  -5 9464.32 262.261   4
   1   2  -4 21.8474 12.3745   6
  -1  -2   3 856.863 53.0357   3
  -1  -2   2 4.99958 7.64350   1
  -1  -2   2 7.67150 9.20104   3
   1   2  -1 3336.27 93.3921   1
  -1  -2   1 3559.00 94.8343   3
  -1  -2   0 50.3139 17.0017   5
   1   2   0 45.7207 11.2086   3
  -1  -2   0 39.7965 11.0782   3
   1   2   1 1954.86 63.8271   3
  -1  -2  -1 2000.46 62.8760   3
  -1  -2  -1 1915.79 95.2355   5
  -1  -2  -2 887.479 75.2810   5
   1   2   2 914.520 48.0689   3
  -1  -2  -2 920.589 43.5106   3
   1   2   3 6108.80 117.373   6
  -1  -2  -3 6107.79 216.472   2
  -1  -2  -3 6285.16 112.785   3
   1   2   4 3012.03 81.3812   6
  -1  -2  -4 3223.48 81.8252   3
  -1  -2  -4 3382.35 172.483   2
   1   2   5 462.107 71.6606   2
   1   2   5 352.806 25.2831   6
  -1  -2  -5 377.355 63.9481   2
  -1  -2  -5 422.521 30.2584   3
  -1  -2  -6 5.89050 7.24629   3
  -1  -2  -6-17.5831 21.3917   2
  -1  -2  -7 48.0670 10.9997   3
  -1  -2  -7 66.3293 35.9375   2
  -1  -2  -8 18.4361 5.08967   3
  -1  -2  -8 20.5791 19.0185   2
  -1  -2  -9 59.1724 35.1325   2
  -1  -2 -10 34.0863 29.0431   2
   1   3 -13-10.0968 31.5292   2
   1   3 -12 26.2262 22.3918   2
   1   3 -12 73.8608 31.1672   6
   1   3 -11 458.764 69.4044   6
   1   3 -11 435.063 82.0389   2
   1   3 -10 87.4335 29.4997   6
   1   3 -10 94.2861 26.8723   3
   1   3 -10 39.1413 34.5699   4
   1   3  -9 123.244 44.1624   4
   1   3  -9 144.311 38.6643   6
   1   3  -9 165.002 33.1616   3
   1   3  -8 222.901 43.7149   6
   1   3  -8 200.194 50.2107   4
   1   3  -7 141.069 32.4057   6
   1   3  -7 175.742 43.3942   4
   1   3  -6 27.4779 16.0798   6
   1   3  -6 12.1923 10.4391   3
   1   3  -5 182.732 28.4099   3
  -1  -3   5 180.988 30.2266   3
  -1  -3   4 275.950 35.9792   3
  -1  -3   3 113.627 22.5278   3
  -1  -3   3 152.377 22.5658   1
  -1  -3   2 1785.00 67.7209   1
  -1  -3   2 1772.42 78.5462   3
   1   3  -2 1637.49 67.5845   1
  -1  -3   1 759.027 49.3151   3
   1   3  -1 793.023 53.2828   1
  -1  -3   0 82.1043 22.3761   5
   1   3   0 79.2500 18.3636   3
  -1  -3   0 91.4754 18.4341   3
   1   3   1 829.444 51.7991   3
  -1  -3  -1 866.054 74.7438   5
   1   3   1 897.293 73.7527   5
  -1  -3  -1 775.883 48.3600   3
   1   3   2 225.893 29.7584   3
  -1  -3  -2 195.686 24.4834   3
  -1  -3  -2 199.447 40.3152   5
  -1  -3  -3 2854.82 93.7745   3
  -1  -3  -3 3033.46 168.339   5
   1   3   3 2959.55 102.358   6
   1   3   4-18.8062 16.2390   2
   1   3   4 2.68302 9.11007   6
  -1  -3  -4 16.7789 24.3569   5
  -1  -3  -4 8.01855 9.43626   3
  -1  -3  -5 11.9499 11.4332   3
  -1  -3  -5 6.84826 16.4938   2
  -1  -3  -5 26.2468 20.1116   5
   1   3   5-5.25282 9.07202   6
  -1  -3  -6 12.1362 17.7702   5
   1   3   6-0.28885 5.07054   6
  -1  -3  -6 15.2017 9.51746   3
  -1  -3  -6-10.6425 26.7769   2
  -1  -3  -7 9.12947 33.2631   5
  -1  -3  -7 38.3540 34.0062   2
  -1  -3  -7 9.87039 6.50797   3
  -1  -3  -8 45.6011 32.2426   5
  -1  -3  -8-5.35076 29.3307   2
  -1  -3  -9 14.1368 34.6275   2
  -1  -3  -9 35.1129 41.4012   5
  -1  -3 -10-77.1630 47.5662   2
   1   4 -13 31.8546 38.9946   2
   1   4 -12 11.2943 20.1371   6
   1   4 -12 43.3794 44.1067   4
   1   4 -11 77.1006 33.5820   6
   1   4 -11 108.360 47.0512   4
   1   4 -10 38.5771 26.9986   4
   1   4 -10 53.5412 20.3474   3
   1   4 -10 21.1164 11.9220   6
   1   4  -9-0.93875 14.2236   4
   1   4  -9 34.5145 18.2778   3
   1   4  -9 6.88750 18.1534   6
   1   4  -8 10.5455 18.7252   4
   1   4  -8 0.74730 12.5714   6
   1   4  -8 25.5737 16.6296   3
   1   4  -7 28.9102 16.5262   3
   1   4  -7 45.2449 25.1458   6
  -1  -4   6 71.5412 23.6095   3
  -1  -4   5 307.169 42.7974   3
  -1  -4   4 2275.18 86.6916   1
  -1  -4   4 2347.49 109.531   3
  -1  -4   3 4790.21 149.513   3
  -1  -4   3 5043.09 120.397   1
   1   4  -2-0.36916 8.20173   1
  -1  -4   2 6.66464 10.6204   3
   1   4  -1 870.385 59.2118   3
  -1  -4   1 865.928 59.3972   3
  -1  -4   0 436.479 42.8424   3
   1   4   0 548.206 48.2673   3
  -1  -4   0 485.424 59.0781   5
   1   4   1 157.899 28.5721   3
  -1  -4  -1 151.609 26.3666   3
  -1  -4  -1 104.799 32.7561   5
   1   4   1 145.504 35.9490   5
   1   4   2 165.381 30.3492   3
  -1  -4  -2 179.260 28.8186   3
  -1  -4  -2 204.210 44.9477   5
  -1  -4  -3-12.4135 12.4023   3
   1   4   3 22.5508 15.3767   6
  -1  -4  -3 14.6259 22.9315   5
   1   4   3-15.8587 16.5516   2
   1   4   4-27.7167 19.7919   6
  -1  -4  -4 1.23180 8.82850   3
  -1  -4  -4 7.57449 20.8688   5
  -1  -4  -5-4.34921 9.30808   3
   1   4   5 24.2729 15.3125   6
  -1  -4  -5-6.99052 18.8440   5
  -1  -4  -6 13.7857 9.72361   3
  -1  -4  -6 19.1789 22.9406   5
   1   4   6 4.84601 6.46093   6
  -1  -4  -7 35.5794 12.7019   3
  -1  -4  -7 45.4891 32.4307   5
  -1  -4  -8 60.0309 46.3879   5
  -1  -4  -9 97.0772 60.3466   5
   1   5 -13 47.0004 43.8432   4
   1   5 -12 39.6521 23.4305   6
   1   5 -12 45.1622 34.1952   4
   1   5 -11-21.4794 29.1658   4
   1   5 -11-13.1508 17.7966   6
   1   5 -10 230.122 51.2810   6
   1   5 -10 259.400 65.6475   4
   1   5  -9-43.8616 36.2609   4
   1   5  -9 2.73546 20.9427   6
   1   5  -9 39.4389 24.0292   3
   1   5  -8 178.888 35.1743   3
   1   5  -8 132.421 38.8092   6
  -1  -5   7 27.6985 21.0180   3
   1   5  -7 64.9808 22.2167   3
  -1  -5   6 599.238 66.9987   3
   1   5  -6 532.897 53.0553   3
  -1  -5   5-3.33379 15.9099   3
  -1  -5   5 17.3216 11.1708   1
  -1  -5   4 150.469 22.0986   1
  -1  -5   4 105.795 26.1892   3
  -1  -5   3 442.643 49.2798   3
   1   5  -2 16.2583 10.2740   1
  -1  -5   2 23.4703 15.7358   3
  -1  -5   1 229.608 37.8204   3
   1   5  -1 319.431 42.6437   3
   1   5   0 1085.41 76.3982   3
  -1  -5   0 973.699 93.2025   5
  -1  -5   0 859.625 65.5038   3
   1   5   0 934.399 88.3341   5
   1   5   1 4.21574 12.5444   5
  -1  -5  -1 12.4899 16.7452   5
  -1  -5  -1 2.49669 10.2073   3
   1   5   1 12.8457 19.6561   2
   1   5   1 26.6025 19.2031   3
   1   5   2 215.901 38.2841   3
  -1  -5  -2 269.666 58.3117   5
   1   5   2 266.760 54.1236   2
  -1  -5  -2 173.254 29.8640   3
  -1  -5  -3 32.2464 15.7767   3
   1   5   3 86.3371 27.7466   6
  -1  -5  -3 67.9783 35.1361   5
   1   5   4 48.6556 17.6342   6
  -1  -5  -4 67.6737 33.1438   5
  -1  -5  -4 97.1595 24.6040   3
   1   5   5 1.81380 10.1496   6
  -1  -5  -5 15.2064 17.8887   5
  -1  -5  -5 0.43736 10.2171   3
  -1  -5  -6 133.946 25.5970   3
  -1  -5  -6 199.922 57.2821   5
  -1  -5  -7-4.88261 22.4905   5
  -1  -5  -8-7.33329 34.2482   5
   1   6 -13 35.7807 30.3826   4
   1   6 -13 4.60188 14.2919   6
   1   6 -12-48.1371 38.2790   4
   1   6 -12-12.0504 22.6478   6
   1   6 -11 11.7396 17.7886   4
   1   6 -11 2.57392 14.2143   6
   1   6 -10 45.9912 37.2527   4
   1   6 -10 19.5828 24.5693   6
   1   6  -9-7.24417 15.9402   6
  -1  -6   8 1852.98 128.417   3
   1   6  -7 32.6995 13.1574   3
  -1  -6   7 15.6818 21.0013   3
  -1  -6   6 171.257 27.6784   1
  -1  -6   6 135.173 32.5904   3
   1   6  -6 147.483 29.4673   3
  -1  -6   5 2038.99 122.157   3
  -1  -6   5 2319.44 88.3073   1
   1   6  -5 2204.18 117.934   3
  -1  -6   4 1160.12 89.2752   3
   1   6  -3 343.600 36.2137   1
  -1  -6   3 288.364 44.6955   3
   1   6  -3 321.612 54.3932   5
   1   6  -2 83.4393 21.2605   1
   1   6  -2 121.787 37.2505   5
  -1  -6   2 108.969 30.2630   3
   1   6  -2 96.7870 30.5962   3
   1   6  -1 434.612 65.1748   5
  -1  -6   1 353.462 48.6103   3
   1   6  -1 449.702 55.5857   3
   1   6   0 36.3602 22.8175   3
  -1  -6   0 45.6866 23.5546   3
   1   6   0 18.3790 18.2659   5
  -1  -6  -1 531.357 58.5700   3
  -1  -6  -1 581.187 88.7998   5
   1   6   1 646.897 70.8079   3
  -1  -6  -2 629.232 94.4437   5
  -1  -6  -2 470.491 53.1265   3
   1   6   2 650.372 68.3607   3
  -1  -6  -3 126.561 45.2248   5
   1   6   3 118.426 38.5082   6
  -1  -6  -3 83.7014 23.5134   3
   1   6   4 243.612 45.8446   6
  -1  -6  -4 208.196 34.9943   3
  -1  -6  -4 289.921 68.9328   5
  -1  -6  -5 16.2304 30.9702   5
  -1  -6  -5 25.8591 15.1928   3
  -1  -6  -6 42.2466 40.5444   5
  -1  -6  -7 86.3002 46.8326   5
   1   7 -13 85.1824 56.7537   4
   1   7 -13 6.13676 15.8337   6
   1   7 -12-10.5190 23.3902   4
   1   7 -12-8.82889 19.3080   6
   1   7 -11 17.8461 16.6560   6
   1   7 -11 23.0700 25.1451   4
   1   7 -10 59.7332 31.1545   6
  -1  -7   9 110.593 36.3244   3
  -1  -7   8 1989.63 140.911   3
  -1  -7   7 13.7347 12.9327   1
  -1  -7   7 14.0450 16.3947   3
  -1  -7   6-41.0551 29.9921   3
  -1  -7   5-16.3601 19.7279   3
  -1  -7   4-2.23990 13.4092   3
   1   7  -3 538.513 46.7911   1
  -1  -7   3 443.489 59.3220   3
   1   7  -2 755.976 63.8179   1
  -1  -7   2 686.342 74.1301   3
  -1  -7   1 36.1865 23.6945   3
  -1  -7   0 6225.86 212.315   3
  -1  -7  -1 957.578 84.7125   3
  -1  -7  -1 1017.50 120.591   5
  -1  -7  -2 426.391 83.7980   5
  -1  -7  -2 423.186 58.1220   3
   1   7   2 431.966 67.5560   6
   1   7   3 5.67785 19.2932   6
  -1  -7  -3 53.6395 43.9543   5
  -1  -7  -3 50.8754 25.5346   3
  -1  -7  -4 76.8353 29.3824   3
  -1  -7  -4 7.24259 21.7906   5
  -1  -7  -5 1.78985 30.3207   5
  -1  -7  -5 18.2407 16.7590   3
  -1  -7  -6-27.4351 50.1792   5
   1   8 -13 39.9891 33.3732   6
   1   8 -12 61.2865 46.5846   4
   1   8 -12 29.9638 16.3750   6
   1   8 -11 8.34788 21.0446   6
  -1  -8  10 79.4657 35.0322   3
  -1  -8   9 454.073 73.8260   3
  -1  -8   8 113.593 25.6887   1
  -1  -8   8 128.137 42.1045   3
  -1  -8   7 372.784 62.0528   3
  -1  -8   6 31.2024 24.1673   3
  -1  -8   5-7.38937 17.5983   3
  -1  -8   4 207.753 47.5118   3
   1   8  -3 237.913 33.9640   1
  -1  -8   3 192.486 45.4876   3
  -1  -8   2 344.282 57.1726   3
   1   8  -2 439.567 51.3815   1
  -1  -8   1 182.415 46.0008   3
  -1  -8   0 1048.77 95.3472   3
  -1  -8  -1 27.6474 27.9043   3
  -1  -8  -2 163.014 41.0885   3
  -1  -8  -2 137.781 54.2875   5
  -1  -8  -3 74.6567 31.9887   3
  -1  -8  -3 30.1653 23.2659   5
  -1  -8  -4 54.0987 26.6128   3
  -1  -8  -4 46.8895 44.3380   5
   1   9 -13 60.3812 43.3593   6
   1   9 -12-4.25975 27.6690   6
   1   9 -11 21.7920 20.5482   6
  -1  -9  11 31.2756 31.4095   3
  -1  -9  10-17.1071 18.9634   3
  -1  -9   9 43.3970 27.6366   3
  -1  -9   8 50.5064 28.8348   3
  -1  -9   7 20.9835 20.5326   3
  -1  -9   6 106.486 34.9026   3
  -1  -9   5 495.033 74.0716   3
  -1  -9   4 14.8187 20.7269   3
   1   9  -3 40.0616 16.8869   1
  -1  -9   3 81.7461 38.2090   3
   1   9  -2 42.2883 19.9013   1
  -1  -9   2 53.9677 32.1604   3
  -1  -9   1 171.880 45.5515   3
   1   9  -1 177.680 39.0012   1
  -1  -9   0 68.0012 30.9523   3
  -1  -9  -1 40.0292 29.8549   3
  -1  -9  -2 64.8376 31.9749   3
  -1  -9  -3 29.6893 27.8324   5
  -1  -9  -3 31.2956 27.6276   3
   1  10 -12 26.2379 28.2149   6
  -1 -10  11 3.82008 23.7159   3
  -1 -10  10-3.82343 19.3254   3
  -1 -10   9 31.1425 26.6838   3
  -1 -10   8-59.3392 35.3856   3
  -1 -10   7 25.9345 24.6748   3
  -1 -10   6 9.83372 19.9387   3
  -1 -10   5 31.3920 20.0441   3
  -1 -10   4 37.7050 25.8878   3
  -1 -10   3-10.0247 18.6118   3
  -1 -10   2 8.92123 17.9973   3
   1  10  -1-11.2687 20.0512   1
  -1 -10   1 18.2623 15.1487   3
  -1 -10   0 6.31488 21.9460   3
  -1 -10  -1 43.6817 29.6258   3
  -1 -10  -2 20.2390 24.0700   3
  -1 -11  10-3.21449 28.6787   3
  -1 -11   9-0.22784 25.0107   3
  -1 -11   8 4.80010 21.0566   3
  -1 -11   7 55.3502 35.9050   3
  -1 -11   6-9.27935 20.9215   3
  -1 -11   5-19.6560 32.0135   3
  -1 -11   4-5.87135 20.7070   3
  -1 -11   3 27.6089 27.7034   3
  -1 -11   2-36.8117 34.7289   3
  -1 -11   1 58.8975 34.2084   3
  -1 -11   0-51.9268 36.0783   3
  -1 -11  -1 33.8882 37.4829   3
  -1 -12   5 57.1254 36.3351   3
  -1 -12   4-43.3755 33.1512   3
   2 -12   1-30.6487 31.5618   3
   2 -12   2 6.99751 23.6256   3
   2 -12   3-30.6372 30.7193   3
   2 -12   4 3.90706 21.7346   3
   2 -12   5 117.746 50.4055   3
   2 -12   6 117.242 50.3356   3
   2 -12   7 37.1849 35.8553   3
   2 -12   8 43.2509 36.2829   3
   2 -12   9-15.3969 29.5988   3
   2 -12  10 1.88511 21.8218   3
   2 -11  -3 58.0866 33.6342   3
   2 -11  -2-10.0281 22.6728   3
   2 -11  -1 51.5961 39.9657   3
   2 -11   0 12.0890 20.6980   3
   2 -11   1 22.2826 24.4697   3
   2 -11   2 141.249 51.1891   3
   2 -11   3 53.2182 32.6640   3
   2 -11   4 24.6813 22.8159   3
   2 -11   5-15.7064 24.1012   3
   2 -11   6 61.2730 36.0532   3
   2 -11   7 139.532 44.2419   3
   2 -11   8 74.5177 38.8685   3
   2 -11   9 48.9910 36.9742   3
   2 -11  10-16.3549 22.7730   3
   2 -11  11-24.7086 36.8934   3
   2 -11  12-14.5121 31.3633   3
   2 -10  -5 204.024 59.5976   3
   2 -10  -4 15.0167 23.1646   3
   2 -10  -3 9.61955 20.6223   3
   2 -10  -2 9.67015 21.1593   3
   2 -10  -1-23.7740 29.4395   3
   2 -10   0 119.421 41.7563   3
   2 -10   1 13.7279 20.2305   3
   2 -10   2 39.6503 27.6515   3
   2 -10   3-32.5218 26.3316   3
   2 -10   4 31.0750 27.2525   3
   2 -10   5 40.7214 17.1436   3
   2 -10   6 52.7798 36.1640   3
   2 -10   7 61.3993 33.9369   3
   2 -10   8 33.7097 32.1386   3
   2 -10   9-1.64972 21.3033   3
   2 -10  10 33.3911 25.4915   3
   2 -10  11-86.9825 37.9313   3
   2 -10  12 10.5249 29.7207   3
   2  -9  -6 21.1047 23.1751   3
   2  -9  -5 55.1825 36.2729   3
   2  -9  -4 205.985 67.7649   5
   2  -9  -4 97.7260 40.7583   3
   2  -9  -3 30.4671 23.6595   5
   2  -9  -3 18.9782 29.3660   3
   2  -9  -2 82.2210 53.6984   5
   2  -9  -2 65.2776 35.7916   3
   2  -9  -1 27.1194 26.7069   3
   2  -9   0 75.4645 37.5950   3
   2  -9   1 59.3690 31.5594   3
  -2   9  -2 8.61134 5.25517   1
   2  -9   2-17.0509 16.8979   3
   2  -9   3 333.539 59.6367   3
   2  -9   4-26.7813 24.4661   3
   2  -9   5-27.3699 29.4227   3
   2  -9   6 114.251 36.3059   3
   2  -9   7 14.9064 22.1628   3
   2  -9   8 29.9300 25.4234   3
   2  -9   9 520.482 76.2350   3
   2  -9  10 65.6110 22.9688   3
  -2   9 -11 27.0037 33.9831   4
   2  -9  11-1.78900 17.4836   3
  -2   9 -12 115.891 51.9990   4
   2  -8  -6-6.98411 39.8909   5
   2  -8  -6 56.6634 34.0081   3
   2  -8  -5 68.2248 47.3498   5
   2  -8  -5 72.4056 35.9530   3
   2  -8  -4 196.961 66.9818   5
   2  -8  -4 147.090 47.1206   3
   2  -8  -3 15.6344 22.3291   5
   2  -8  -3-8.51455 21.0579   3
   2  -8  -2 18.3342 27.7741   5
   2  -8  -2 13.0740 23.6562   3
   2  -8  -1 484.822 71.9315   3
   2  -8   0 789.836 86.4410   3
   2  -8   1 692.459 82.8013   3
  -2   8  -2 37.2699 8.89900   1
   2  -8   2 48.8379 28.1523   3
   2  -8   3 43.3533 27.7423   3
   2  -8   4 299.764 51.7321   3
   2  -8   5 345.713 55.7779   3
   2  -8   6 67.5172 30.2987   3
   2  -8   7 14.1501 20.3312   3
   2  -8   8 589.124 73.8365   3
   2  -8   9 294.876 53.7522   3
   2  -8  10 654.271 80.4879   3
  -2   8 -11 106.414 45.2831   4
   2  -8  11 109.748 36.1150   3
  -2   8 -12-19.4247 18.6353   4
   2  -7  -7 153.402 45.2066   3
   2  -7  -7 47.9137 33.0891   5
   2  -7  -6 28.6275 23.2946   3
   2  -7  -6 53.1039 38.9431   5
   2  -7  -5 11.8214 22.4675   3
   2  -7  -5 61.3942 45.7868   5
   2  -7  -4 903.969 100.868   3
   2  -7  -4 746.844 116.174   5
   2  -7  -3-4.66958 22.2019   3
  -2   7   3 22.8589 21.4906   2
   2  -7  -3 21.8394 31.7479   5
   2  -7  -2 94.2531 37.6818   3
   2  -7  -2 45.0597 29.8285   5
  -2   7   2 10.0926 26.0738   2
   2  -7  -1 105.873 35.4749   3
   2  -7  -1 34.1704 17.8907   5
  -2   7   0 87.1205 31.1244   5
  -2   7   0 122.301 39.9905   6
   2  -7   0 96.3532 36.7880   3
  -2   7  -1 39.6857 28.6620   6
   2  -7   1 32.2044 27.6719   3
  -2   7  -1 4.41674 12.7341   5
  -2   7  -2 612.722 78.4364   6
   2  -7   2 453.034 60.1486   3
  -2   7  -2 336.826 23.9827   1
  -2   7  -2 480.823 61.6415   3
  -2   7  -2 481.093 67.3672   5
  -2   7  -3 116.029 38.9025   5
  -2   7  -3 90.7839 29.4952   3
   2  -7   3 102.842 30.8314   3
   2  -7   4 1360.52 99.8450   3
  -2   7  -4 1524.72 110.768   3
  -2   7  -5 127.370 33.0604   3
   2  -7   5 85.6312 27.4936   3
   2  -7   6 357.851 30.9589   1
   2  -7   6 507.606 61.4841   3
  -2   7  -6 477.093 65.4114   3
  -2   7  -7 62.9400 32.1784   3
   2  -7   7 45.4927 29.6271   3
   2  -7   8 4.06241 17.3278   3
  -2   7  -8 3.94895 18.2711   3
  -2   7  -9 2.25892 13.0412   3
   2  -7   9 17.4307 21.4469   3
   2  -7  10 131.330 37.3472   3
  -2   7 -10 201.768 59.0806   4
  -2   7 -11 44.8395 34.0481   4
  -2   7 -12 36.2665 26.3604   4
   2  -6  -8 24.8674 29.4868   3
   2  -6  -8 21.2768 38.4918   5
   2  -6  -7 54.8974 31.1791   3
   2  -6  -7 52.9669 48.7932   5
   2  -6  -6 187.048 48.8891   3
   2  -6  -6 159.540 57.7777   5
  -2   6   5 436.914 70.5684   6
  -2   6   5 441.112 68.8029   2
   2  -6  -5 494.724 73.6846   3
   2  -6  -5 476.894 89.9406   5
  -2   6   4 187.444 44.0115   2
   2  -6  -4 197.280 46.2123   3
  -2   6   4 263.777 55.3132   6
   2  -6  -4 180.604 55.7072   5
   2  -6  -3 29.9580 28.7636   3
  -2   6   3 44.8240 20.8363   2
  -2   6   3 130.374 42.2369   6
   2  -6  -3 32.7806 25.3633   5
   2  -6  -2 6.30143 20.3458   5
   2  -6  -2 30.5494 29.5991   3
  -2   6   2 10.8049 14.9824   6
  -2   6   1 662.980 77.9626   6
   2  -6  -1 534.899 75.5019   5
   2  -6  -1 551.811 67.0082   3
  -2   6   1 648.406 77.0436   5
   2  -6   0 43.7193 27.8982   3
  -2   6   0 28.4121 22.6817   6
  -2   6   0 34.4408 22.4316   5
  -2   6  -1-17.2928 14.9827   5
   2  -6   1-3.80660 16.7284   3
   2  -6   2 1293.55 93.6143   3
  -2   6  -2 1034.97 43.2327   1
   2  -6   3 24.8538 21.4632   3
  -2   6  -3 24.8525 19.1839   3
   2  -6   4 4082.77 156.377   3
  -2   6  -4 4367.85 170.873   3
  -2   6  -5 33.9373 21.5414   3
   2  -6   5 19.4137 16.3835   3
   2  -6   5 2.99375 6.04695   1
  -2   6  -6 14.7087 17.1722   3
   2  -6   6 54.3828 23.6020   3
  -2   6  -7 84.3361 30.7085   3
   2  -6   7 67.6049 31.4299   3
   2  -6   8 68.6043 29.6524   3
  -2   6  -8 133.918 34.9973   3
  -2   6  -9 14.6565 25.0376   4
  -2   6  -9 32.4032 15.4154   3
   2  -6   9 74.1398 25.8962   3
  -2   6 -10 42.4252 27.6339   4
   2  -6  10-21.6326 20.6030   3
  -2   6 -11 46.7048 21.7272   6
  -2   6 -11 56.7043 37.7597   4
  -2   6 -12-9.41918 30.2318   4
  -2   6 -12 50.5693 38.6677   2
   2  -5  -9-29.3378 42.2795   5
   2  -5  -8-0.82697 35.1963   5
   2  -5  -8 6.98307 18.4843   3
   2  -5  -7 27.6429 22.1474   5
   2  -5  -7 21.0510 18.9239   3
   2  -5  -6-17.6810 30.8045   3
  -2   5   6-5.38106 19.9318   6
  -2   5   6-11.9922 13.8087   2
   2  -5  -6-22.8439 19.3114   5
  -2   5   5-7.43092 19.2161   2
   2  -5  -5 5.66327 18.9757   3
   2  -5  -5 17.8970 30.5629   5
  -2   5   5-7.92969 13.7019   6
   2  -5  -4 12.7297 17.4822   3
  -2   5   4 5.92341 13.6139   6
   2  -5  -4 3.95591 16.0133   5
  -2   5   3 861.292 78.6141   2
   2  -5  -3 880.968 85.8605   3
   2  -5  -3 848.970 96.2185   5
  -2   5   3 900.359 89.8016   6
   2  -5  -2 388.807 55.5393   3
  -2   5   2 332.745 45.4011   2
  -2   5   2 320.667 49.7542   6
   2  -5  -2 368.547 59.0249   5
   2  -5  -1 2306.23 126.192   3
  -2   5   1 2332.38 131.946   6
   2  -5  -1 2285.50 138.957   5
   2  -5   0 146.088 33.4359   3
   2  -5   1 906.616 77.3136   3
  -2   5  -1 590.537 82.0080   5
   2  -5   2 81.9669 25.3138   3
   2  -5   3 241.805 40.0788   3
   2  -5   4 65.4382 21.8579   3
   2  -5   4 45.6158 12.5618   1
   2  -5   5 395.170 44.5647   3
   2  -5   6 88.6390 24.5945   3
   2  -5   7 108.882 26.6086   3
   2  -5   8 19.2245 17.9004   3
  -2   5  -8-2.57834 19.5897   4
  -2   5  -9 35.2438 26.6202   4
   2  -5   9-1.06899 13.3469   3
  -2   5 -10 40.4517 30.9434   4
  -2   5 -10 39.5316 20.7015   6
  -2   5 -11 21.8925 21.6208   4
  -2   5 -11 36.4819 25.7875   2
  -2   5 -12 7.77861 21.0654   2
   2  -4 -10 50.8362 52.5659   5
   2  -4  -9 23.4925 17.9162   3
   2  -4  -9 36.9623 21.5202   5
   2  -4  -8 32.7454 36.3841   5
   2  -4  -8 35.6808 30.4426   3
   2  -4  -7 35.6766 17.2554   3
  -2   4   7 67.0444 28.6096   6
   2  -4  -7 82.8077 41.1976   5
   2  -4  -6 37.4071 20.9400   5
  -2   4   6 10.9700 11.8014   6
   2  -4  -6-25.5161 29.2157   3
  -2   4   6 30.6988 18.2236   2
   2  -4  -6 81.3991 34.8238   6
   2  -4  -5 60.6718 33.0744   5
   2  -4  -5 73.1983 37.7980   6
  -2   4   5 9.45660 16.8950   6
   2  -4  -4 152.961 38.6607   5
   2  -4  -4 181.259 42.7304   6
  -2   4   4 137.808 34.1446   6
  -2   4   4 128.929 29.0277   2
  -2   4   3 107.768 25.9381   2
   2  -4  -3 110.992 35.5036   6
  -2   4   3 140.403 34.1421   6
   2  -4  -3 100.291 34.4348   5
  -2   4   2 8.11425 11.2173   2
  -2   4   2 31.6935 20.8722   6
   2  -4  -2-36.7691 23.3465   3
   2  -4  -2 47.8651 30.5682   6
   2  -4  -2 16.2104 19.5336   5
  -2   4   1 902.201 74.5945   6
   2  -4  -1 838.711 71.8453   3
   2  -4  -1 878.888 75.4860   5
  -2   4   1 772.599 70.6775   5
   2  -4   0-0.33201 12.6091   3
  -2   4   0 12.8377 11.0962   5
   2  -4   1 515.620 52.7713   3
  -2   4  -1 407.363 33.8911   1
  -2   4  -1 439.186 50.9371   5
   2  -4   2 307.736 38.8163   3
  -2   4  -3 42.6936 15.1183   3
   2  -4   3 58.1293 14.3587   1
   2  -4   3 39.9231 17.1936   3
   2  -4   4 411.024 39.7204   3
  -2   4  -4 427.487 44.0838   3
  -2   4  -5 171.590 28.2601   3
   2  -4   5 131.678 22.2524   3
  -2   4  -6 83.9695 27.4388   4
  -2   4  -6 141.052 25.9058   3
   2  -4   6 160.166 25.5811   3
  -2   4  -7 119.372 23.4393   3
  -2   4  -7 81.3002 32.4637   4
   2  -4   7 111.190 21.7477   3
  -2   4  -8 112.909 24.3140   3
  -2   4  -8 123.558 41.6575   4
  -2   4  -9 52.7553 33.5835   4
  -2   4  -9 37.4151 15.1125   3
  -2   4  -9 17.2060 25.1836   2
  -2   4  -9 33.1764 15.2617   6
  -2   4 -10 110.519 44.2407   2
  -2   4 -10 2.89440 7.81344   6
  -2   4 -11 34.9555 38.5901   2
  -2   4 -12 43.4142 36.1879   2
   2  -3 -11-7.90596 33.0748   2
   2  -3 -10-15.1639 23.7686   2
   2  -3 -10 16.5019 17.5765   3
   2  -3  -9-21.7627 22.9848   2
   2  -3  -9 74.8350 30.9575   6
   2  -3  -8 145.235 41.4239   6
  -2   3   8 96.3904 29.1899   6
   2  -3  -8 173.227 49.9146   2
  -2   3   7 1874.41 124.227   6
   2  -3  -7 1820.13 126.708   6
   2  -3  -7 1689.06 131.502   2
   2  -3  -6 178.054 41.0697   6
   2  -3  -6 140.895 36.5120   2
  -2   3   6 157.095 34.7320   6
   2  -3  -5 185.294 38.9535   6
   2  -3  -5 203.462 40.5085   2
  -2   3   5 179.669 34.2044   2
  -2   3   5 176.894 38.6578   6
  -2   3   4 300.845 40.4005   2
  -2   3   4 298.813 48.0371   6
   2  -3  -4 282.991 47.7704   6
  -2   3   3 6384.44 203.719   6
  -2   3   3 6685.58 163.076   2
   2  -3  -3 6258.57 199.442   6
   2  -3  -3 6292.15 212.600   5
   2  -3  -2 269.148 42.2081   6
  -2   3   2 362.287 47.1252   6
  -2   3   2 328.951 32.6474   2
   2  -3  -2 340.080 45.7711   5
   2  -3  -1 377.526 42.7213   5
   2  -3  -1 396.602 47.0004   6
   2  -3   0 93.8460 25.0333   6
  -2   3   0 72.9312 18.3172   5
   2  -3   1 1937.58 88.3701   3
  -2   3  -1 1872.46 72.8319   1
   2  -3   2 3878.04 107.163   1
   2  -3   2 3770.68 114.996   3
  -2   3  -3 538.269 43.1326   3
   2  -3   3 646.192 44.9714   3
  -2   3  -3 643.044 50.9654   6
  -2   3  -4 41.6629 17.0613   3
   2  -3   4 13.6874 13.4871   3
  -2   3  -5 1465.51 66.7916   3
  -2   3  -5 1283.46 97.6513   4
   2  -3   5 1380.29 58.4150   3
  -2   3  -6 1071.56 101.434   4
   2  -3   6 1061.71 54.1633   3
  -2   3  -6 1004.62 54.0937   3
  -2   3  -7 493.170 74.9772   4
  -2   3  -7 546.075 38.5671   3
  -2   3  -7 526.214 78.8623   2
  -2   3  -8 159.651 48.0179   4
  -2   3  -8 117.547 17.7391   3
  -2   3  -8 149.164 53.2391   2
  -2   3  -8 108.187 20.2477   6
  -2   3  -9 14.8386 7.55529   6
  -2   3  -9 26.1820 12.2650   6
  -2   3  -9 30.8849 26.3519   2
  -2   3 -10 35.3093 37.1902   2
  -2   3 -11 49.4633 38.6554   2
  -2   3 -12-47.7075 38.3108   2
   2  -2 -12 42.0906 44.6611   2
   2  -2 -11 51.0654 33.8618   2
   2  -2 -10 58.6048 26.7067   6
   2  -2 -10 52.4860 21.0457   2
   2  -2  -9 165.709 42.2510   6
   2  -2  -9 165.148 47.9418   2
  -2   2   9 118.196 30.4742   6
   2  -2  -8 172.949 44.1870   2
   2  -2  -8 161.413 36.5741   6
  -2   2   8 146.313 32.5904   6
   2  -2  -7 2837.41 162.347   2
   2  -2  -7 2843.78 153.743   6
  -2   2   7 2858.96 146.923   6
  -2   2   6 73.3910 29.8221   4
   2  -2  -6 66.3615 27.3049   2
   2  -2  -6 32.9518 16.4745   6
  -2   2   6 79.9494 25.0690   6
  -2   2   5 55.2516 22.7969   6
   2  -2  -5 90.2485 25.8620   2
   2  -2  -5 119.204 29.8198   6
   2  -2  -4 159.405 36.4096   6
  -2   2   4 159.185 33.7532   6
   2  -2  -4 157.226 28.3034   2
   2  -2  -3 21.6049 18.7481   6
  -2   2   3 24.2307 12.0377   2
  -2   2   3 13.7283 14.0466   6
   2  -2  -3 14.2242 12.4493   2
   2  -2  -2 978.556 70.7848   6
  -2   2   2 1010.36 42.1311   2
   2  -2  -1 2692.78 111.186   6
   2  -2  -1 2673.46 91.4259   5
  -2   2   0 14780.1 217.321   1
   2  -2   0 14726.8 245.953   6
  -2   2   0 14980.9 174.965   5
   2  -2   1 33263.7 338.446   6
  -2   2  -1 33147.0 313.398   1
   2  -2   2 165.515 20.7212   3
  -2   2  -2 169.671 23.6970   6
  -2   2  -3 2676.23 110.864   4
  -2   2  -3 2695.19 89.6364   6
   2  -2   3 2716.92 73.4253   3
   2  -2   4 721.924 32.8709   3
  -2   2  -4 829.284 49.0474   6
  -2   2  -4 674.339 67.6285   4
  -2   2  -5 763.343 77.9425   4
   2  -2   5 752.101 33.9221   3
  -2   2  -5 834.170 84.0300   2
  -2   2  -5 805.922 45.6961   6
  -2   2  -6 24.6607 23.8227   2
  -2   2  -6 11.3335 9.16652   6
  -2   2  -7 25.8814 7.93029   6
  -2   2  -7 38.4071 29.0060   2
  -2   2  -7 45.5906 10.3969   6
  -2   2  -8 102.000 42.6071   2
  -2   2  -9 45.4381 28.8646   2
  -2   2 -10 563.336 102.377   2
  -2   2 -11 82.4779 52.4492   2
  -2   2 -12 50.1268 51.8195   2
   2  -1 -13-18.2222 39.6125   2
   2  -1 -12 70.1457 45.4353   2
   2  -1 -11 45.3524 37.8426   2
   2  -1 -10 214.437 58.4993   2
   2  -1 -10 101.582 28.9957   6
  -2   1   9 96.7350 25.3532   6
   2  -1  -9 128.984 39.2454   6
   2  -1  -9 130.564 43.3527   2
  -2   1   8 4133.87 170.777   6
   2  -1  -8 4428.40 217.079   2
   2  -1  -8 4322.27 198.523   6
   2  -1  -7 800.559 80.8026   6
   2  -1  -7 778.843 82.6722   2
  -2   1   7 786.709 73.4556   6
   2  -1  -6 99.4827 28.6840   6
   2  -1  -6 139.579 35.1703   2
  -2   1   6 126.329 36.7675   4
  -2   1   6 112.484 26.9380   6
   2  -1  -5 891.869 76.7736   6
   2  -1  -5 893.247 68.4662   2
  -2   1   5 910.920 75.7525   6
  -2   1   4 192.664 34.6076   6
   2  -1  -4 202.902 34.7456   6
   2  -1  -4 182.283 25.5905   2
  -2   1   4 165.350 32.4123   4
   2  -1  -3 4347.54 152.050   6
  -2   1   3 4702.96 145.505   4
   2  -1  -3 4851.90 102.906   2
  -2   1   3 4761.01 155.320   6
   2  -1  -2 3316.52 122.555   6
   2  -1  -1 24356.4 310.169   6
  -2   1   0 25.5421 10.4780   2
   2  -1   0 27.2644 14.3568   6
  -2   1   0 10.6962 11.4354   1
  -2   1  -1 107442. 415.207   4
  -2   1  -1 106189. 563.207   2
   2  -1   1 108998. 563.360   6
  -2   1  -2 5123.73 111.083   6
   2  -1   2 5012.92 104.737   6
  -2   1  -2 4866.65 146.390   2
  -2   1  -2 4936.50 123.585   4
  -2   1  -3 103.386 29.3818   2
  -2   1  -3 99.0416 15.3107   6
   2  -1   3 69.6414 8.15846   3
   2  -1   3 110.234 25.0381   4
   2  -1   4 379.746 49.3868   4
  -2   1  -4 367.669 54.7191   2
  -2   1  -4 282.676 20.9228   6
  -2   1  -5 26.0677 20.1731   2
   2  -1   5 52.0760 23.3190   4
  -2   1  -6 75.7467 31.8624   2
   2  -1   6 111.819 33.2864   4
  -2   1  -7 60.2565 30.2148   2
  -2   1  -8 31.0534 32.5364   2
  -2   1  -9 570.862 102.649   2
  -2   1 -10 507.873 105.974   2
  -2   1 -11-20.3611 32.8793   2
   2   0 -13 192.900 63.3369   2
   2   0 -12 23.9053 32.0597   2
   2   0 -11 109.961 38.1995   6
   2   0 -11 54.7280 44.8768   2
   2   0 -10 149.954 47.4089   2
   2   0 -10 160.801 36.9829   3
   2   0 -10 151.764 42.5228   6
   2   0  -9 26.7934 30.1737   2
   2   0  -9 15.0052 20.3415   6
  -2   0   8 181.707 37.3321   6
   2   0  -8 199.978 46.9877   2
   2   0  -8 153.520 38.3677   6
  -2   0   7-4.57951 11.6273   4
   2   0  -7-9.55715 21.7695   6
  -2   0   7 16.4105 14.2542   6
   2   0  -7 35.7906 25.9478   2
   2   0  -6 1213.44 88.5398   2
  -2   0   6 1143.02 97.4602   4
  -2   0   6 1168.55 84.7237   6
   2   0  -6 1052.78 88.7268   6
  -2   0   5 2011.48 105.560   6
   2   0  -5 1908.23 112.191   6
  -2   0   4 1738.25 96.3399   4
   2   0  -4 1698.04 98.8561   6
  -2   0   4 1611.16 91.2049   6
  -2   0   3 1312.92 72.7300   4
   2   0  -3 1265.98 79.3845   6
   2   0  -3 1335.48 74.3180   4
   2   0  -2 4089.49 106.591   4
   2   0  -2 4952.04 153.402   6
   2   0  -1 3114.27 106.800   6
  -2   0   1 3153.83 107.303   1
  -2   0   0 159.380 22.8391   2
   2   0   0 428.867 46.1239   6
  -2   0   0 167.677 26.9640   1
   2   0   0 186.118 34.0359   2
   2   0   1 1687.25 64.9209   6
  -2   0  -1 1699.22 62.8856   6
  -2   0  -1 1631.66 82.3296   2
   2   0   2 680.810 35.1691   6
   2   0   2 681.221 25.7629   3
  -2   0  -2 724.211 33.9535   6
  -2   0  -2 781.988 68.7885   2
   2   0   3 262.435 38.4611   4
  -2   0  -3 210.232 39.2235   2
  -2   0  -4 237.956 43.3765   2
   2   0   4 242.414 42.1852   4
   2   0   5 864.888 87.9190   4
  -2   0  -5 744.345 87.1897   2
   2   0   6-28.7022 26.4121   4
  -2   0  -6 8.17368 30.3688   2
  -2   0  -7 201.190 56.2059   2
  -2   0  -8 144.264 56.9335   2
  -2   0  -9 446.998 94.7530   2
  -2   0 -10 32.8096 24.3370   2
  -2   0 -11-10.2064 27.5165   2
   2   1 -14 21.0252 34.4860   2
   2   1 -13 89.5401 52.3413   2
   2   1 -12 14.5359 23.2307   2
   2   1 -11-17.5438 21.4340   6
   2   1 -11 16.9346 21.5389   2
   2   1 -10 17.4344 19.1354   2
   2   1 -10-5.82513 12.9026   3
   2   1 -10 3.86134 22.6932   6
   2   1  -9 17.7190 20.9048   2
   2   1  -9 36.6399 15.6971   3
   2   1  -9 30.2140 22.7188   6
   2   1  -8-5.33272 11.8688   6
   2   1  -8 17.0467 12.1131   3
   2   1  -7 954.617 90.3351   6
  -2  -1   7 952.179 79.3368   6
   2   1  -7 817.518 97.1119   4
   2   1  -6 20.6386 23.2462   4
   2   1  -6 9.53218 12.9899   6
  -2  -1   6 17.2280 16.0028   6
   2   1  -5 6800.24 225.521   4
   2   1  -5 6602.84 210.389   6
  -2  -1   5 6620.00 190.326   6
   2   1  -4 598.300 60.5290   4
  -2  -1   4 621.866 56.5437   6
   2   1  -4 551.893 58.2687   6
   2   1  -3 1168.70 76.7338   6
   2   1  -2 3033.40 116.774   6
  -2  -1   2 2580.02 103.494   1
  -2  -1   1 104.859 24.2108   1
   2   1  -1 236.453 40.0320   6
   2   1   0 3970.76 94.8977   3
   2   1   0 4010.94 112.585   6
  -2  -1   0 3909.17 100.030   5
   2   1   0 3917.79 103.125   5
  -2  -1  -1 757.628 64.9162   2
   2   1   1 723.189 44.1351   6
   2   1   1 721.326 35.7638   3
  -2  -1  -1 724.694 52.9624   5
   2   1   2 1191.35 49.2178   6
  -2  -1  -2 1177.87 88.3480   2
   2   1   2 1171.56 38.9910   3
  -2  -1  -3 953.107 87.3005   2
   2   1   3 793.882 31.9308   3
  -2  -1  -4 347.047 60.0948   2
   2   1   5-3.32198 11.2465   4
   2   1   5-15.7539 21.3392   2
  -2  -1  -5 7.66146 19.2991   2
  -2  -1  -6 141.103 52.6539   2
  -2  -1  -7 87.5555 37.2779   2
  -2  -1  -8-7.64727 19.2824   2
  -2  -1  -9 126.236 56.6626   2
  -2  -1 -10-22.4938 37.4677   2
   2   2 -14 114.959 60.2859   2
   2   2 -13 6.33075 27.6186   2
   2   2 -12-32.5680 33.9762   6
   2   2 -12-5.68495 26.2021   2
   2   2 -11 13.8283 27.0457   2
   2   2 -11 14.3660 16.1558   6
   2   2 -10 479.414 63.4475   3
   2   2 -10 430.339 72.1570   6
   2   2  -9 93.8696 28.8808   6
   2   2  -9 86.1667 38.6560   4
   2   2  -9 116.207 31.3684   3
   2   2  -8 190.044 53.1303   4
   2   2  -8 193.236 44.1829   6
   2   2  -8 302.458 47.6011   3
   2   2  -7 538.517 70.3510   6
   2   2  -7 557.866 79.6077   4
   2   2  -6 7.52510 13.0684   4
   2   2  -6 10.4179 17.0896   6
   2   2  -5 2707.12 135.952   6
   2   2  -4 18.7882 15.3848   6
   2   2  -3 768.370 64.8116   6
  -2  -2   3 688.346 56.2035   1
  -2  -2   2 307.377 36.9036   1
  -2  -2   2 212.465 29.6661   3
   2   2  -2 264.735 34.9301   1
   2   2  -2 279.723 38.4179   6
   2   2  -1 120.219 25.7464   1
  -2  -2   1 150.938 23.3719   3
   2   2  -1 138.584 20.9719   3
   2   2  -1 169.029 27.3562   6
   2   2  -1 152.574 24.0799   5
   2   2   0 35.1787 15.9475   5
  -2  -2   0 31.5920 12.6339   3
   2   2   0 45.7906 17.5443   6
   2   2   0 38.5295 12.7366   3
  -2  -2   0 22.1630 12.7621   5
   2   2   1 339.134 29.0174   3
  -2  -2  -1 350.615 30.4649   3
  -2  -2  -1 349.935 43.8598   5
   2   2   2 1077.63 50.2181   3
  -2  -2  -2 1130.39 51.7471   3
  -2  -2  -2 1215.93 93.2691   5
   2   2   2 1281.93 60.9754   6
  -2  -2  -3 831.546 89.2476   2
   2   2   3 820.892 44.5648   3
  -2  -2  -3 841.743 41.0145   3
  -2  -2  -3 805.160 80.4959   5
   2   2   3 819.059 42.4064   6
   2   2   4 448.290 23.8869   6
  -2  -2  -4 495.961 76.7278   2
   2   2   4 456.952 23.7708   6
  -2  -2  -4 547.532 30.2234   3
  -2  -2  -5 41.9312 7.65521   3
  -2  -2  -5 33.2722 26.6876   2
  -2  -2  -6 75.2303 38.9437   2
  -2  -2  -7-8.15710 19.5219   2
  -2  -2  -8 0.12347 25.3753   2
  -2  -2  -9 44.5426 38.4853   2
  -2  -2 -10-44.8618 62.2523   2
   2   3 -14 36.3403 45.9989   2
   2   3 -13 27.0648 37.2484   2
   2   3 -12 52.5605 30.4487   6
   2   3 -12 69.9842 41.4738   2
   2   3 -11 65.5565 32.1861   6
   2   3 -10 55.6332 36.9144   4
   2   3 -10 75.2156 34.7530   6
   2   3  -9 185.497 52.4290   4
   2   3  -9 216.565 49.9326   6
   2   3  -9 293.687 48.8103   3
   2   3  -8 22.6432 13.5540   4
   2   3  -8 20.0234 19.7917   6
   2   3  -8-13.4772 12.2628   3
   2   3  -7-20.8031 17.8416   4
   2   3  -7-5.78487 14.7952   3
   2   3  -7 22.4308 18.7412   6
   2   3  -6 176.422 39.3259   6
   2   3  -5-1.15066 9.68914   6
  -2  -3   4 9.11151 15.5925   1
  -2  -3   4 15.6291 13.3815   3
   2   3  -4 5.02738 11.2980   6
  -2  -3   3 203.767 33.3244   3
  -2  -3   3 185.538 30.3335   1
  -2  -3   2 6155.21 166.915   3
   2   3  -2 6412.40 171.966   1
   2   3  -1 256.954 31.1737   3
  -2  -3   1 228.902 30.6698   3
   2   3  -1 262.117 36.5776   5
   2   3  -1 287.694 41.1379   1
   2   3   0 213.556 28.2733   3
  -2  -3   0 304.582 35.0071   3
  -2  -3   0 270.691 40.7641   5
   2   3   0 280.652 41.8454   5
   2   3   1 559.219 42.7808   3
  -2  -3  -1 528.170 43.7839   3
  -2  -3  -1 571.924 64.2557   5
   2   3   2 441.940 39.0654   3
  -2  -3  -2 408.853 37.1485   3
  -2  -3  -2 443.442 62.3338   5
   2   3   3 83.5522 17.9120   3
  -2  -3  -3 106.132 19.5288   3
  -2  -3  -3 125.406 37.6363   5
   2   3   4 55.2146 13.8393   6
  -2  -3  -4 68.6874 14.4189   3
  -2  -3  -4 66.3813 30.6712   5
  -2  -3  -5 38.0669 28.9085   5
  -2  -3  -5-0.22767 4.95568   3
   2   3   5 0.39235 4.08157   6
  -2  -3  -6 65.1787 28.0954   5
  -2  -3  -6 22.6298 6.83711   3
  -2  -3  -7 83.1378 42.8046   5
  -2  -3  -8 70.1495 43.0557   5
  -2  -3  -9 0.75655 32.9531   5
   2   4 -14 146.418 55.3887   2
   2   4 -13-11.3354 24.0027   2
   2   4 -13 11.4516 24.4318   6
   2   4 -12 10.0764 22.4355   4
   2   4 -12 22.8257 16.7993   6
   2   4 -11 570.080 101.824   4
   2   4 -11 465.524 80.3528   6
   2   4 -10-11.9910 28.6214   4
   2   4 -10 66.9008 34.5711   6
   2   4  -9-10.4141 19.5140   4
   2   4  -9 32.6008 21.4022   6
   2   4  -8 47.6158 29.3182   4
   2   4  -8 53.9260 21.0533   6
   2   4  -8 100.395 28.7149   3
   2   4  -7 408.013 51.0948   3
   2   4  -7 401.774 61.0115   6
   2   4  -6 900.109 87.1466   6
   2   4  -6 1000.43 74.8832   3
  -2  -4   5 1493.42 97.8064   3
  -2  -4   5 1425.64 87.3800   1
   2   4  -5 1309.16 100.325   6
  -2  -4   4 2285.38 119.756   3
  -2  -4   4 2524.00 112.825   1
  -2  -4   3 99.9558 23.3206   1
  -2  -4   3 110.640 27.2185   3
   2   4  -2 11482.1 225.031   3
   2   4  -2 11591.6 271.574   5
   2   4  -2 11468.2 245.395   1
  -2  -4   2 11173.3 242.319   3
  -2  -4   1 36.5312 15.9627   3
   2   4  -1 24.1288 14.8523   3
   2   4  -1 16.2418 14.7303   1
   2   4  -1 40.1665 21.2976   5
  -2  -4   0 110.527 35.8630   5
   2   4   0 94.1972 23.7667   3
  -2  -4   0 68.2647 22.7482   3
   2   4   0 77.5009 34.4666   5
  -2  -4  -1 509.914 48.3133   3
   2   4   1 553.657 51.9805   3
  -2  -4  -1 568.458 72.6536   5
  -2  -4  -2 336.886 39.9943   3
   2   4   2 405.292 67.2958   2
   2   4   2 381.977 43.7819   3
  -2  -4  -2 392.478 64.8125   5
  -2  -4  -3 328.235 37.3398   3
   2   4   3 396.569 44.8415   3
  -2  -4  -3 381.128 68.4138   5
   2   4   4 12.2309 10.4277   6
  -2  -4  -4 18.8229 10.2284   3
  -2  -4  -4 3.92982 15.6841   5
  -2  -4  -5-8.03179 6.35397   3
   2   4   5 19.4796 10.3092   6
  -2  -4  -5 27.5025 26.8396   5
  -2  -4  -6 207.454 23.5240   3
  -2  -4  -6 333.710 75.8736   5
  -2  -4  -7 69.9797 42.0223   5
  -2  -4  -8 4.87707 27.1982   5
   2   5 -13 51.8595 41.6782   4
   2   5 -13 55.5334 34.1586   6
   2   5 -12 29.5366 23.9190   6
   2   5 -12-3.89861 24.3748   4
   2   5 -11 26.4439 16.7586   4
   2   5 -11 32.8293 25.4727   6
   2   5 -10 72.2995 37.5981   4
   2   5 -10 62.7926 31.1735   6
   2   5  -9 1481.44 140.908   4
   2   5  -9 1602.20 137.527   6
   2   5  -8 2826.41 171.293   6
  -2  -5   7-13.5945 17.3480   3
   2   5  -7 0.64603 11.5006   6
   2   5  -7 28.6928 19.9610   3
  -2  -5   6 1331.19 102.072   3
  -2  -5   6 1355.20 91.0997   1
   2   5  -6 1408.37 91.2770   3
  -2  -5   5 104.884 33.5388   3
  -2  -5   5 24.3282 29.6328   1
  -2  -5   4 403.249 54.7703   3
  -2  -5   4 446.975 48.5331   1
   2   5  -3 891.396 71.4940   3
  -2  -5   3 788.372 73.3811   3
   2   5  -3 860.344 70.4636   1
   2   5  -2 69.4313 23.9006   3
   2   5  -2 69.8825 22.1265   1
  -2  -5   2 55.5910 22.5102   3
   2   5  -2 78.1778 29.2648   5
  -2  -5   1-4.39991 16.0826   3
   2   5  -1 21.1183 20.5211   1
   2   5  -1 8.07368 16.5094   3
   2   5  -1-5.92686 10.7951   5
   2   5   0 82.4855 27.3623   3
  -2  -5   0 34.2502 20.2069   3
   2   5   0 70.4389 31.1779   5
   2   5   1 860.200 69.6555   3
  -2  -5  -1 774.515 66.6920   3
  -2  -5  -1 841.090 96.5350   5
   2   5   2 252.319 41.4207   3
  -2  -5  -2 248.721 36.7219   3
  -2  -5  -2 367.482 72.1208   5
  -2  -5  -3 251.643 37.1223   3
   2   5   3 285.120 45.2006   6
  -2  -5  -3 223.878 56.3363   5
   2   5   4 19.5381 13.6951   6
  -2  -5  -4 14.0257 11.8273   3
  -2  -5  -4 6.15334 28.4568   5
  -2  -5  -5 1.58914 11.1801   3
  -2  -5  -5 28.6940 22.3359   5
  -2  -5  -6 76.0480 39.7480   5
  -2  -5  -7-2.50563 29.1845   5
   2   6 -13-60.0718 31.6284   6
   2   6 -13 71.6037 50.4443   4
   2   6 -12 65.0431 32.3306   4
   2   6 -12 18.2580 18.6414   6
   2   6 -11 1.89961 23.9007   4
   2   6 -11-0.47688 14.9673   6
   2   6 -10 103.346 38.0496   4
   2   6 -10 131.808 41.9302   6
   2   6  -9 1.13456 13.9512   6
  -2  -6   8 2385.59 151.955   3
   2   6  -8 2337.52 158.560   6
  -2  -6   7 1358.07 112.904   3
  -2  -6   7 1477.87 100.642   1
  -2  -6   6 53.5519 29.1139   3
  -2  -6   6 53.8450 18.5185   1
  -2  -6   5 70.8547 26.5632   1
   2   6  -5 26.3928 18.4014   3
  -2  -6   5 88.2930 35.0736   3
   2   6  -4 143.524 30.8820   3
  -2  -6   4 149.930 33.8084   3
  -2  -6   3 38.4789 13.2060   3
   2   6  -3 100.687 35.2421   5
   2   6  -3 67.9391 28.9976   3
   2   6  -3 37.9963 20.5009   1
   2   6  -2 155.096 34.8299   3
  -2  -6   2 108.041 30.2363   3
   2   6  -2 131.610 31.0164   1
   2   6  -2 109.487 35.4779   5
   2   6  -1 69.8932 28.4796   5
   2   6  -1 81.8631 29.6327   1
   2   6  -1 137.430 34.7626   3
  -2  -6   1 63.8960 23.3175   3
  -2  -6   0 102.044 35.3222   3
   2   6   0 116.949 34.2042   3
   2   6   1 291.858 49.7086   3
  -2  -6  -1 397.458 74.7073   5
  -2  -6  -1 331.584 48.9040   3
   2   6   2 7.60625 14.9282   3
  -2  -6  -2 8.45165 10.5328   3
  -2  -6  -2 9.64155 22.7608   5
   2   6   3 120.411 35.6223   6
  -2  -6  -3 118.664 28.7643   3
  -2  -6  -3 141.402 53.1157   5
  -2  -6  -4 13.3353 11.0780   3
  -2  -6  -4-2.48857 36.2658   5
  -2  -6  -5-19.5410 38.2206   5
  -2  -6  -6-43.7729 35.1703   5
   2   7 -14 57.9633 43.4307   6
   2   7 -13 0.75377 30.5383   4
   2   7 -13 1.72084 22.5595   6
   2   7 -12 3.51922 29.2936   4
   2   7 -12-25.7531 23.6106   6
   2   7 -11 20.5160 45.1093   4
   2   7 -11 46.7702 35.7433   6
   2   7 -10 158.058 49.6183   6
  -2  -7   9 283.241 58.5403   3
  -2  -7   9 341.599 56.5084   1
   2   7  -9 268.759 58.7545   6
  -2  -7   8 238.348 42.5201   1
  -2  -7   8 241.060 52.4563   3
  -2  -7   7 132.314 40.8000   3
  -2  -7   7 166.231 34.2691   1
  -2  -7   6 53.7426 28.3539   3
  -2  -7   5 73.9872 29.6890   3
  -2  -7   4-14.1172 29.3470   3
  -2  -7   3 127.435 35.5987   3
   2   7  -3 180.519 36.0221   1
  -2  -7   2 184.555 42.3037   3
   2   7  -2 152.037 35.5495   1
  -2  -7   1 707.101 78.7273   3
   2   7  -1 801.653 87.5095   1
  -2  -7   0 51.1256 28.6468   3
  -2  -7  -1 282.487 49.4250   3
  -2  -7  -2 18.3477 18.4699   3
  -2  -7  -2-17.1536 20.1436   5
  -2  -7  -3 6.80268 13.7875   3
  -2  -7  -3-27.0896 25.9707   5
  -2  -7  -4-2.00106 10.3080   3
  -2  -7  -4-6.29323 23.1277   5
  -2  -7  -5 53.8082 52.3977   5
   2   8 -14 0.38851 34.6069   6
   2   8 -13-0.97134 18.4819   6
   2   8 -12-20.9402 40.1434   4
   2   8 -12 3.64979 14.5306   6
   2   8 -11-51.5529 32.2274   6
   2   8 -10 78.8039 40.3987   6
  -2  -8   9-14.1587 21.1924   3
  -2  -8   8 49.8986 21.0014   1
  -2  -8   8 72.2107 32.2086   3
  -2  -8   7 10.8585 22.8021   3
  -2  -8   6 220.886 51.2724   3
  -2  -8   5 34.9438 27.0129   3
  -2  -8   4-21.8345 23.4390   3
   2   8  -3 2.67722 14.7299   1
  -2  -8   3 0.13853 17.5859   3
   2   8  -2 30.1286 18.6420   1
  -2  -8   2 44.2584 25.5210   3
   2   8  -1 8.55955 20.1627   1
  -2  -8   1 35.1766 23.7258   3
  -2  -8   0 111.260 36.2263   3
  -2  -8  -1-23.6107 20.8275   3
  -2  -8  -2 67.3993 41.2453   5
  -2  -8  -2 57.8856 23.0546   3
  -2  -8  -3-10.5894 16.9001   3
  -2  -8  -3 62.4124 43.5930   5
  -2  -8  -4 68.9459 50.1775   5
   2   9 -13 42.5324 37.2147   6
   2   9 -12 48.0681 38.3134   6
   2   9 -11-31.4916 16.1953   6
  -2  -9  10 29.4622 26.2562   3
   2   9 -10 31.1846 36.8012   6
  -2  -9   9-2.60402 17.9148   3
  -2  -9   8 103.803 41.7849   3
  -2  -9   7 45.8994 29.7870   3
  -2  -9   6 49.0254 27.1199   3
  -2  -9   5 403.336 72.3834   3
  -2  -9   4 60.7048 31.4201   3
  -2  -9   3 41.8594 25.5962   3
   2   9  -3 9.01747 15.5727   1
  -2  -9   2 35.5272 27.0010   3
   2   9  -2 76.2303 30.7127   1
  -2  -9   1 19.5100 17.6338   3
   2   9  -1 100.235 38.4499   1
  -2  -9   0-10.3963 16.1956   3
  -2  -9  -1-2.05144 19.8307   3
  -2  -9  -2 44.7771 28.9506   3
   2  10 -11 90.0830 53.2868   6
  -2 -10  11 172.152 55.0713   3
  -2 -10  10 34.5508 35.2364   3
  -2 -10   9 110.202 47.5840   3
  -2 -10   8-29.2458 30.8904   3
  -2 -10   7 5.93668 20.7937   3
  -2 -10   6-3.76551 26.0629   3
  -2 -10   5 28.2139 17.5252   3
  -2 -10   4 32.2439 18.3499   3
  -2 -10   3 7.81075 22.3290   3
  -2 -10   2 69.8759 35.9789   3
  -2 -10   1 7.27576 18.2470   3
  -2 -10   0 110.768 42.0146   3
  -2 -10  -1 3.25799 26.7371   3
  -2 -11   9 24.0824 25.2286   3
  -2 -11   8 3.15801 22.0910   3
  -2 -11   7 23.9393 28.1139   3
  -2 -11   6 37.8567 20.8233   3
  -2 -11   5-3.44141 21.3516   3
  -2 -11   4 48.2973 29.3285   3
  -2 -11   3 109.458 46.4752   3
  -2 -11   2-11.6385 31.8725   3
  -2 -11   1-23.2635 24.6811   3
  -2 -11   0-45.9291 31.6159   3
   3 -12   1-0.44328 29.3341   3
   3 -12   2-32.0852 32.5089   3
   3 -12   3 7.07356 31.9588   3
   3 -12   4-14.9696 26.9456   3
   3 -12   5 4.80219 26.4256   3
   3 -12   6-15.2806 22.4744   3
   3 -12   7 149.773 48.4681   3
   3 -12   8 78.3767 39.6695   3
   3 -12   9-20.6765 32.5380   3
   3 -12  10 4.82664 34.3015   3
   3 -11  -2 59.9705 48.5104   3
   3 -11  -1 50.1272 33.3963   3
   3 -11   0 102.686 49.0981   3
   3 -11   1 7.22459 26.3990   3
   3 -11   2 46.1150 31.4725   3
   3 -11   3 15.6651 24.6117   3
   3 -11   4-1.26265 24.5836   3
   3 -11   5-9.84942 23.7371   3
   3 -11   6-10.7015 24.7090   3
   3 -11   7 96.6186 39.4170   3
   3 -11   8 66.1115 38.9832   3
   3 -11   9 39.2083 34.2436   3
   3 -11  10-20.9845 20.2643   3
   3 -11  11-131.253 46.6710   3
   3 -10  -5-0.93050 30.4490   3
   3 -10  -4 19.0446 35.5216   3
   3 -10  -3 77.1567 42.9768   3
   3 -10  -2 32.5170 33.0662   3
   3 -10  -1-4.53917 23.1124   3
   3 -10   0 52.3355 36.3082   3
   3 -10   1 382.573 71.7889   3
   3 -10   2 1743.91 144.716   3
   3 -10   3 67.8204 34.7656   3
   3 -10   4 109.043 38.5715   3
   3 -10   5 88.3697 41.0756   3
   3 -10   6-48.4415 28.9960   3
   3 -10   7 20.1711 27.3862   3
   3 -10   8 67.0718 29.8417   3
   3 -10   9 65.4557 36.5799   3
   3 -10  10 41.3596 30.8202   3
  -3  10 -11 174.194 62.0913   4
   3 -10  11-14.5049 31.3641   3
   3  -9  -6 30.1726 35.4938   3
   3  -9  -5-20.2624 26.3405   5
   3  -9  -5 70.6430 48.8950   3
   3  -9  -4-17.5751 31.9812   5
   3  -9  -4 90.4514 50.8659   3
   3  -9  -3 9.83035 22.0729   5
   3  -9  -3 69.9245 38.7091   3
   3  -9  -2 38.5888 26.3670   3
   3  -9  -1 34.3966 33.2867   3
   3  -9   0 573.188 83.2104   3
   3  -9   1 125.355 44.5288   3
  -3   9  -2 1166.71 51.1137   1
   3  -9   2 1619.12 131.497   3
   3  -9   3 71.4136 28.7505   3
   3  -9   4 41.5929 21.1827   3
   3  -9   5 68.2935 29.8693   3
   3  -9   6 9.78798 19.4339   3
   3  -9   7 41.9921 29.7879   3
   3  -9   8 18.8231 19.4188   3
   3  -9   9 43.3290 22.4616   3
   3  -9  10 178.341 44.2850   3
   3  -9  11 28.9909 20.9349   3
  -3   9 -11 117.927 50.3568   4
  -3   9 -12-1.80804 23.7237   4
   3  -8  -7-13.9154 27.2764   3
   3  -8  -6 17.9643 41.2461   3
   3  -8  -6-17.5964 39.3452   5
   3  -8  -5 153.306 54.8287   3
   3  -8  -5 111.808 51.2773   5
   3  -8  -4 183.922 65.6330   5
   3  -8  -4 289.512 65.9650   3
   3  -8  -3 101.192 43.0317   3
   3  -8  -3 10.7380 26.1005   5
   3  -8  -2 98.8021 35.3968   3
  -3   8   2 130.297 37.6515   2
   3  -8  -2 128.265 45.6186   5
   3  -8  -1 57.7847 38.7318   3
   3  -8   0 114.718 42.8406   3
   3  -8   1 47.0903 31.6449   3
  -3   8  -2 3.58236 7.35029   1
   3  -8   2 62.9683 35.3480   3
   3  -8   3 12.1705 17.4347   3
   3  -8   4 10.7906 19.4694   3
   3  -8   5 111.964 35.1364   3
   3  -8   6-17.0391 21.3277   3
   3  -8   7 78.6211 19.6400   1
   3  -8   7 107.432 36.6705   3
   3  -8   8 162.580 34.6562   1
   3  -8   8 171.420 39.5707   3
   3  -8   9 89.6560 29.4950   3
   3  -8  10 56.2067 25.9974   3
  -3   8 -10 82.4530 37.7738   4
  -3   8 -11 14.3852 17.0292   4
  -3   8 -12 58.6462 38.6355   4
   3  -7  -8-25.7466 24.5332   3
   3  -7  -7 33.8716 32.0200   3
   3  -7  -7-14.5923 33.5675   5
   3  -7  -6 65.5970 33.6437   3
   3  -7  -6 13.9240 33.1679   5
   3  -7  -5-1.65225 30.5907   3
   3  -7  -5-13.6338 30.2314   5
   3  -7  -4-12.8216 25.9586   3
   3  -7  -4 12.0779 26.5118   5
  -3   7   4-24.6943 25.0830   2
   3  -7  -3 77.1723 33.4246   3
  -3   7   3 46.6723 20.5418   2
   3  -7  -3 50.8828 34.1101   5
   3  -7  -2 122.297 41.2202   3
   3  -7  -2 127.189 45.5898   5
   3  -7  -1 14.6171 22.2211   3
   3  -7  -1 18.5002 20.5015   5
   3  -7   0 27.2061 26.0396   3
  -3   7   0 1.07340 16.8782   5
   3  -7   1 72.4882 37.8478   3
  -3   7  -1 57.6780 20.1010   1
  -3   7  -1 49.3898 24.5456   5
  -3   7  -2 146.240 37.3822   5
   3  -7   2 187.842 45.6776   3
  -3   7  -2 172.470 23.8709   1
  -3   7  -3 324.206 56.2034   5
   3  -7   3 294.070 50.7892   3
  -3   7  -4 87.9036 39.7482   6
   3  -7   4-10.8532 14.4065   3
  -3   7  -5 273.006 47.5164   3
  -3   7  -5 341.273 63.3092   6
   3  -7   5 330.274 51.1734   3
  -3   7  -6 22.0860 26.0351   3
   3  -7   6 29.4198 15.7238   1
   3  -7   6 5.51888 19.8001   3
  -3   7  -7-15.2535 19.3185   3
   3  -7   7 10.6525 20.3777   3
   3  -7   7 12.4558 18.6239   1
  -3   7  -8 40.6713 19.2379   3
   3  -7   8 100.984 30.0899   3
  -3   7  -9-12.7225 20.2410   4
   3  -7   9-7.63015 17.4582   3
  -3   7 -10 12.6139 16.1483   4
   3  -7  10-12.0864 14.1177   3
  -3   7 -11 13.5820 23.8919   4
  -3   7 -12-19.3968 26.6714   4
   3  -6  -8 44.0725 35.8806   3
   3  -6  -8 35.6169 43.7576   5
   3  -6  -7-18.3981 28.6562   3
   3  -6  -7 129.882 58.0392   5
   3  -6  -6 6.11194 21.7411   3
   3  -6  -6-17.9417 19.5283   5
  -3   6   5 89.2004 25.7845   2
   3  -6  -5 102.902 40.5424   3
   3  -6  -5 52.5623 29.2558   5
   3  -6  -4-17.0268 19.9510   3
   3  -6  -4-30.0775 28.4654   5
   3  -6  -3 137.287 40.9668   3
  -3   6   3 115.407 30.7496   2
   3  -6  -3 163.704 49.8930   5
   3  -6  -2-9.11720 27.8802   3
  -3   6   2 8.72158 11.2842   2
  -3   6   2 17.1502 25.2905   6
   3  -6  -2 8.71770 17.0933   5
  -3   6   1 985.931 96.8541   6
   3  -6  -1 958.353 95.6794   3
   3  -6  -1 945.725 95.3232   5
  -3   6   1 1032.78 95.1370   5
   3  -6   0-11.2546 19.5504   3
  -3   6   0 3.56036 17.3109   6
  -3   6   0-14.2366 16.0765   5
   3  -6   1 64.5441 27.6394   3
  -3   6  -1 52.3978 17.6465   1
   3  -6   2 281.663 47.0978   3
  -3   6  -2 246.351 28.9125   1
   3  -6   3 373.262 53.2141   3
  -3   6  -3 374.604 59.4515   6
   3  -6   4 363.946 49.9312   3
  -3   6  -4 422.866 61.4036   6
   3  -6   4 328.217 35.8592   1
  -3   6  -5 174.054 45.9863   6
   3  -6   5 111.894 24.2265   1
   3  -6   5 131.305 30.5170   3
  -3   6  -6-7.39471 19.3180   3
  -3   6  -6 57.2997 32.3411   6
   3  -6   6 32.6689 14.1890   3
   3  -6   7 69.5533 25.6649   3
  -3   6  -7 31.1024 29.0895   6
  -3   6  -7 4.61360 23.6995   3
  -3   6  -8 26.0778 21.9245   4
  -3   6  -8 22.6718 19.9810   6
   3  -6   8 14.8393 16.1786   3
  -3   6  -9 1.28236 12.5426   4
  -3   6  -9 8.01868 23.7435   6
   3  -6   9 23.2582 16.0378   3
  -3   6 -10-4.05817 18.9219   4
   3  -6  10-10.2129 18.9792   3
  -3   6 -11 15.1717 18.9790   4
  -3   6 -11 70.2116 46.7837   2
   3  -5  -9-43.2438 33.1604   3
   3  -5  -9-35.6800 42.1220   5
   3  -5  -8-52.9630 29.8109   3
   3  -5  -8 3.08521 25.3199   5
   3  -5  -7 15.0673 19.3855   5
   3  -5  -7-16.5230 28.5880   3
   3  -5  -6 142.675 48.4978   6
   3  -5  -6 34.5317 20.9835   3
   3  -5  -6 112.847 49.7580   5
   3  -5  -5 11.5488 27.6636   3
  -3   5   5 3.20492 18.5069   6
   3  -5  -5 83.2143 37.2524   6
   3  -5  -5 23.6218 25.9688   5
  -3   5   4-2.60602 10.9180   2
  -3   5   4-11.2424 15.9694   6
   3  -5  -4 10.2404 26.4067   6
   3  -5  -4-22.3166 20.9734   5
   3  -5  -3 775.161 89.2949   6
  -3   5   3 722.838 85.8112   6
   3  -5  -3 699.323 79.7797   3
   3  -5  -3 609.596 80.2953   5
  -3   5   3 710.875 61.6351   2
  -3   5   2 1754.44 88.4429   2
  -3   5   2 1966.34 135.325   6
   3  -5  -2 1736.13 121.742   3
   3  -5  -2 1753.74 128.209   6
   3  -5  -2 1764.00 124.487   5
  -3   5   1 2712.31 152.486   6
   3  -5  -1 2676.11 144.497   5
   3  -5  -1 2763.96 148.248   3
   3  -5   0 118.034 32.6673   3
  -3   5   0 162.096 31.6074   5
  -3   5  -1 236.621 31.4064   1
   3  -5   1 243.526 43.3020   3
  -3   5  -1 202.088 35.6264   5
   3  -5   2 165.501 37.1377   3
   3  -5   3 433.174 49.6762   3
   3  -5   3 404.711 42.9525   1
   3  -5   4 68.5546 19.2695   1
   3  -5   4 87.7307 27.0947   3
   3  -5   5 35.3068 15.2972   3
   3  -5   6 78.1100 18.6150   3
  -3   5  -7 215.199 47.1468   4
   3  -5   7 233.002 34.2998   3
  -3   5  -8 11.1801 19.0565   4
   3  -5   8-41.8957 19.9699   3
  -3   5  -9-7.71756 16.4625   4
   3  -5   9 11.9209 11.9576   3
  -3   5  -9 19.0998 24.4818   2
  -3   5 -10 6.06896 17.5717   4
  -3   5 -10 20.7709 36.1392   2
  -3   5 -11 69.0393 41.1011   2
   3  -4 -10 181.774 66.9806   5
   3  -4 -10 143.094 45.9390   3
   3  -4  -9 83.7737 45.4225   6
   3  -4  -9 47.0203 40.1497   5
   3  -4  -8 38.8837 28.2329   5
   3  -4  -8 81.6737 37.2681   6
   3  -4  -7 152.350 55.4911   5
   3  -4  -7 165.968 46.2695   6
  -3   4   7 125.455 39.5864   6
   3  -4  -6-12.8367 24.9584   5
   3  -4  -6-5.58294 19.3352   6
  -3   4   6 11.5707 20.5331   6
   3  -4  -5 10.6208 16.6734   5
   3  -4  -5 11.8534 19.0813   6
  -3   4   5 10.7203 14.4496   6
   3  -4  -4 77.1942 31.0973   5
   3  -4  -4 63.5634 28.3033   6
  -3   4   4 83.2388 21.8779   2
  -3   4   4 49.2208 15.9242   6
  -3   4   3 5.65047 14.4548   6
   3  -4  -3 9.58037 19.0093   6
   3  -4  -3 12.1800 19.7823   5
  -3   4   3 4.31438 7.86641   2
  -3   4   2 865.184 84.2296   6
  -3   4   2 871.136 50.8746   2
   3  -4  -2 902.538 84.6516   6
   3  -4  -2 900.287 79.9273   5
   3  -4  -1 1432.60 105.568   6
   3  -4  -1 1407.61 92.0623   5
   3  -4   0 177.436 39.5100   6
  -3   4   0 126.476 25.5282   1
  -3   4   0 118.341 25.9915   5
   3  -4   1 232.911 37.9670   3
  -3   4  -1 220.240 33.2888   1
  -3   4  -1 211.910 31.4874   5
   3  -4   2 2038.16 103.981   3
   3  -4   2 2115.12 97.7725   1
  -3   4  -2 2101.95 112.707   6
   3  -4   3 82.1516 22.0258   3
   3  -4   3 53.2822 14.1942   1
  -3   4  -3 71.3327 21.8612   6
  -3   4  -4 24.9206 15.1799   6
   3  -4   4 38.3102 17.8058   3
  -3   4  -5 260.447 40.3597   6
  -3   4  -5 235.785 42.4513   4
   3  -4   5 271.285 34.0249   3
  -3   4  -6 84.8403 26.8437   4
  -3   4  -6 62.4661 20.7223   6
   3  -4   6 94.8468 20.5697   3
   3  -4   7 611.783 45.3206   3
  -3   4  -7 574.107 83.3128   2
  -3   4  -7 600.307 58.0330   6
  -3   4  -7 599.690 80.2530   4
  -3   4  -8 266.361 58.1931   4
  -3   4  -8 248.288 36.4981   6
  -3   4  -8 209.348 59.3104   2
  -3   4  -9 14.1372 8.32081   6
  -3   4  -9-6.08930 24.1259   2
  -3   4 -10 31.9783 29.4508   2
  -3   4 -11-7.42180 23.2616   2
   3  -3 -11-58.0900 37.9199   2
   3  -3 -10 74.0621 35.2154   6
   3  -3 -10 31.7664 28.6377   2
   3  -3  -9 0.41016 18.8069   6
   3  -3  -9 39.8598 26.5441   2
   3  -3  -8 582.441 77.2237   2
  -3   3   8 556.631 75.3669   6
   3  -3  -8 594.215 82.8053   6
  -3   3   7 2156.05 147.482   6
   3  -3  -7 2116.31 150.570   6
   3  -3  -7 1999.01 131.341   2
   3  -3  -6 100.107 31.3532   6
   3  -3  -6 160.086 34.0915   2
  -3   3   6 148.510 40.1127   6
  -3   3   5 695.325 81.2987   6
   3  -3  -5 590.721 71.7650   6
   3  -3  -4 84.0349 24.0400   6
  -3   3   4 107.071 31.1560   6
   3  -3  -3 12.7844 16.0497   5
   3  -3  -3-12.0492 22.1329   6
  -3   3   3 17.7423 8.36351   2
  -3   3   3-0.27981 11.8145   6
   3  -3  -2 0.24693 17.4849   6
  -3   3   2 9.29531 5.88920   2
   3  -3  -2 6.61817 11.6739   5
   3  -3  -1 9.35779 11.2174   5
   3  -3  -1-11.1392 19.8192   6
   3  -3   0 1492.27 97.2859   6
  -3   3   0 1533.61 71.5404   5
  -3   3   0 1521.81 85.7427   1
   3  -3   1 714.079 58.9502   1
   3  -3   1 673.037 62.5527   6
  -3   3  -1 647.417 54.1021   1
   3  -3   2 22.5575 12.7681   3
  -3   3  -2 51.1479 16.7153   6
   3  -3   2 73.4385 25.4579   6
   3  -3   2 60.3995 20.3531   1
   3  -3   3 31.8190 16.6576   3
  -3   3  -3 23.1373 8.49235   6
   3  -3   3 62.5229 21.9497   1
  -3   3  -4 236.594 38.0630   4
  -3   3  -4 340.847 40.2087   6
   3  -3   4 325.361 31.7318   3
  -3   3  -5 318.417 50.8679   4
  -3   3  -5 280.038 35.3454   6
  -3   3  -5 303.075 54.2320   2
   3  -3   5 268.519 25.3968   3
  -3   3  -6 68.3185 27.5828   4
  -3   3  -6 56.2041 26.9190   2
   3  -3   6 42.5603 10.9042   3
  -3   3  -6 25.6429 8.94047   6
  -3   3  -7 131.301 42.6777   2
  -3   3  -7 152.565 26.9745   6
  -3   3  -8 4.14322 25.7470   2
  -3   3  -8 10.4758 8.90113   6
  -3   3  -8 2.51375 3.81552   6
  -3   3  -9 61.8621 40.0117   2
  -3   3 -10 8.76951 30.5325   2
  -3   3 -11-0.44701 20.6531   2
   3  -2 -11 67.6821 40.2151   2
   3  -2 -10 55.4878 32.9018   6
   3  -2 -10 65.6426 34.1384   2
   3  -2  -9 63.5369 27.9167   6
   3  -2  -9 71.9975 33.1305   2
  -3   2   9 90.6382 28.5458   6
  -3   2   8 139.523 40.3566   6
   3  -2  -8 129.613 38.5735   2
   3  -2  -8 135.036 44.4017   6
   3  -2  -7 854.940 82.2179   2
   3  -2  -7 869.174 96.7163   6
  -3   2   7 916.840 94.3084   6
  -3   2   6 1140.85 108.009   4
  -3   2   6 1068.55 98.4339   6
   3  -2  -6 973.056 96.0542   6
   3  -2  -6 1020.40 79.9486   2
  -3   2   5 1398.47 107.901   4
   3  -2  -5 1272.49 107.721   6
   3  -2  -5 1293.89 76.4964   2
  -3   2   5 1352.74 106.890   6
   3  -2  -4 592.304 69.6119   6
  -3   2   4 600.093 69.1163   6
   3  -2  -4 674.379 44.7089   2
   3  -2  -3 107.742 29.6555   6
  -3   2   3 121.756 30.1770   6
   3  -2  -2 197.565 38.8308   6
   3  -2  -2 208.150 29.1704   5
   3  -2  -1 988.276 77.8630   6
   3  -2  -1 996.185 49.8632   5
  -3   2   1 962.650 70.2892   1
   3  -2   0 5381.06 174.405   6
  -3   2   0 5534.18 110.369   2
  -3   2   0 5617.54 165.409   1
  -3   2   0 5446.17 91.9752   5
   3  -2   1-18.6911 16.2252   6
  -3   2  -1-4.14100 11.0919   6
  -3   2  -1 6.64340 11.3170   2
   3  -2   1-5.83769 15.3505   1
  -3   2  -2 73.2965 15.5896   4
  -3   2  -2 71.3478 21.6556   2
   3  -2   2 41.3199 15.4837   6
  -3   2  -2 62.1821 18.0204   6
   3  -2   2 44.6012 18.7529   1
  -3   2  -3 289.749 37.3100   4
  -3   2  -3 295.124 45.2517   2
  -3   2  -3 346.549 38.4279   6
   3  -2   3 286.373 28.8751   3
   3  -2   4 475.841 29.7626   3
  -3   2  -4 481.575 42.6970   6
  -3   2  -4 462.590 64.1714   2
  -3   2  -5-21.6997 20.7551   2
  -3   2  -5-3.06686 7.85262   6
   3  -2   5-6.71244 3.72790   3
  -3   2  -6 114.720 39.9450   2
  -3   2  -6 66.8329 13.1649   6
  -3   2  -7 63.2671 37.3257   2
  -3   2  -8 68.5846 39.1921   2
  -3   2  -9 125.936 51.1781   2
  -3   2 -10 118.093 53.7203   2
  -3   2 -11 25.4876 30.5832   2
   3  -1 -12 218.182 68.0533   2
   3  -1 -11-31.8153 23.7137   6
   3  -1 -11 18.9682 33.4506   2
   3  -1 -10 45.2069 27.9767   6
   3  -1 -10 11.2171 20.1083   2
   3  -1  -9 108.645 38.3710   6
  -3   1   9 64.6649 27.3232   6
   3  -1  -9 30.7086 24.9396   2
  -3   1   8 751.627 80.5228   6
   3  -1  -8 737.621 83.1040   2
   3  -1  -8 737.457 92.1808   6
   3  -1  -7 38.3188 18.5297   2
  -3   1   7 53.8652 23.3869   4
   3  -1  -7 16.1863 18.6555   6
  -3   1   7 51.4194 22.4912   6
  -3   1   6 366.680 58.9635   4
   3  -1  -6 385.735 48.1702   2
   3  -1  -6 357.711 58.8940   6
  -3   1   6 291.356 51.2838   6
   3  -1  -5 18.0024 13.2636   2
   3  -1  -5 52.3676 24.2154   6
  -3   1   5 47.3469 21.7543   6
  -3   1   4 718.366 64.3515   4
   3  -1  -4 756.021 44.2465   2
  -3   1   4 795.883 76.4790   6
   3  -1  -4 684.592 73.0876   6
  -3   1   3 905.173 61.0083   4
   3  -1  -3 835.908 75.6818   6
  -3   1   2 117.726 17.8783   4
   3  -1  -2 106.754 25.5924   6
   3  -1  -1 786.629 35.8447   2
   3  -1  -1 727.710 63.9359   6
  -3   1   1 813.709 64.9330   1
   3  -1   0 1313.43 81.2343   6
  -3   1   0 1426.69 66.2474   2
  -3   1   0 1404.96 84.5375   1
   3  -1   0 1421.45 63.3819   2
   3  -1   1 3752.94 128.589   6
  -3   1  -1 3982.24 129.515   6
  -3   1  -1 3840.99 130.760   2
   3  -1   1 3991.70 126.368   2
   3  -1   2 127.275 21.1659   6
  -3   1  -2 101.609 19.9377   6
  -3   1  -2 93.8154 23.8662   2
  -3   1  -3 350.470 53.6585   2
   3  -1   3 384.769 43.4611   4
   3  -1   3 374.829 31.9357   6
  -3   1  -3 356.760 32.4949   6
   3  -1   4 148.782 31.9718   4
  -3   1  -4 158.600 19.3714   6
  -3   1  -4 135.784 37.1328   2
   3  -1   5-8.60276 12.4027   4
  -3   1  -5-11.8262 21.2327   2
   3  -1   6 7.55624 15.8459   4
  -3   1  -6-22.4847 34.1654   2
  -3   1  -7 19.8048 29.9160   2
  -3   1  -8 679.989 110.743   2
  -3   1  -9 132.526 58.7662   2
  -3   1 -10 323.288 95.3499   2
   3   0 -13 137.192 53.6637   2
   3   0 -12 44.6907 29.0525   2
   3   0 -11 114.082 49.4718   6
   3   0 -11 93.8066 39.3457   2
   3   0 -10 167.458 50.5365   2
   3   0 -10 101.034 42.2519   6
   3   0  -9 36.4557 21.7275   2
   3   0  -9 12.0733 14.2560   6
  -3   0   9 18.6191 19.2323   6
   3   0  -8-24.0127 29.2197   6
   3   0  -8-5.55245 16.4622   2
  -3   0   8 11.7767 12.1703   6
   3   0  -7 73.4617 25.1930   2
   3   0  -7 93.2235 33.7459   6
  -3   0   7 91.8399 28.0684   6
   3   0  -6 2.84298 13.2075   6
  -3   0   6-0.72598 12.3629   6
  -3   0   5 775.882 74.7963   6
   3   0  -5 758.043 80.0703   6
   3   0  -4 9792.52 229.515   4
   3   0  -4 9705.30 267.673   6
   3   0  -3 1200.27 67.3943   4
   3   0  -3 1122.60 86.6835   6
   3   0  -2 239.162 24.0772   4
  -3   0   2 298.654 43.0320   1
   3   0  -2 262.036 40.4841   6
   3   0  -1 511.815 53.0907   6
   3   0  -1 571.608 41.9528   2
  -3   0   1 597.501 59.1265   1
   3   0   0 1652.44 89.2877   6
  -3   0   0 1750.83 87.4369   6
   3   0   0 1854.85 87.8445   2
   3   0   1 533.418 46.6484   6
  -3   0  -1 572.171 46.3993   6
  -3   0  -1 496.916 53.3185   2
   3   0   1 630.482 57.8111   2
  -3   0  -1 543.707 38.5700   5
   3   0   2 1275.60 72.8694   4
   3   0   2 1432.75 96.4230   2
   3   0   2 1199.86 48.4705   3
  -3   0  -2 1275.81 61.7761   6
   3   0   2 1260.83 63.8882   6
  -3   0  -2 1102.18 89.1805   2
   3   0   3 1328.75 86.6793   4
   3   0   3 1198.13 51.7344   6
   3   0   3 1219.67 35.8164   3
  -3   0  -3 1221.46 102.023   2
   3   0   3 1360.73 101.226   2
   3   0   4 104.305 32.9554   2
   3   0   4 76.0966 26.7240   4
  -3   0  -4 139.087 40.2101   2
   3   0   5 661.302 78.4300   4
  -3   0  -5 782.295 96.5124   2
   3   0   6 326.909 58.7539   4
  -3   0  -6 246.866 64.1980   2
  -3   0  -7-5.96691 22.3716   2
  -3   0  -8 132.853 55.4585   2
  -3   0  -9 27.8646 37.1497   2
  -3   0 -10 45.3896 39.4654   2
   3   1 -13 183.708 64.0175   2
   3   1 -12 44.4674 32.7748   2
   3   1 -12 5.10921 20.8568   6
   3   1 -11-14.3978 20.6068   2
   3   1 -11-17.2076 35.5015   6
   3   1 -10 124.667 42.1420   2
   3   1 -10 96.9888 41.0935   6
   3   1  -9 12.8838 14.6197   6
   3   1  -8-1.63692 17.9246   6
  -3  -1   8-3.57269 14.3116   6
   3   1  -7 39.1819 29.4854   4
   3   1  -7 18.9035 17.7675   6
  -3  -1   7 33.6506 21.2255   6
   3   1  -6 3280.13 170.791   4
  -3  -1   6 3209.49 154.452   6
   3   1  -6 3046.93 167.417   6
   3   1  -5 879.296 80.0515   4
  -3  -1   5 836.975 76.6722   6
   3   1  -5 849.258 84.4864   6
   3   1  -4 9330.83 226.544   4
   3   1  -4 9126.36 263.717   6
  -3  -1   3 110.821 28.4087   1
   3   1  -3 70.9928 22.1895   6
   3   1  -2-0.29227 9.79461   6
  -3  -1   2 9.70869 14.2479   1
   3   1  -1 922.558 58.4024   3
   3   1  -1 874.555 71.5011   6
  -3  -1   1 975.854 75.9536   1
   3   1  -1 902.871 48.2654   5
   3   1   0 117.033 19.8981   3
   3   1   0 122.120 28.1616   2
   3   1   0 114.135 25.0813   6
  -3  -1   0 100.992 21.4636   6
  -3  -1   0 96.6723 17.4506   5
   3   1   1 0.19981 7.76545   3
   3   1   1 9.95307 9.99580   6
   3   1   1-2.93402 15.5855   2
  -3  -1  -1 11.3819 8.69446   5
  -3  -1  -2 237.982 37.2068   5
   3   1   2 236.707 21.8524   3
   3   1   2 247.669 29.3873   6
  -3  -1  -2 195.538 41.0281   2
   3   1   2 240.779 44.9481   2
   3   1   3 488.312 33.4827   6
  -3  -1  -3 461.552 66.8127   2
   3   1   3 492.056 26.8839   3
  -3  -1  -4 1404.32 125.427   2
   3   1   4 1728.15 132.934   2
   3   1   5 499.713 70.4477   4
  -3  -1  -5 409.372 73.3383   2
  -3  -1  -6-14.4582 22.4855   2
  -3  -1  -7-41.2180 37.4687   2
  -3  -1  -8 14.7044 35.9411   2
  -3  -1  -9 18.7547 33.2493   2
   3   2 -14 27.9391 45.3537   2
   3   2 -13 10.2932 29.5728   2
   3   2 -12 117.997 49.3985   2
   3   2 -12 3.77602 20.4289   6
   3   2 -11 59.5520 35.4831   2
   3   2 -11 30.7714 32.2056   6
   3   2 -10 573.541 88.2216   6
   3   2  -9 55.2033 35.0365   4
   3   2  -9 17.3564 25.5283   6
   3   2  -8 94.9929 37.9329   4
   3   2  -8 73.9268 28.7062   3
   3   2  -8 73.4022 32.4588   6
   3   2  -7 48.2164 24.2877   4
   3   2  -7 49.5141 20.3901   3
   3   2  -7 61.2164 26.6098   6
   3   2  -6 19.5048 17.1555   4
   3   2  -6 34.5685 14.6042   3
   3   2  -6 24.7556 14.3651   6
   3   2  -5 459.816 62.5765   6
  -3  -2   4 78.0426 24.4307   1
   3   2  -4 58.4101 23.6418   6
   3   2  -3 792.264 75.0583   6
  -3  -2   3 836.224 71.8959   1
  -3  -2   2 710.766 67.3742   1
   3   2  -2 714.137 55.3883   3
   3   2  -2 703.572 66.6305   6
   3   2  -2 678.030 66.4444   1
   3   2  -1 369.043 39.3176   3
   3   2  -1 311.080 43.1063   6
   3   2  -1 369.763 51.5737   1
   3   2  -1 331.277 37.0498   5
   3   2   0 79.1762 21.0217   5
   3   2   0 80.7098 25.7680   2
   3   2   0 82.9247 17.9985   3
   3   2   0 80.6084 21.1511   6
  -3  -2   0 69.7462 20.6631   5
   3   2   0 122.443 34.6825   1
   3   2   1 229.390 27.2918   3
   3   2   1 213.593 31.8449   6
   3   2   1 220.304 43.1296   2
  -3  -2  -1 272.640 41.0980   5
   3   2   2 513.119 36.6350   3
   3   2   2 516.007 45.5429   6
  -3  -2  -2 470.408 59.4864   5
   3   2   3 22.0878 19.2278   2
   3   2   3 45.2615 13.0849   3
   3   2   3 26.4994 9.36059   6
  -3  -2  -3 38.5764 21.7013   5
  -3  -2  -4 199.992 46.1482   5
  -3  -2  -4 194.886 47.6460   2
   3   2   4 129.485 13.4501   6
  -3  -2  -5 4.95969 18.6827   5
  -3  -2  -5 5.97626 19.6476   2
  -3  -2  -6-32.2680 27.8760   5
  -3  -2  -6-43.4407 35.4585   2
  -3  -2  -7 55.2193 33.6827   5
  -3  -2  -7 18.1073 23.5890   2
  -3  -2  -8-53.3842 38.3813   5
  -3  -2  -8-25.2903 35.1952   2
  -3  -2  -9-2.91769 25.5553   5
  -3  -2  -9 2.89201 25.0072   2
   3   3 -14 36.5123 35.0388   2
   3   3 -13 34.3721 29.9120   6
   3   3 -13 66.2131 41.3706   2
   3   3 -12 31.2924 21.2378   6
   3   3 -11-18.2198 27.7546   4
   3   3 -11-4.43193 17.3977   6
   3   3 -10 107.982 44.9705   4
   3   3 -10 115.588 38.5352   6
   3   3  -9 60.0829 39.5358   4
   3   3  -9 83.6117 46.9165   6
   3   3  -8 406.960 72.7178   4
   3   3  -8 513.603 64.9401   3
   3   3  -8 448.474 75.2806   6
   3   3  -7 298.372 56.3829   4
   3   3  -7 402.261 55.4577   3
   3   3  -7 283.847 56.3506   6
   3   3  -6 263.641 52.8912   6
  -3  -3   5 35.5111 22.1672   1
   3   3  -5 2.25000 11.0892   6
  -3  -3   4 202.175 36.8083   1
   3   3  -4 210.950 41.5656   6
   3   3  -3 1485.00 105.899   6
  -3  -3   3 1630.48 105.603   1
   3   3  -2 146.032 33.3956   1
   3   3  -2 151.107 27.4096   3
   3   3  -2 137.205 32.8751   6
   3   3  -2 155.888 30.0483   5
  -3  -3   1 470.632 48.8793   3
   3   3  -1 542.510 48.8498   3
   3   3  -1 556.760 59.8363   6
   3   3  -1 515.899 65.6295   1
   3   3  -1 483.467 52.3503   5
  -3  -3   0 273.323 36.4356   3
   3   3   0 308.800 37.4001   3
   3   3   0 282.341 42.3235   6
   3   3   0 326.441 53.3292   2
   3   3   0 316.684 54.3068   1
  -3  -3   0 263.459 41.5425   5
   3   3   0 315.949 47.3922   5
  -3  -3  -1 541.838 48.0410   3
   3   3   1 614.681 48.7559   3
   3   3   1 620.841 59.6230   6
  -3  -3  -1 613.578 70.6489   5
  -3  -3  -2-12.1388 17.6780   5
  -3  -3  -2-8.08127 8.92343   3
   3   3   2 6.29392 11.9624   6
   3   3   2 24.3725 19.2436   2
   3   3   2 17.3437 13.5272   3
   3   3   3 54.5219 17.4289   3
  -3  -3  -3 41.4915 14.1931   3
   3   3   3 41.9905 14.5490   6
  -3  -3  -3 52.6405 32.9479   5
   3   3   4 23.0652 10.7281   6
   3   3   4 31.0918 10.1238   6
  -3  -3  -4 19.0869 21.9207   5
  -3  -3  -5 13.2776 18.9961   5
  -3  -3  -6 4.53163 28.8375   5
  -3  -3  -7 19.0571 20.6660   5
  -3  -3  -8 71.6157 47.7898   5
  -3  -3  -9 45.2512 47.2396   5
   3   4 -14-39.0335 33.9605   2
   3   4 -13-0.46111 25.3033   6
   3   4 -12-6.89316 27.7179   4
   3   4 -12 57.8366 32.0422   6
   3   4 -11 67.2535 40.1565   4
   3   4 -11 52.8140 32.4949   6
   3   4 -10 2.94652 17.9177   4
   3   4 -10 17.9041 28.3943   6
   3   4  -9 92.4088 38.1785   4
   3   4  -9 51.7858 18.9013   6
   3   4  -8 153.237 44.5641   4
   3   4  -8 144.505 41.7065   6
   3   4  -7 82.5134 24.6039   3
   3   4  -7 123.959 38.9138   6
   3   4  -6 1491.80 99.0193   3
   3   4  -6 1233.22 110.773   6
  -3  -4   6 1382.07 102.602   1
  -3  -4   5 100.548 29.6469   1
   3   4  -5 120.596 37.0655   6
  -3  -4   4-0.09337 17.2359   3
  -3  -4   4-2.01331 11.3979   1
   3   4  -4 8.43326 12.6510   6
  -3  -4   3 686.478 69.2711   3
   3   4  -3 678.255 60.5133   3
   3   4  -3 659.621 74.2215   6
   3   4  -3 726.241 72.6753   1
  -3  -4   2 363.188 48.5223   3
   3   4  -2 390.212 46.5350   3
   3   4  -2 343.459 52.7657   6
   3   4  -2 437.937 59.6415   1
   3   4  -2 388.426 52.8846   5
   3   4  -1 24.1493 22.8870   1
  -3  -4   1-3.70799 11.5226   3
   3   4  -1-0.89324 13.1299   3
   3   4  -1 18.9083 15.3321   6
   3   4  -1 27.3482 18.0691   5
   3   4   0 156.747 38.2179   5
  -3  -4   0 200.824 34.2647   3
   3   4   0 160.068 42.5007   2
   3   4   0 248.002 52.3184   1
   3   4   0 208.030 40.0635   6
   3   4   0 190.901 33.0578   3
  -3  -4  -1 350.913 43.0681   3
   3   4   1 343.219 49.5371   6
   3   4   1 325.422 39.9438   3
   3   4   1 347.983 64.5441   2
  -3  -4  -1 355.742 60.0159   5
   3   4   2 33.3572 18.8358   3
  -3  -4  -2-1.77055 10.0998   3
   3   4   2 2.22654 7.83254   6
  -3  -4  -2 25.9959 22.1688   5
   3   4   3 3.33271 15.8023   3
  -3  -4  -3-9.26615 11.4132   3
   3   4   3-5.17011 6.84923   6
  -3  -4  -3 15.2854 22.8097   5
   3   4   4 6.87294 10.1661   6
  -3  -4  -4-1.01354 7.54962   3
   3   4   4 11.1491 8.58925   6
  -3  -4  -4-19.2942 28.1959   5
  -3  -4  -5 198.435 58.9347   5
  -3  -4  -6 54.4348 33.6459   5
  -3  -4  -7 63.5061 37.2768   5
  -3  -4  -8-56.9614 47.4625   5
   3   5 -14 2.33774 17.9958   6
   3   5 -13 148.130 62.8701   4
   3   5 -13 67.1210 39.5011   6
   3   5 -12 43.5070 38.6935   4
   3   5 -12 42.8232 33.9030   6
   3   5 -11 21.4787 23.3780   4
   3   5 -11-46.6115 38.5182   6
   3   5 -10 42.8032 27.1199   4
   3   5 -10 27.4561 21.1167   6
   3   5  -9 333.807 66.8407   6
   3   5  -8 37.7107 28.2235   6
   3   5  -7 4530.25 224.418   6
  -3  -5   7 4780.20 198.334   1
  -3  -5   6 127.426 32.7979   1
   3   5  -6 118.016 36.8592   6
  -3  -5   5 190.097 42.2884   3
   3   5  -5 245.134 41.8510   3
   3   5  -5 215.174 47.7016   6
  -3  -5   5 257.916 45.5294   1
  -3  -5   4 829.148 83.0049   3
   3   5  -4 966.130 78.0331   3
   3   5  -4 925.311 93.0201   6
   3   5  -3 73.5575 29.6589   1
  -3  -5   3 33.5110 18.8668   3
   3   5  -3 95.3493 26.1015   3
   3   5  -3 24.6815 16.3029   5
  -3  -5   2 386.033 54.6674   3
   3   5  -2 394.597 50.4706   3
   3   5  -2 373.172 56.9607   1
   3   5  -2 444.977 63.7652   5
  -3  -5   1 657.792 69.3315   3
   3   5  -1 667.691 84.2492   1
   3   5  -1 598.571 60.2480   3
   3   5  -1 643.199 76.5164   5
  -3  -5   0 520.563 60.6958   3
   3   5   0 623.725 61.7881   3
   3   5   0 662.870 82.1190   5
  -3  -5  -1 346.628 47.0026   3
   3   5   1 463.022 54.7173   3
  -3  -5  -1 355.402 66.2023   5
  -3  -5  -2 434.349 49.5622   3
   3   5   2 551.911 58.5513   3
  -3  -5  -2 528.606 85.2835   5
   3   5   3 304.470 44.0526   3
  -3  -5  -3 199.815 32.5828   3
   3   5   3 252.656 39.4660   6
  -3  -5  -3 240.099 62.2996   5
   3   5   4-14.4462 10.9027   6
  -3  -5  -4 19.8864 14.7395   3
  -3  -5  -4-23.2052 32.9196   5
  -3  -5  -5 1.12503 20.0249   5
  -3  -5  -6-10.9526 27.2757   5
  -3  -5  -7-35.3860 28.4936   5
   3   6 -14 6.37315 26.7436   6
   3   6 -13 122.392 55.5919   4
   3   6 -13 49.3717 34.8322   6
   3   6 -12-32.0894 34.0023   4
   3   6 -12 37.9866 36.6692   6
   3   6 -11-10.3595 29.6152   4
   3   6 -11 20.0714 17.3073   6
   3   6 -10-6.88880 22.6494   6
  -3  -6   9 227.387 46.9121   1
   3   6  -9 270.249 61.9217   6
   3   6  -8 1281.32 126.342   6
  -3  -6   8 1353.04 111.057   1
   3   6  -7 2362.68 165.012   6
  -3  -6   7 2715.44 151.326   1
  -3  -6   6 172.895 41.2932   1
   3   6  -6 86.6321 34.6947   6
  -3  -6   6 209.077 45.7362   3
  -3  -6   5 38.5313 23.4427   3
  -3  -6   4-3.24445 21.1539   3
   3   6  -4 2.21620 14.6248   5
  -3  -6   3 124.839 35.8406   3
   3   6  -3 88.6677 29.9170   1
   3   6  -3 46.2880 29.2519   5
  -3  -6   2 20.9085 20.5136   3
   3   6  -2 4.28825 21.7152   1
   3   6  -2 12.2795 20.3014   3
   3   6  -2-7.67748 14.6506   5
  -3  -6   1 936.478 86.1748   3
   3   6  -1 1085.78 88.9288   3
   3   6  -1 1059.41 108.446   1
  -3  -6   0 227.975 45.2481   3
   3   6   0 319.947 62.5593   1
   3   6   0 256.498 44.2424   3
  -3  -6  -1 3197.56 153.326   3
   3   6   1 3633.38 160.475   3
  -3  -6  -1 3479.93 216.023   5
   3   6   2 748.174 75.1269   3
  -3  -6  -2 751.049 71.0191   3
  -3  -6  -2 690.014 103.251   5
  -3  -6  -3 6.45534 8.52544   3
   3   6   3 11.6671 9.75578   6
  -3  -6  -3 24.3964 26.7114   5
  -3  -6  -4-26.6820 28.2405   5
  -3  -6  -5 47.0743 44.2285   5
  -3  -6  -6-59.8873 53.1230   5
   3   7 -14 2.39513 26.0196   6
   3   7 -13 169.685 54.5264   6
   3   7 -12 235.771 72.6264   4
   3   7 -12 95.8801 46.3045   6
   3   7 -11 31.5761 30.5451   4
   3   7 -11 25.2818 29.0571   6
   3   7 -10 63.8175 33.5324   6
  -3  -7   9 22.5391 17.4178   1
   3   7  -9 34.7481 18.3399   6
  -3  -7   8 224.565 46.5531   1
   3   7  -8 180.583 50.4471   6
  -3  -7   7 21.6468 28.2149   1
   3   7  -7-14.2968 14.7606   6
  -3  -7   7-11.4127 20.5990   3
  -3  -7   6 419.104 69.0800   3
  -3  -7   5 168.339 44.1682   3
  -3  -7   4 101.473 39.3462   3
  -3  -7   3-0.96887 17.5605   3
   3   7  -3 20.3882 16.5352   1
   3   7  -2 373.250 62.1079   1
  -3  -7   2 411.949 64.9356   3
   3   7  -1 296.004 62.9022   1
  -3  -7   1 272.762 52.1854   3
   3   7   0 4.48421 18.1122   1
  -3  -7   0-6.25232 19.2404   3
  -3  -7  -1 292.992 51.5656   3
  -3  -7  -2 1.13926 11.6825   3
  -3  -7  -2 42.6376 33.8010   5
  -3  -7  -3-17.4805 19.3798   3
  -3  -7  -3-28.7114 37.0511   5
  -3  -7  -4-18.1447 24.1249   5
  -3  -7  -5 84.1309 51.8853   5
   3   8 -13 184.972 71.6396   6
   3   8 -12 87.1644 43.7289   4
   3   8 -12 53.3213 31.3387   6
   3   8 -11-19.8987 20.2887   6
   3   8 -10 45.8981 34.5808   6
   3   8  -9-21.7634 15.3389   6
   3   8  -8 8.49481 19.6467   6
  -3  -8   8-19.5001 26.2184   3
  -3  -8   7 29.6614 24.8324   3
  -3  -8   6-16.2957 22.0143   3
  -3  -8   5 65.9273 32.6387   3
  -3  -8   4 170.576 47.2917   3
  -3  -8   3-21.9983 22.3122   3
   3   8  -3 65.1900 31.3789   1
  -3  -8   2-0.07758 16.2677   3
   3   8  -2 40.1521 22.9806   1
   3   8  -1 56.3427 34.7607   1
  -3  -8   1 32.8705 23.9574   3
  -3  -8   0 98.2411 32.3935   3
   3   8   0 124.936 48.0938   1
  -3  -8  -1 37.2194 25.6236   3
  -3  -8  -2-11.7851 20.7058   3
  -3  -8  -3 56.7893 49.3577   5
   3   9 -12 17.2630 28.2204   6
   3   9 -11 49.8860 32.1515   6
   3   9 -10 75.2650 41.6856   6
  -3  -9   9-7.01460 23.5158   3
   3   9  -9-20.8704 22.4134   6
  -3  -9   8 59.0091 32.1688   3
   3   9  -8 87.5190 44.9458   6
  -3  -9   7 31.2498 29.7018   3
  -3  -9   6 42.3147 31.8601   3
  -3  -9   5 0.92819 23.8966   3
  -3  -9   4 36.6187 31.1654   3
  -3  -9   3 7.54216 28.2560   3
   3   9  -3 20.3528 28.3525   1
  -3  -9   2 17.8390 22.2379   3
   3   9  -2 13.2195 29.9545   1
   3   9  -1 8.93826 34.1444   1
  -3  -9   1 12.8392 26.1311   3
   3   9   0 61.4221 38.3342   1
  -3  -9   0 17.3874 18.6550   3
  -3  -9  -1 14.7907 26.9795   3
   3   9   1-31.8735 28.3452   1
   3  10 -10 85.0544 45.8777   6
  -3 -10   9-27.9811 39.0698   3
   3  10  -9 60.7098 33.8205   6
  -3 -10   8 39.1150 33.4286   3
  -3 -10   7 26.7836 27.3868   3
  -3 -10   6 12.8513 28.2242   3
  -3 -10   5 14.8487 24.3641   3
  -3 -10   4 60.7732 42.8737   3
  -3 -10   3 10.4908 19.7302   3
  -3 -10   2 55.8192 26.5676   3
  -3 -10   1-7.36866 27.4694   3
  -3 -10   0-21.1457 27.8403   3
  -3 -11   6-25.8218 23.2269   3
  -3 -11   5 32.4249 23.2358   3
  -3 -11   4 46.9070 32.2303   3
  -3 -11   3-6.48903 22.0224   3
  -3 -11   2 360.824 80.6019   3
  -3 -11   1 50.1626 39.3635   3
   4 -12   2 24.9878 35.9955   3
   4 -12   3 7.87091 36.0287   3
   4 -12   4-13.4170 33.6742   3
   4 -12   5-67.7249 46.1360   3
   4 -12   6 52.0009 35.2480   3
   4 -12   7 84.5747 40.0168   3
   4 -12   8 190.704 56.4004   3
   4 -12   9 15.8904 32.6596   3
   4 -12  10 8.89062 27.7994   3
   4 -11  -1 89.4475 41.3421   3
   4 -11   0-46.8788 27.3220   3
   4 -11   1 213.743 62.2761   3
   4 -11   2 27.4203 26.2265   3
   4 -11   3 40.7827 22.6386   3
   4 -11   4 15.3427 22.9232   3
   4 -11   5 89.9401 40.8003   3
   4 -11   6-5.48125 27.2725   3
   4 -11   7-17.3241 32.7512   3
   4 -11   8 64.9492 41.3088   3
   4 -11   9 59.5111 33.6152   3
   4 -11  10 78.6300 35.3061   3
   4 -10  -4-40.0215 42.8931   5
   4 -10  -4-33.4378 26.5770   3
   4 -10  -3 51.0247 32.8060   3
   4 -10  -2 68.8595 38.6425   3
   4 -10  -1 45.1575 39.4910   3
   4 -10   0 65.9946 44.8481   3
   4 -10   1 128.050 53.2058   3
   4 -10   2 32.7785 34.7152   3
   4 -10   3 32.4264 36.5607   3
   4 -10   4 131.225 40.3057   3
   4 -10   5 29.7653 26.4787   3
   4 -10   6 9.77673 29.0126   3
   4 -10   7 18.4455 26.4917   3
   4 -10   8 121.228 41.4200   3
   4 -10   9 0.78653 19.9407   3
   4 -10  10 229.977 57.0105   3
  -4  10 -11 108.333 55.3082   4
   4  -9  -6 79.1951 48.4003   3
   4  -9  -5 8.00064 40.2227   3
   4  -9  -5 16.8648 23.1598   5
   4  -9  -4 68.9786 41.5238   3
   4  -9  -4 26.6291 24.6279   5
   4  -9  -3 379.581 79.1827   3
   4  -9  -3 355.094 83.5920   5
   4  -9  -2 22.4591 31.2866   3
   4  -9  -1 19.0017 22.6775   3
   4  -9   0 84.7648 46.0886   3
  -4   9  -1 132.223 28.1912   1
   4  -9   1 243.847 57.4879   3
   4  -9   2 137.550 45.0172   3
   4  -9   3 434.588 71.0112   3
   4  -9   4 97.8674 35.9703   3
   4  -9   5 41.2840 26.6528   3
   4  -9   6 95.5021 35.0347   3
   4  -9   7-4.52387 22.5378   3
   4  -9   8 52.5182 27.1473   3
   4  -9   9 61.7412 25.3775   3
  -4   9 -10 45.1911 18.8701   4
   4  -9  10 90.2841 34.0429   3
  -4   9 -11 114.450 47.0678   4
   4  -8  -7 9.24554 28.6936   3
   4  -8  -6 65.4819 39.8482   3
   4  -8  -6 150.564 66.2594   5
   4  -8  -5 25.5259 22.8073   3
   4  -8  -5 19.4279 38.6760   5
   4  -8  -4 142.232 48.3261   3
   4  -8  -4 160.245 61.0153   5
   4  -8  -3 484.300 82.9163   3
   4  -8  -3 411.172 80.8910   5
   4  -8  -2 62.7211 35.6787   3
   4  -8  -2-20.5125 23.3306   5
   4  -8  -1 18.3626 29.0366   3
   4  -8   0-13.2701 22.9836   3
   4  -8   1 49.9760 34.7409   3
  -4   8  -1-10.5733 15.9411   1
   4  -8   2 58.5269 35.4701   3
  -4   8  -2 19.5007 14.5090   1
  -4   8  -2 81.8096 34.6548   5
  -4   8  -3 28.5588 15.4112   5
   4  -8   3 48.8280 28.2924   3
  -4   8  -4 60.2641 31.2178   5
   4  -8   4 21.5305 23.8057   3
   4  -8   5 596.094 73.7768   3
   4  -8   6 112.169 33.4045   3
   4  -8   7 10.4771 13.2899   1
   4  -8   7 23.9973 16.3100   3
   4  -8   8 60.9183 26.0318   3
  -4   8  -9 9.26873 20.0159   4
   4  -8   9 6.14037 15.2168   3
   4  -8   9-29.7955 20.5189   1
  -4   8 -10-7.06992 17.6000   4
  -4   8 -11-38.9816 29.3007   4
  -4   8 -12-24.2478 21.3029   4
   4  -7  -8 23.0717 30.1770   3
   4  -7  -7 43.8353 41.1941   3
   4  -7  -7-29.1382 38.9382   5
   4  -7  -6 62.3169 31.8918   3
   4  -7  -6 129.867 52.7709   5
   4  -7  -5 39.7502 32.8176   3
   4  -7  -5 15.0880 20.3108   5
   4  -7  -4 198.868 55.7882   3
   4  -7  -4 238.935 68.0511   5
  -4   7   3 11.9384 8.92181   2
   4  -7  -3 16.8625 21.8043   3
   4  -7  -3 13.3895 22.7293   5
   4  -7  -2 25.8564 25.5160   3
  -4   7   2-15.3770 15.8054   2
   4  -7  -2 9.76649 24.0257   5
   4  -7  -1 41.9630 32.9895   3
  -4   7   0-11.2024 13.5938   5
   4  -7   0 5.24308 27.6807   3
  -4   7   0-4.83478 12.9445   1
   4  -7   1 293.673 58.9780   3
  -4   7  -1 273.597 40.3817   1
  -4   7  -1 269.466 48.8710   5
   4  -7   2 28.6673 27.3990   3
  -4   7  -2 35.5721 15.1101   1
  -4   7  -2 40.2406 22.9992   5
   4  -7   3 1067.67 97.7165   3
  -4   7  -3 1114.23 96.7482   5
   4  -7   4 10.3641 27.0928   3
   4  -7   5 808.593 80.0557   3
   4  -7   5 877.615 73.3818   1
   4  -7   6 77.1753 24.0533   1
   4  -7   6 54.2792 21.1732   3
   4  -7   7 19.6978 16.7048   3
  -4   7  -8 29.2350 23.2924   4
   4  -7   8 24.2878 24.5173   1
   4  -7   8 13.0942 17.6581   3
  -4   7  -9 26.3794 23.7301   4
   4  -7   9 35.3572 16.0774   3
  -4   7 -10-10.0112 20.3719   4
  -4   7 -10 15.3760 20.9965   2
  -4   7 -11-49.0208 31.2559   4
  -4   7 -11 2.41963 20.7344   2
   4  -6  -9-125.924 53.4201   3
   4  -6  -8-35.2360 41.1643   3
   4  -6  -8-18.7661 26.4546   5
   4  -6  -7-41.7003 37.6954   3
   4  -6  -7 18.8668 30.3777   5
   4  -6  -6 39.6765 29.8823   3
   4  -6  -6 151.568 55.3873   5
   4  -6  -5 46.8962 22.1531   3
  -4   6   5 46.6925 20.4659   2
   4  -6  -5 16.0469 24.0904   5
  -4   6   4 32.1986 18.4758   2
   4  -6  -4-22.6435 34.0055   3
   4  -6  -4 48.1805 32.9935   5
   4  -6  -3 66.6418 39.4149   6
   4  -6  -3-13.8344 27.1878   3
  -4   6   3 20.3306 10.3537   2
   4  -6  -3 38.8771 24.9025   5
   4  -6  -2 301.559 57.0817   3
  -4   6   2 391.163 42.1685   2
   4  -6  -2 324.300 59.5107   5
   4  -6  -1 98.3146 36.5036   3
   4  -6   0-14.5863 21.6386   3
  -4   6   0 38.7569 28.5673   6
  -4   6   0 16.6297 14.5730   1
   4  -6   1 42.0307 27.3315   3
  -4   6  -1 77.0921 26.4786   6
  -4   6  -1 49.6125 19.0057   1
   4  -6   2 192.261 43.9001   3
  -4   6  -2 51.6755 16.2014   6
   4  -6   3 62.8249 30.4638   3
  -4   6  -3-15.8771 26.1145   6
  -4   6  -4-24.6255 25.3487   6
   4  -6   4 32.7497 24.7394   3
   4  -6   4 5.61015 10.3241   1
  -4   6  -5-30.7438 19.2457   6
   4  -6   5 10.6083 12.8858   1
   4  -6   5 28.8869 23.8201   3
  -4   6  -6-5.85989 19.1288   6
   4  -6   6 8.56772 17.0118   3
  -4   6  -7 21.3813 23.4052   4
  -4   6  -7-14.3115 24.0796   6
   4  -6   7 18.3275 14.9293   3
  -4   6  -8-16.5827 17.5162   4
  -4   6  -8 28.1391 20.1996   6
   4  -6   8 3.29727 13.4075   3
  -4   6  -9 26.7826 26.0934   4
  -4   6  -9 1.14410 16.4959   2
   4  -6   9 3.56399 12.4477   3
  -4   6 -10 0.72541 19.7192   4
  -4   6 -10 35.7024 33.7830   2
  -4   6 -11 65.1842 47.2882   2
   4  -5 -10-18.8443 39.1282   3
   4  -5  -9 128.847 50.1318   5
   4  -5  -9 239.651 72.7445   6
   4  -5  -9 16.6777 23.9967   3
   4  -5  -8 44.3978 34.0184   5
   4  -5  -8 49.3107 37.5908   6
   4  -5  -7 98.5922 48.0056   6
   4  -5  -7-25.6306 28.7388   5
   4  -5  -6 46.1012 24.9194   6
   4  -5  -6 61.7916 39.9883   5
   4  -5  -5 53.8475 32.5474   6
   4  -5  -5 43.4376 27.6547   5
  -4   5   4 172.996 26.2874   2
   4  -5  -4 141.746 46.1884   6
   4  -5  -4 114.136 41.6970   5
   4  -5  -3 14.0954 25.6634   6
   4  -5  -3 23.1170 17.0269   5
  -4   5   3 5.46132 9.84286   2
  -4   5   2 135.673 40.5542   6
  -4   5   2 144.532 21.5133   2
   4  -5  -2 132.894 40.7145   6
   4  -5  -2 197.021 42.2642   5
   4  -5  -1 170.226 45.9515   6
  -4   5   1 178.894 44.1442   6
   4  -5  -1 159.139 33.8750   5
   4  -5   0 277.572 56.5767   6
  -4   5   0 262.226 42.1645   1
  -4   5   0 220.378 36.3346   5
   4  -5   1 47.3950 20.2578   3
  -4   5  -1 91.7401 25.5448   1
  -4   5  -1 100.574 26.3336   5
   4  -5   2 86.1628 28.8029   3
  -4   5  -2 44.1266 22.3789   6
  -4   5  -2 72.3077 21.7713   5
   4  -5   3 92.2000 28.6352   3
  -4   5  -3 3.91552 21.8520   6
   4  -5   3 38.4037 16.7499   1
   4  -5   4 26.3409 21.2695   3
  -4   5  -4-23.0286 30.2713   6
   4  -5   4 24.7461 16.9069   1
  -4   5  -5 42.0635 15.8732   6
   4  -5   5 71.2642 26.7714   3
  -4   5  -6 83.5475 32.0669   4
   4  -5   6 59.5883 18.5290   3
  -4   5  -7 379.297 72.0405   2
  -4   5  -7 359.723 62.3913   4
   4  -5   7 341.420 39.0001   3
  -4   5  -8-4.88629 13.4279   4
   4  -5   8 9.03913 8.04785   3
  -4   5  -8 28.4258 29.6181   2
  -4   5  -9 31.1756 25.2860   4
  -4   5  -9 17.3157 22.5240   2
  -4   5 -10 14.0053 33.7689   2
  -4   5 -11-3.80663 29.2462   2
   4  -4 -10 24.4740 36.8833   5
   4  -4 -10-16.4489 28.6843   6
   4  -4  -9 33.1484 28.6466   5
   4  -4  -9-1.40916 19.2896   6
   4  -4  -8 314.001 78.7713   5
   4  -4  -8 260.176 63.5109   6
   4  -4  -7-12.2356 29.1928   5
   4  -4  -7 6.32967 22.9945   6
   4  -4  -6 2550.89 177.932   6
   4  -4  -6 2463.77 178.475   5
   4  -4  -5-12.7197 22.7443   5
   4  -4  -5-18.4140 23.6070   6
  -4   4   4 10.5789 16.8539   6
   4  -4  -4 5.69588 16.7233   6
   4  -4  -4 32.0751 24.2486   5
   4  -4  -3 178.150 43.7826   6
  -4   4   3 206.343 43.9962   6
   4  -4  -3 209.116 39.6581   5
  -4   4   2 633.289 29.3332   2
   4  -4  -2 826.899 89.9980   6
   4  -4  -2 847.059 73.5863   5
   4  -4  -1 299.016 53.5980   6
  -4   4   1 257.312 43.4998   1
   4  -4  -1 311.571 39.9173   5
   4  -4   0 1634.69 118.555   6
  -4   4   0 1771.63 107.703   1
  -4   4   0 1707.15 86.0357   5
  -4   4  -1-3.98928 11.6416   1
   4  -4   1-10.2122 18.4853   6
  -4   4  -1-0.72504 7.32073   5
   4  -4   2 109.076 28.6400   1
   4  -4   2 71.6718 23.6202   3
   4  -4   2 120.296 39.9026   6
   4  -4   3 827.395 69.0200   3
   4  -4   3 868.880 79.2137   1
   4  -4   4 103.437 27.7281   3
  -4   4  -4 69.0285 22.1513   4
  -4   4  -5-1.73216 9.46846   4
  -4   4  -5-1.02482 12.1159   6
  -4   4  -5-10.8960 14.0010   2
   4  -4   5 14.6891 14.9754   3
  -4   4  -6 19.2507 18.8330   4
  -4   4  -6 29.5422 26.5719   2
  -4   4  -6-7.63138 12.6389   6
   4  -4   6-5.33149 9.84448   3
  -4   4  -7 20.0028 17.7871   4
   4  -4   7 33.0779 12.3685   3
  -4   4  -7 61.8350 37.4661   2
  -4   4  -7 60.0754 22.4046   6
  -4   4  -8-0.96791 19.1139   2
  -4   4  -9 22.6821 30.6218   2
  -4   4 -10 38.0567 26.7905   2
  -4   4 -11 1.06543 30.1304   2
   4  -3 -10-21.2008 25.0423   6
   4  -3  -9 41.0032 29.8351   2
   4  -3  -9 23.5068 22.2392   6
   4  -3  -8-18.2945 37.5966   6
   4  -3  -7 801.985 99.5779   6
  -4   3   6 1057.72 106.472   4
   4  -3  -6 915.495 101.980   6
  -4   3   5 163.307 40.4803   4
   4  -3  -5 132.827 37.8206   6
  -4   3   5 145.627 41.8548   6
   4  -3  -4 44.9775 21.8056   5
   4  -3  -4 51.1116 24.6694   6
  -4   3   4 80.7042 31.5214   6
   4  -3  -3 42.5522 18.2780   5
   4  -3  -3 44.0596 18.3280   6
  -4   3   3 78.1527 29.2093   6
   4  -3  -2-13.4125 24.7664   6
   4  -3  -2 13.7312 9.94077   5
  -4   3   1 163.173 34.5099   1
  -4   3   1 110.987 12.2369   2
   4  -3  -1 113.254 28.5684   6
   4  -3  -1 130.928 20.7886   5
   4  -3   0 1047.39 89.8644   6
  -4   3   0 997.658 52.2165   2
  -4   3   0 1089.37 85.6200   1
  -4   3   0 1049.70 52.6122   5
   4  -3   1 2963.62 145.506   6
  -4   3  -1 2952.88 146.687   6
  -4   3  -1 2773.63 109.690   2
  -4   3  -1 3052.84 138.863   1
  -4   3  -1 2967.63 83.7538   5
   4  -3   1 3023.66 144.366   1
   4  -3   2 15245.5 310.446   6
  -4   3  -2 16275.5 333.557   6
  -4   3  -2 14882.1 297.322   2
   4  -3   2 15316.7 331.938   1
  -4   3  -3 510.573 48.9946   4
  -4   3  -3 574.393 61.4657   6
  -4   3  -3 500.004 63.3050   2
   4  -3   3 532.707 50.6523   3
  -4   3  -4 251.400 39.9531   4
  -4   3  -4 271.404 49.7920   2
  -4   3  -4 365.110 47.5880   6
   4  -3   4 271.421 33.1054   3
  -4   3  -5 41.0080 17.7873   2
  -4   3  -5 62.6968 20.2652   6
   4  -3   5 66.9271 14.6754   3
  -4   3  -6-2.18482 18.7918   2
  -4   3  -6-6.63591 15.3490   6
   4  -3   6 15.9710 8.12961   3
  -4   3  -7 49.0851 45.7783   2
  -4   3  -7 4.05537 5.75471   6
  -4   3  -8 91.1161 37.6359   2
  -4   3  -9 3.45426 22.8764   2
  -4   3 -10 73.3574 44.7385   2
   4  -2 -11 28.7312 30.2129   6
   4  -2 -10 74.6159 25.8904   6
   4  -2 -10 11.6560 17.1104   2
   4  -2  -9 94.5712 42.7281   6
   4  -2  -9 154.189 44.4673   2
   4  -2  -8 66.6885 37.8330   6
   4  -2  -8 55.2406 24.7492   2
   4  -2  -7 1977.87 108.197   2
   4  -2  -7 1910.33 157.254   6
  -4   2   6 1369.94 114.393   4
   4  -2  -6 1364.16 124.311   6
  -4   2   6 1393.08 121.983   6
   4  -2  -6 1376.95 77.2671   2
   4  -2  -5 163.613 21.6537   2
   4  -2  -5 143.050 44.2949   6
  -4   2   5 176.016 43.5388   6
  -4   2   4 281.895 41.2521   4
  -4   2   4 266.065 48.7900   6
   4  -2  -4 308.425 54.2776   6
  -4   2   3 12.1452 13.1770   4
   4  -2  -3 3.36462 15.8848   6
  -4   2   2 5.22533 7.00333   4
  -4   2   2 10.9560 19.8290   1
   4  -2  -2 31.9047 22.7655   6
   4  -2  -2-1.45011 5.94417   5
  -4   2   1 54.3943 9.79441   4
  -4   2   1 75.7863 23.1512   1
   4  -2  -1 35.4405 18.1970   6
   4  -2   0 7750.84 233.658   6
  -4   2   0 8108.34 238.264   6
  -4   2   0 7840.15 163.968   2
  -4   2   0 8023.18 231.923   1
   4  -2   1 117.510 26.5798   6
  -4   2  -1 145.853 31.6282   6
  -4   2  -1 144.033 27.2075   2
   4  -2   2 10352.9 241.138   6
  -4   2  -2 9815.22 250.158   2
  -4   2  -2 10539.6 252.632   6
   4  -2   3 734.791 60.1832   6
  -4   2  -3 696.007 62.8059   6
  -4   2  -3 631.252 71.5075   2
   4  -2   4 16.3680 11.0954   3
  -4   2  -4 28.4721 16.3527   6
  -4   2  -4 10.8105 16.9100   2
  -4   2  -5 7.80084 9.88717   6
   4  -2   5 9.86627 4.16164   3
  -4   2  -5 10.6775 24.8650   2
  -4   2  -6 99.3468 15.5392   6
  -4   2  -6 165.638 48.4950   2
  -4   2  -7-21.4525 26.3594   2
  -4   2  -8 6.51102 20.0275   2
  -4   2  -9 31.1965 41.2926   2
  -4   2 -10 172.873 68.0919   2
   4  -1 -11 3.26174 20.4229   2
   4  -1 -11 60.0248 33.5843   6
   4  -1 -10 196.366 63.9861   6
   4  -1 -10 95.7993 33.6961   2
   4  -1  -9 48.8920 36.4575   6
   4  -1  -9 44.5935 20.0599   2
   4  -1  -8 98.9781 32.0828   6
   4  -1  -8 120.724 32.3738   2
   4  -1  -7-4.89965 10.7706   2
  -4   1   7 24.4361 21.6963   4
   4  -1  -7 36.8945 23.6204   6
  -4   1   7 56.8606 28.9027   6
   4  -1  -6 4.03526 10.2495   2
  -4   1   6 12.0977 13.7322   4
   4  -1  -6-28.0434 28.4268   6
  -4   1   6 23.9265 19.7747   6
  -4   1   5 567.216 61.7140   4
   4  -1  -5 486.964 71.7374   6
  -4   1   5 606.844 75.9038   6
   4  -1  -5 604.795 42.0524   2
  -4   1   4 1402.09 87.3022   4
   4  -1  -4 1180.65 105.343   6
   4  -1  -3 735.595 81.2294   6
   4  -1  -3 739.867 31.3973   2
   4  -1  -2 190.224 19.2352   2
   4  -1  -2 205.815 39.5213   6
  -4   1   2 194.531 39.0118   1
   4  -1  -1 850.726 78.5031   6
   4  -1  -1 887.996 51.1449   2
  -4   1   1 833.967 78.7868   1
   4  -1   0 165.373 27.5086   2
  -4   1   0 134.050 24.4343   2
   4  -1   0 146.878 33.4418   6
  -4   1   0 113.875 28.1375   6
  -4   1   0 151.129 34.0999   1
   4  -1   1-11.6355 13.9651   2
  -4   1  -1 8.05443 12.7034   6
  -4   1  -1 9.41414 14.6857   2
   4  -1   1-8.14247 12.0706   6
  -4   1  -1-1.69286 3.71035   5
   4  -1   2 214.855 36.6395   6
   4  -1   2 170.376 34.6148   2
  -4   1  -2 145.349 34.2260   2
  -4   1  -2 173.856 30.7669   6
   4  -1   3 64.1763 19.7977   4
   4  -1   3 15.5183 8.17909   6
  -4   1  -3 29.8548 12.4051   6
  -4   1  -3 18.7706 18.6517   2
   4  -1   4 5.11675 5.55995   3
   4  -1   4 8.43318 10.6491   4
   4  -1   4 5.12470 5.27522   3
  -4   1  -4-3.57830 5.23535   6
  -4   1  -4 19.7997 13.1783   2
   4  -1   5 115.585 32.0521   4
  -4   1  -5 162.553 48.7217   2
  -4   1  -6-4.04462 20.5009   2
  -4   1  -7 16.4772 30.4345   2
  -4   1  -8 51.2655 40.5744   2
  -4   1  -9 1.19748 31.4234   2
  -4   1 -10-11.9558 28.3779   2
   4   0 -12 40.5879 42.8771   6
   4   0 -12 4.15349 18.7877   2
   4   0 -11 15.3894 22.8674   6
   4   0 -11-7.27363 17.6129   2
   4   0 -10-9.02622 19.8818   2
   4   0 -10 30.4930 33.2929   6
   4   0  -9 413.253 65.1647   2
   4   0  -9 407.835 76.5726   6
   4   0  -8 128.226 33.1883   2
   4   0  -8 87.0406 38.7157   6
  -4   0   7 351.541 59.5977   6
   4   0  -7 252.565 52.6224   6
   4   0  -6 1374.71 124.006   6
  -4   0   6 1395.99 112.890   6
   4   0  -5 305.355 55.8069   6
  -4   0   5 287.973 49.9819   6
   4   0  -4 902.567 93.1150   6
   4   0  -3 1366.14 68.9649   4
   4   0  -3 1341.27 105.927   6
  -4   0   3 1406.59 104.402   1
   4   0  -2 219.679 22.2382   4
   4   0  -2 213.940 28.7108   2
   4   0  -2 231.012 44.8710   6
  -4   0   2 229.251 44.5236   1
  -4   0   1 187.438 37.1177   1
   4   0  -1 163.102 36.0838   6
  -4   0   1 197.115 35.6590   6
   4   0  -1 194.826 30.4102   2
   4   0   0 657.054 66.1852   6
  -4   0   0 716.286 64.2279   6
   4   0   0 816.857 68.0224   2
   4   0   1 13.2166 17.0124   2
  -4   0  -1 1.79761 10.1361   2
   4   0   1-7.54018 18.4188   6
  -4   0  -1 13.5352 9.03427   6
  -4   0  -1 9.56926 7.75783   5
   4   0   2 268.888 34.9119   4
   4   0   2 285.515 48.1632   2
   4   0   2 299.881 30.4631   3
   4   0   2 250.742 34.4848   6
  -4   0  -2 268.714 35.8975   6
  -4   0  -2 272.932 50.3070   2
  -4   0  -2 253.863 34.5183   5
   4   0   3 29.7536 17.9395   4
   4   0   3 15.2769 16.2298   2
   4   0   3 27.4713 13.4403   6
   4   0   3-0.48696 7.71716   3
  -4   0  -3 12.3780 19.4227   2
  -4   0  -3 27.6107 10.0768   6
   4   0   4 35.7238 22.3232   4
   4   0   4 23.4956 10.0151   6
  -4   0  -4 27.6963 24.4802   2
   4   0   5 62.9694 25.1011   4
  -4   0  -5 71.1378 37.0789   2
  -4   0  -6 13.7913 24.3278   2
  -4   0  -7 21.7075 23.3021   2
  -4   0  -8 7.93770 24.0396   2
  -4   0  -9-35.2097 35.3255   2
   4   1 -12-15.9235 20.2940   2
   4   1 -12 24.0699 31.4868   6
   4   1 -11 106.048 40.4447   2
   4   1 -11 57.2447 33.3329   6
   4   1 -10 11.6850 23.0381   2
   4   1 -10 15.8073 24.0173   6
   4   1  -9 333.539 71.0237   6
   4   1  -8 2.66021 18.2438   6
   4   1  -7 55.6659 28.8023   4
   4   1  -7 60.4496 29.1730   6
  -4  -1   7 36.7821 21.8308   6
   4   1  -6 288.318 53.7592   4
   4   1  -6 317.028 59.5226   6
  -4  -1   6 323.061 54.2265   6
   4   1  -5 56.2494 22.8479   4
   4   1  -5 94.2078 32.3034   6
   4   1  -4 552.474 55.5394   4
   4   1  -4 514.875 70.2238   6
  -4  -1   4 569.062 70.3521   1
  -4  -1   3 88.3348 30.9306   1
   4   1  -3 32.1897 20.8677   6
  -4  -1   2 251.133 45.2108   1
   4   1  -2 216.599 42.1381   6
   4   1  -1 780.621 61.0703   3
  -4  -1   1 852.440 73.5217   6
   4   1  -1 820.158 69.6827   2
   4   1  -1 788.283 76.2197   6
   4   1  -1 786.243 47.5079   5
   4   1   0 226.172 32.3542   3
  -4  -1   0 212.107 35.6134   6
   4   1   0 281.745 45.5851   2
   4   1   0 171.535 35.1174   6
   4   1   1 31.0000 10.1518   3
   4   1   1 20.9683 11.0929   6
   4   1   1 9.47582 10.5451   2
  -4  -1  -1 59.3233 19.0860   5
   4   1   2 57.5121 24.9503   2
   4   1   2 100.987 24.2194   6
   4   1   2 73.0944 16.2827   3
  -4  -1  -2 82.5528 24.1772   5
   4   1   3 369.127 64.2522   2
   4   1   3 288.457 32.3316   6
   4   1   3 314.147 25.5495   3
  -4  -1  -3 246.166 54.4166   2
  -4  -1  -3 318.151 49.9553   5
  -4  -1  -4-1.18746 11.7576   5
   4   1   4 12.9593 15.0351   4
   4   1   4 8.88146 5.27330   6
  -4  -1  -4 41.4321 30.1028   2
  -4  -1  -5 49.6702 25.7908   5
   4   1   5 39.7941 24.6347   4
  -4  -1  -5 126.180 50.6359   2
  -4  -1  -6-22.7810 26.2090   2
  -4  -1  -7-12.7833 20.9353   2
  -4  -1  -8 24.4933 28.3192   2
  -4  -1  -9 3.95140 23.9237   5
  -4  -1  -9 22.2804 35.3314   2
  -4  -1 -10 38.8582 37.3425   5
   4   2 -13-30.1603 38.0031   2
   4   2 -13-10.9492 33.0597   6
   4   2 -12 14.1269 35.5743   2
   4   2 -12 11.7971 28.7763   6
   4   2 -11 49.7620 37.5692   6
   4   2 -10 88.4542 40.2086   6
   4   2  -9 36.6748 25.6869   4
   4   2  -9 5.90409 20.9125   6
   4   2  -8 104.984 41.8810   4
   4   2  -8 44.5144 27.1257   6
   4   2  -7 12.0650 21.0532   4
   4   2  -7-25.0935 20.8298   6
   4   2  -6-8.56006 17.8873   4
   4   2  -6-7.23143 19.0328   3
   4   2  -6 24.1963 20.0099   6
  -4  -2   6 23.1202 14.1342   6
  -4  -2   5 75.1036 27.3898   1
   4   2  -5 37.9107 22.6428   6
  -4  -2   4 44.8247 21.5717   1
   4   2  -4 37.3150 21.8601   6
   4   2  -3 1724.80 102.005   3
   4   2  -3 1619.63 121.463   6
  -4  -2   3 1607.84 115.922   1
   4   2  -2 1358.37 86.8304   3
   4   2  -2 1220.50 102.499   6
  -4  -2   2 1286.22 104.046   1
   4   2  -2 1249.72 103.569   1
   4   2  -2 1307.78 75.1089   5
   4   2  -1 4743.85 151.461   3
   4   2  -1 4361.09 185.472   6
   4   2  -1 4704.62 185.787   2
   4   2  -1 4444.42 203.387   1
   4   2  -1 4602.03 144.915   5
   4   2   0 326.431 61.1379   1
   4   2   0 282.371 36.2906   3
   4   2   0 324.620 49.3022   6
   4   2   0 381.831 57.7211   2
   4   2   1 133.120 24.3600   3
   4   2   1 149.145 32.4379   6
   4   2   1 170.828 42.6747   2
  -4  -2  -1 139.995 31.6069   5
   4   2   1 177.094 48.5587   1
   4   2   2 6.90084 10.8018   6
   4   2   2 6.94361 10.0821   3
  -4  -2  -2-10.2592 19.4456   5
   4   2   2 23.1189 13.7210   2
   4   2   3 25.3916 9.94228   6
   4   2   3 33.6662 12.2201   3
  -4  -2  -3 61.4874 25.8100   5
   4   2   4 32.2824 8.05135   3
   4   2   4 38.9960 10.1939   6
  -4  -2  -4 51.8207 25.7255   5
  -4  -2  -5 12.8997 23.2984   5
  -4  -2  -6-40.3006 27.6084   5
  -4  -2  -6 12.5937 20.3522   2
  -4  -2  -7 54.9355 32.1133   5
  -4  -2  -7 116.911 58.3242   2
  -4  -2  -8 18.7792 30.0088   5
  -4  -2  -9-63.1468 43.8355   5
   4   3 -14 83.0486 44.2457   2
   4   3 -13 84.6497 33.2182   2
   4   3 -13 15.3164 19.2857   6
   4   3 -12-6.37600 18.2772   6
   4   3 -11 30.6235 35.4188   4
   4   3 -11-23.3286 32.9348   6
   4   3 -10 232.514 63.7419   4
   4   3 -10 175.395 56.0547   6
   4   3  -9 171.842 49.4879   4
   4   3  -9 274.438 69.6664   6
   4   3  -8 179.018 47.4900   4
   4   3  -8 167.993 50.2057   6
   4   3  -7 240.791 51.8050   4
   4   3  -7 281.916 61.5533   6
  -4  -3   6 243.405 50.2871   1
   4   3  -6 252.134 47.2566   3
   4   3  -6 299.667 58.7854   6
   4   3  -5 369.670 53.5133   3
  -4  -3   5 325.389 55.2585   1
   4   3  -5 312.152 58.4614   6
   4   3  -4 124.587 27.6962   3
  -4  -3   4 201.700 41.5107   1
   4   3  -4 157.719 41.0600   6
   4   3  -3 130.725 36.1835   1
   4   3  -3 108.043 26.8901   3
   4   3  -3 154.638 38.5878   6
  -4  -3   3 104.157 34.6794   1
   4   3  -2 346.226 44.5077   3
   4   3  -2 345.455 55.8687   6
   4   3  -2 284.080 51.2742   1
   4   3  -2 386.629 47.9153   5
   4   3  -1 926.164 69.1151   3
   4   3  -1 885.847 90.5353   2
   4   3  -1 760.238 80.2487   6
   4   3  -1 872.633 96.7684   1
   4   3  -1 909.306 75.6479   5
   4   3   0 59.7874 28.1127   1
   4   3   0 108.830 32.9465   2
   4   3   0 69.0229 21.3393   3
   4   3   0 22.7361 17.6809   6
   4   3   1-3.24320 25.3244   1
   4   3   1 30.0356 16.6835   6
   4   3   1-6.87660 10.8310   3
   4   3   1 18.2607 22.6188   2
  -4  -3  -1 1.54532 13.7153   5
   4   3   2 8.21550 14.1028   6
   4   3   2 14.9958 13.9003   3
  -4  -3  -2-2.74722 12.8987   5
   4   3   3 83.3957 20.7542   3
   4   3   3 60.7528 18.8904   6
  -4  -3  -3 79.8525 37.5955   5
   4   3   4 18.0098 9.56405   6
  -4  -3  -4 13.2891 23.9891   5
  -4  -3  -5-23.0691 32.2104   5
  -4  -3  -6-16.2005 25.5213   5
  -4  -3  -7 75.7795 38.2285   5
  -4  -3  -8 71.9070 44.9103   5
   4   4 -14 24.8918 47.3619   6
   4   4 -13 63.2112 39.1201   6
   4   4 -12 247.965 68.5298   4
   4   4 -12 229.329 67.7050   6
   4   4 -11 30.9376 35.9572   4
   4   4 -11-47.8032 37.2715   6
   4   4 -10 11.4725 22.4740   4
   4   4 -10 23.0805 29.6140   6
   4   4  -9 299.914 65.3176   4
   4   4  -9 343.230 76.3853   6
   4   4  -8 878.555 102.576   4
   4   4  -8 770.477 104.935   6
   4   4  -7 4267.93 234.565   6
  -4  -4   7 4437.40 208.288   1
   4   4  -6 553.087 81.5602   6
  -4  -4   6 683.261 80.1288   1
  -4  -4   5 233.882 50.1239   1
   4   4  -5 239.828 52.9096   6
   4   4  -4 557.818 62.6265   3
   4   4  -4 523.357 75.7067   6
  -4  -4   4 558.248 71.6407   1
   4   4  -3 46.1803 24.6564   1
   4   4  -3 65.6290 25.3841   3
   4   4  -3 29.4485 21.6231   6
   4   4  -3 10.2445 9.96010   5
   4   4  -2 6.09610 15.1583   1
   4   4  -2-4.32613 11.6365   3
   4   4  -2-10.0610 15.5935   6
   4   4  -2 36.2642 23.6869   5
   4   4  -1 284.262 59.3852   1
   4   4  -1 242.915 51.5756   2
   4   4  -1 235.983 39.3188   3
   4   4  -1 231.245 47.7714   6
   4   4  -1 216.693 42.8325   5
   4   4   0 35.6101 30.8889   1
   4   4   0 69.5404 29.0838   6
   4   4   0 42.9470 14.1322   3
   4   4   1 83.1233 33.6403   1
   4   4   1 51.5281 22.7116   6
  -4  -4  -1 74.7354 31.0780   5
   4   4   1 60.3346 21.8018   3
   4   4   2 310.245 41.2535   3
   4   4   2 234.567 40.6230   6
  -4  -4  -2 348.170 65.2111   5
   4   4   3 13.9948 13.3653   3
   4   4   3 12.1519 12.1905   6
  -4  -4  -3-51.6281 33.9039   5
  -4  -4  -4-2.93999 19.7227   5
  -4  -4  -5-23.6916 28.7328   5
  -4  -4  -6 39.5717 39.6400   5
  -4  -4  -7-13.4507 28.7840   5
   4   5 -14 99.0234 53.0153   6
   4   5 -13 35.4434 41.1869   4
   4   5 -13 36.8082 36.7359   6
   4   5 -12-8.75186 29.7702   4
   4   5 -12-31.8469 21.8243   6
   4   5 -11 2.69796 24.6441   4
   4   5 -11-9.83688 36.8470   6
   4   5 -10-46.7599 32.2610   4
   4   5 -10 24.0366 22.4666   6
   4   5  -9 465.403 85.3042   6
   4   5  -8 4.29399 19.3821   6
   4   5  -7 1174.58 123.086   6
  -4  -5   7 1187.10 110.123   1
   4   5  -6 946.066 108.430   6
  -4  -5   6 1042.35 100.844   1
  -4  -5   5 125.686 39.6967   1
   4   5  -5 48.9563 25.3062   6
   4   5  -4-7.31957 14.1949   6
   4   5  -4 16.1950 14.2852   5
   4   5  -3 219.424 52.0127   1
   4   5  -3 236.171 52.9949   6
   4   5  -3 241.430 48.5767   5
   4   5  -2 1.87859 17.9504   1
  -4  -5   2-22.2641 21.1712   3
   4   5  -2 14.1570 17.4718   3
   4   5  -2 23.9226 24.5634   6
   4   5  -2-39.3399 18.4256   5
  -4  -5   1-35.7397 19.7198   3
   4   5  -1 25.2428 27.6960   1
   4   5  -1 17.6629 15.7555   6
   4   5  -1-78.2758 25.2215   3
   4   5  -1-18.9937 16.1814   5
   4   5   0 128.792 47.0315   1
  -4  -5   0 53.3017 17.9172   3
   4   5   0 109.867 33.6471   6
   4   5   0 87.3237 22.5703   3
  -4  -5  -1-10.6372 15.3003   3
   4   5   1 33.8469 32.2132   1
   4   5   1-17.7117 15.1219   6
   4   5   1 51.4198 23.1291   3
   4   5   2 77.2305 24.0441   3
  -4  -5  -2 7.30210 9.90900   3
   4   5   2 12.6523 14.1266   6
  -4  -5  -2 51.7126 33.8306   5
   4   5   3 58.8318 17.9805   6
  -4  -5  -3 119.327 43.7080   5
  -4  -5  -4-6.04312 19.8482   5
  -4  -5  -5 34.5158 23.1497   5
  -4  -5  -6 61.4319 48.2813   5
   4   6 -14 237.216 81.4771   6
   4   6 -13 142.881 58.1472   4
   4   6 -13 141.713 66.1532   6
   4   6 -12 68.0316 29.5745   4
   4   6 -12 29.8912 37.0688   6
   4   6 -11 50.0308 36.2450   4
   4   6 -11-41.9491 32.2717   6
   4   6 -10 31.9761 31.5934   6
   4   6  -9 449.160 87.8402   6
   4   6  -8 35.6910 30.3878   6
  -4  -6   8 55.8814 27.5857   1
  -4  -6   7 236.277 57.3856   1
   4   6  -7 179.241 53.6460   6
   4   6  -6 44.1071 27.6832   6
  -4  -6   6 72.5101 34.4366   1
   4   6  -5-1.28306 22.3868   6
  -4  -6   4 441.103 67.6647   3
   4   6  -4 473.588 76.7378   6
   4   6  -3 145.565 43.9370   1
  -4  -6   3 142.507 36.3013   3
   4   6  -3 155.776 46.6842   6
  -4  -6   2-41.9561 23.3019   3
   4   6  -2 25.1089 24.1845   6
   4   6  -2-22.8889 27.6588   1
   4   6  -1 190.549 54.7064   1
  -4  -6   1 168.856 38.9107   3
   4   6  -1 213.433 52.3273   6
   4   6   0 66.3130 30.3323   1
  -4  -6   0 50.3037 21.2398   3
   4   6   0 55.0146 29.3343   6
  -4  -6  -1 17.5296 11.0130   3
   4   6   1 51.6349 47.5504   1
   4   6   1 62.9848 28.8173   6
   4   6   1-10.4199 13.0408   3
  -4  -6  -2 30.4106 15.9311   3
   4   6   2 20.6603 17.3098   6
  -4  -6  -2 30.4809 27.6379   5
  -4  -6  -3-5.86597 25.5360   5
  -4  -6  -4 31.4521 30.5653   5
  -4  -6  -5 95.0255 50.8653   5
   4   7 -13 43.9907 45.7830   6
   4   7 -12 47.5279 39.7113   4
   4   7 -12-51.6601 43.5770   6
   4   7 -11 11.5250 21.1167   4
   4   7 -11 44.3616 29.0093   6
   4   7 -10-34.6146 22.3679   6
   4   7  -9-15.5823 27.5984   6
   4   7  -8 73.7030 35.5421   6
  -4  -7   7 74.1237 36.8936   1
   4   7  -7 37.1007 27.7356   6
   4   7  -6-7.29086 14.6072   6
  -4  -7   5-6.01091 21.7318   3
   4   7  -5-5.50850 15.7301   6
  -4  -7   4 222.812 51.0477   3
   4   7  -4 238.634 58.5776   6
  -4  -7   3 120.041 42.5074   3
   4   7  -3 149.284 45.4315   6
   4   7  -3 147.264 44.7040   1
  -4  -7   2-13.8244 18.6063   3
   4   7  -2 25.2231 24.5000   6
   4   7  -2-11.0349 30.3842   1
  -4  -7   1 21.1564 18.8540   3
   4   7  -1 14.6422 23.8311   1
   4   7  -1 46.5439 29.1439   6
   4   7   0-17.0066 31.6129   1
  -4  -7   0-29.4020 24.7933   3
   4   7   0-15.7024 17.0220   6
  -4  -7  -1-3.49686 14.5696   3
   4   7   1 23.5315 23.6126   6
   4   7   1 24.6559 33.6177   1
  -4  -7  -2 13.2049 16.4501   3
  -4  -7  -3 54.2179 36.0130   5
  -4  -7  -4 77.6810 49.7567   5
   4   8 -12 18.3208 24.5974   4
   4   8 -12 77.5693 45.1818   6
   4   8 -11 13.7307 22.3689   6
   4   8 -10 49.7472 31.0756   6
   4   8  -9 24.7617 26.7312   6
   4   8  -8-15.9388 15.2438   6
   4   8  -7-5.55269 18.7106   6
  -4  -8   6 165.233 49.0697   3
   4   8  -6 246.954 61.2280   6
  -4  -8   5 25.5024 23.5823   3
   4   8  -5 33.7365 31.1224   6
  -4  -8   4 473.439 78.7223   3
   4   8  -4 431.670 84.5449   6
  -4  -8   3-9.71968 18.1514   3
   4   8  -3 34.9681 32.6478   6
   4   8  -3 0.49117 24.4649   1
  -4  -8   2-11.7893 20.8017   3
   4   8  -2 14.9425 27.8900   6
   4   8  -2-34.5929 25.4014   1
  -4  -8   1-5.99727 15.9770   3
   4   8  -1 1.86782 35.3723   1
   4   8  -1-26.0703 24.7543   6
   4   8   0-3.09574 29.3433   1
  -4  -8   0-19.7891 24.1781   3
   4   8   0 9.13850 18.4608   6
  -4  -8  -1 49.0378 23.2156   3
   4   8   1 6.90955 22.1791   6
   4   8   1-44.3260 32.9143   1
   4   8   2 29.6103 43.7793   1
   4   9 -10 344.437 82.0487   6
   4   9  -9-8.20290 25.5350   6
   4   9  -8 208.262 63.1389   6
  -4  -9   7 39.3586 31.4842   3
   4   9  -7 18.0271 23.7106   6
  -4  -9   6 33.4535 27.4353   3
   4   9  -6 89.2541 43.1269   6
  -4  -9   5 26.6009 31.0328   3
   4   9  -5-4.66528 22.1702   6
   4   9  -4 57.6937 39.3803   6
  -4  -9   4 27.4106 28.6057   3
   4   9  -3 38.4733 36.0118   1
  -4  -9   3-33.8822 30.8013   3
   4   9  -3 19.9353 33.4621   6
   4   9  -2-65.6339 34.9461   1
  -4  -9   2-22.0294 26.6916   3
   4   9  -2 26.9130 33.0832   6
  -4  -9   1-13.0518 22.2278   3
   4   9  -1 30.2680 25.8369   1
   4   9  -1 47.5692 28.3189   6
  -4  -9   0-29.1855 26.5768   3
   4   9   0 5.57659 30.1364   6
   4   9   1 74.4061 54.0736   1
   4   9   2-0.13151 31.1531   1
  -4 -10   8-4.12104 25.3174   3
   4  10  -8-5.17962 18.9069   6
  -4 -10   7 0.58450 31.7605   3
   4  10  -7 21.0107 26.8561   6
  -4 -10   6-14.7935 33.5026   3
   4  10  -6 47.9304 39.2221   6
  -4 -10   5-48.2667 31.9055   3
   4  10  -5 35.6117 34.5007   6
  -4 -10   4-7.33984 30.0985   3
   4  10  -4 101.555 50.3417   6
  -4 -10   3 114.110 45.5821   3
   4  10  -3-6.64921 23.3433   6
  -4 -10   2 84.6971 38.7932   3
   4  10  -2 37.8760 42.9785   6
  -4 -10   1-13.9792 20.1461   3
   4  10  -1 34.6382 33.2283   6
   5 -12   4-34.1459 35.8593   3
   5 -12   5 8.56468 38.2681   3
   5 -12   6 15.0257 26.6061   3
   5 -12   7 46.0082 38.0502   3
   5 -12   8 40.9204 45.7782   3
   5 -12   9 31.7595 25.1991   3
   5 -11   0 62.3780 54.4285   3
   5 -11   1 65.7813 46.9956   3
   5 -11   2 221.410 64.3252   3
   5 -11   3 795.909 111.664   3
   5 -11   4 81.2396 49.3965   3
   5 -11   5 86.1464 43.6126   3
   5 -11   6-14.0186 26.4571   3
   5 -11   7-10.2534 24.3200   3
   5 -11   8 56.9152 33.6469   3
   5 -11   9 115.573 41.7906   3
  -5  11 -10-16.4960 21.9785   4
   5 -10  -3 28.9411 49.2965   3
   5 -10  -2 131.822 60.1929   3
   5 -10  -1 51.8543 48.3167   3
   5 -10   0 24.1663 40.5811   3
   5 -10   1 268.584 73.2696   3
   5 -10   2 3.74003 26.2009   3
   5 -10   3 306.145 64.1758   3
   5 -10   4 40.4808 34.6224   3
   5 -10   5 9.48660 23.4542   3
   5 -10   6 93.2516 41.0848   3
   5 -10   7-26.9182 20.6653   3
   5 -10   8 62.3962 32.4764   3
   5 -10   9-8.40684 20.9864   3
  -5  10 -10 16.7735 30.7387   4
  -5  10 -11 78.3732 36.5927   4
   5  -9  -5 39.6333 43.1848   3
   5  -9  -5 20.5834 36.6242   5
   5  -9  -4-0.12067 33.3169   3
   5  -9  -4 49.8464 47.3286   5
   5  -9  -3 48.1851 42.1759   3
   5  -9  -2 71.1968 46.5128   3
   5  -9  -1 191.891 56.9189   3
   5  -9   0 13.9187 25.6934   3
   5  -9   1 195.911 54.8918   3
   5  -9   2-25.8858 23.1967   3
   5  -9   3 109.220 48.7369   3
   5  -9   4 34.3319 30.4429   3
   5  -9   5 70.7975 33.9843   3
   5  -9   6 31.6525 18.3927   3
   5  -9   7 10.0610 17.0282   3
   5  -9   8 71.0524 37.9502   3
  -5   9  -9 19.9542 26.3651   4
   5  -9   9 43.8205 18.4611   3
  -5   9 -10-9.45144 16.2340   4
  -5   9 -11-87.0361 41.2307   4
   5  -8  -7 44.2332 41.0289   3
   5  -8  -7 63.2077 48.3932   5
   5  -8  -6 76.9978 47.5949   3
   5  -8  -6-29.9697 25.7827   5
   5  -8  -5-56.0151 37.9636   3
   5  -8  -5-27.5977 32.7286   5
   5  -8  -4-45.9227 29.6768   3
   5  -8  -4 47.4996 42.2510   5
   5  -8  -3-49.3590 34.2686   3
   5  -8  -3-3.95147 20.5789   5
   5  -8  -2 34.6003 43.1331   3
   5  -8  -1 19.1387 26.2249   3
  -5   8   1 37.1636 25.1711   1
   5  -8   0 121.576 46.2278   3
  -5   8   0 180.001 39.8483   1
   5  -8   1-0.51632 20.2418   3
  -5   8  -1-6.65892 15.1033   1
  -5   8  -1 0.35147 16.3839   5
   5  -8   2 50.3351 37.3527   3
  -5   8  -2 31.4890 26.6697   5
   5  -8   3 15.0609 25.9267   3
  -5   8  -3 3.02109 11.9580   5
  -5   8  -4 20.1596 18.7653   5
   5  -8   4 4.17260 19.9298   3
   5  -8   5 91.5193 34.9969   3
   5  -8   6 28.2223 21.5133   3
   5  -8   7 13.8586 21.0841   1
   5  -8   7 23.0909 22.1206   3
  -5   8  -8 10.7727 19.8657   4
   5  -8   8-31.1182 23.5424   1
  -5   8  -9 35.2981 26.0729   4
  -5   8 -10-2.23715 23.3154   4
  -5   8 -10 12.5956 23.5341   2
  -5   8 -11-7.95014 24.5162   4
   5  -7  -8-13.8308 44.5861   3
   5  -7  -8 0.16228 33.1243   5
   5  -7  -7 71.7664 44.9793   3
   5  -7  -7-6.10781 28.6325   5
   5  -7  -6 17.1863 28.7822   3
   5  -7  -6 58.0262 40.1530   5
   5  -7  -5-41.1183 41.7848   3
   5  -7  -5 38.6192 36.4360   5
   5  -7  -4 15.7650 27.0727   3
   5  -7  -4 87.0428 40.4472   5
   5  -7  -3 79.8579 37.6317   3
   5  -7  -3 95.3701 34.4148   5
   5  -7  -2 39.0912 26.5055   3
  -5   7   2 111.648 22.1169   2
   5  -7  -1 424.061 73.5192   3
  -5   7   1 304.772 48.0097   1
  -5   7   0 182.014 41.5024   5
   5  -7   0 171.037 44.7988   3
  -5   7   0 198.812 40.7435   1
   5  -7   1 64.9662 38.1769   3
  -5   7  -1 30.0267 21.4639   1
  -5   7  -1 11.9839 20.4264   5
   5  -7   2 144.263 47.6472   3
  -5   7  -2 22.7169 12.8463   5
   5  -7   3 58.8433 31.7306   3
  -5   7  -3-11.0811 18.2912   5
   5  -7   4 44.2076 30.1277   3
   5  -7   5 17.0581 18.3533   3
   5  -7   6 17.0170 14.9846   1
   5  -7   6 86.3936 30.1281   3
  -5   7  -7 22.1364 18.6687   4
   5  -7   7 19.6066 27.0449   1
   5  -7   7 1.97837 12.5714   3
   5  -7   8-12.5621 21.6459   1
  -5   7  -8 18.4341 16.4396   4
  -5   7  -8 10.3324 20.5754   2
   5  -7   8 46.0321 21.5188   3
  -5   7  -9 7.40263 19.3034   4
  -5   7  -9 67.6329 35.2030   2
   5  -7   9 2.96927 19.1912   1
  -5   7 -10 3.73478 20.2779   4
  -5   7 -10-33.6750 33.2247   2
   5  -7  10 2.10755 37.8463   1
   5  -6  -9 7.93113 31.0020   3
   5  -6  -9 29.4879 41.2762   5
   5  -6  -8 49.9824 56.4857   6
   5  -6  -8-66.8719 51.8382   3
   5  -6  -8 7.55795 23.4915   5
   5  -6  -7 2.66236 23.3252   6
   5  -6  -7 12.6904 30.1274   5
   5  -6  -6 77.3880 49.5885   6
   5  -6  -6 19.1130 20.0618   5
   5  -6  -5 108.861 50.8149   6
   5  -6  -5 63.0642 24.9644   5
   5  -6  -4 10.4687 27.5013   6
   5  -6  -4 4.77371 19.0876   5
  -5   6   3 0.45499 4.46768   2
   5  -6  -3 26.3814 36.5263   6
   5  -6  -3-9.90741 14.3385   5
   5  -6  -2 46.7800 37.5286   6
  -5   6   2 8.85653 7.39165   2
   5  -6  -2 6.45218 14.3421   5
   5  -6  -1 202.507 57.6952   6
  -5   6   1 208.633 40.9476   1
  -5   6   0 242.665 47.6182   1
   5  -6   0 404.874 76.9844   6
   5  -6   0 249.903 49.9885   3
  -5   6  -1 42.3682 18.4423   1
   5  -6   1 31.6286 22.8499   3
  -5   6  -1 42.6626 18.4122   5
   5  -6   2 20.6803 24.6917   3
  -5   6  -2 13.5908 15.6504   5
   5  -6   3 21.5198 26.3292   3
   5  -6   4 25.6666 28.8209   3
  -5   6  -4 45.4240 25.8211   6
  -5   6  -5 97.7770 43.5089   6
   5  -6   5 68.9602 33.4748   1
   5  -6   5 95.0553 31.6561   3
  -5   6  -6 22.1078 16.1058   4
   5  -6   6 34.2667 30.9405   1
  -5   6  -6 61.0869 24.9723   6
  -5   6  -6 13.0116 22.3481   2
   5  -6   6 43.9818 19.7238   3
   5  -6   7 111.788 38.2340   1
  -5   6  -7 46.3481 20.2379   4
  -5   6  -7 80.2501 38.3490   2
  -5   6  -7 100.259 34.7398   6
   5  -6   7 53.5616 19.0591   3
  -5   6  -8 80.2076 33.5412   4
  -5   6  -8 80.3693 34.9344   2
   5  -6   8 107.036 26.1522   3
   5  -6   8 55.0949 41.8397   1
  -5   6  -9 13.5583 26.9779   4
  -5   6  -9-19.1700 21.8634   2
  -5   6 -10-44.7147 34.8810   2
   5  -5 -10 42.6661 47.3086   6
   5  -5  -9 109.357 62.5483   6
   5  -5  -9 181.482 67.4677   5
   5  -5  -8 47.2588 39.3254   6
   5  -5  -8-1.28949 23.2590   5
   5  -5  -7 189.685 58.8793   6
   5  -5  -7 243.966 67.5879   5
   5  -5  -6 391.401 76.3032   6
   5  -5  -6 586.001 95.0504   5
   5  -5  -5 2.56294 20.3483   6
   5  -5  -5 10.8914 15.2754   5
   5  -5  -4 15.7964 20.3154   6
   5  -5  -4 22.3141 25.7519   5
   5  -5  -3 152.321 47.9992   6
   5  -5  -3 203.403 42.4822   5
   5  -5  -2 144.215 47.7630   6
   5  -5  -2 118.504 27.8377   5
  -5   5   1 5.64805 21.1644   1
   5  -5  -1 30.9355 31.1767   6
   5  -5   0 1662.00 135.771   6
  -5   5   0 1785.08 136.781   6
  -5   5   0 1710.42 121.185   1
  -5   5   0 1566.74 91.1281   5
  -5   5  -1-3.73214 20.8303   1
   5  -5   1 17.0874 30.6375   6
  -5   5  -1 44.2819 26.9329   6
  -5   5  -1 0.63941 10.4965   5
   5  -5   2 116.830 32.2032   3
  -5   5  -2 115.691 35.1245   6
  -5   5  -2 96.3827 24.8352   5
   5  -5   3 20.9294 17.6149   3
  -5   5  -3 64.8952 24.6423   6
  -5   5  -3 79.4649 31.1796   2
   5  -5   4 77.7226 28.2408   3
  -5   5  -4 19.0130 9.47624   4
  -5   5  -4 51.8682 27.5421   2
  -5   5  -4 45.4353 25.4705   6
   5  -5   4 42.6648 27.3553   1
  -5   5  -5 50.3665 21.7292   4
   5  -5   5 16.6578 20.8240   1
  -5   5  -5 34.7867 26.1477   2
  -5   5  -5 42.8408 30.2484   6
   5  -5   5 55.6597 23.0728   3
  -5   5  -6 7.27930 9.40729   4
  -5   5  -6-24.4172 18.9905   2
  -5   5  -6 6.46440 14.1283   6
   5  -5   6-10.3561 14.3979   3
   5  -5   6 5.12310 23.2839   1
  -5   5  -7-7.21875 14.0138   4
  -5   5  -7 23.7880 25.5302   2
   5  -5   7 20.4419 30.9353   1
   5  -5   7 7.78007 9.70911   3
  -5   5  -8 55.1871 39.3121   2
  -5   5  -9 83.8942 46.5485   2
  -5   5 -10 30.7826 28.2197   2
   5  -4 -10 1.49098 25.6339   5
   5  -4 -10-43.6574 49.6013   6
   5  -4  -9-50.3372 32.1506   5
   5  -4  -9-29.0958 25.5771   6
   5  -4  -8 67.1238 27.9882   5
   5  -4  -8 86.6790 38.4824   6
   5  -4  -7 443.808 81.8462   5
   5  -4  -7 476.396 86.2216   6
   5  -4  -6 1062.86 120.990   6
   5  -4  -6 1036.37 114.328   5
  -5   4   5 147.210 39.6617   4
   5  -4  -5 127.851 36.1229   6
   5  -4  -5 173.360 44.7784   5
   5  -4  -4 234.353 51.8322   6
   5  -4  -4 345.707 54.2929   5
   5  -4  -3 4.30980 23.0779   6
   5  -4  -3 28.5054 14.7791   5
   5  -4  -2 251.276 50.7454   6
  -5   4   2 287.639 55.9829   6
  -5   4   2 220.605 44.2957   1
   5  -4  -2 262.466 40.1634   5
  -5   4   1 150.653 14.9993   2
  -5   4   1 178.295 39.5450   1
   5  -4  -1 213.436 48.8585   6
  -5   4   1 118.161 30.6818   6
  -5   4   0 145.704 22.5117   2
   5  -4   0 91.2076 30.5607   6
  -5   4   0 144.179 35.1762   1
  -5   4   0 84.6863 30.9155   6
   5  -4   1 302.196 55.1881   6
  -5   4  -1 272.091 37.3581   2
  -5   4  -1 279.119 51.3491   6
  -5   4  -1 400.181 57.3970   1
  -5   4  -1 333.461 33.6622   5
   5  -4   2 34.5729 22.4866   1
  -5   4  -2 29.6221 16.3186   2
   5  -4   2 101.340 34.3923   6
  -5   4  -2 27.0576 14.4900   6
  -5   4  -3 122.262 24.1527   4
  -5   4  -3 104.162 32.8566   2
   5  -4   3 104.204 26.4372   3
  -5   4  -3 96.6055 32.2570   6
   5  -4   3 106.353 35.6436   1
  -5   4  -4 49.1394 20.9633   4
   5  -4   4 15.0298 18.5662   3
  -5   4  -4 19.7326 17.3257   2
   5  -4   4 24.7213 21.0618   1
  -5   4  -5 350.226 52.2832   4
  -5   4  -5 351.279 68.0136   2
   5  -4   5 420.306 47.4785   3
   5  -4   5 336.899 64.4299   1
  -5   4  -6-6.43437 23.6490   2
   5  -4   6 12.3061 28.2910   1
  -5   4  -6-1.30470 15.4769   6
   5  -4   6-5.87497 9.29821   3
  -5   4  -7 48.0855 37.4670   2
   5  -4   7 31.0156 9.78237   3
  -5   4  -8-15.6278 25.2140   2
  -5   4  -9 40.3726 45.7487   2
  -5   4 -10 14.2187 34.9831   2
   5  -3 -11 13.7612 24.3210   6
   5  -3 -10 34.8219 30.4580   6
   5  -3  -9-9.88185 39.5114   6
   5  -3  -8-13.3874 32.4821   6
   5  -3  -7 566.443 93.7283   6
  -5   3   6 168.363 45.0748   4
   5  -3  -6 196.534 53.7496   6
  -5   3   5 130.030 33.8409   4
   5  -3  -5 176.137 51.1760   6
   5  -3  -4 179.330 36.8835   5
  -5   3   4 157.919 33.6283   4
   5  -3  -4 227.445 56.4960   6
  -5   3   3 759.040 62.9584   4
   5  -3  -3 755.601 93.8820   6
  -5   3   3 721.054 89.4021   6
   5  -3  -3 708.774 62.0077   5
   5  -3  -2 468.339 71.8915   6
  -5   3   2 542.718 70.3124   1
   5  -3  -2 487.982 42.5733   5
   5  -3  -1-9.73939 15.9731   6
  -5   3   1 49.9541 23.3526   6
  -5   3   1 33.0595 19.4752   1
   5  -3   0 931.520 91.1578   6
  -5   3   0 985.278 94.8638   6
  -5   3   0 1018.15 61.8734   2
  -5   3   0 934.650 90.1669   1
  -5   3  -1 206.820 18.3053   4
  -5   3  -1 244.930 37.8247   2
   5  -3   1 283.857 49.3665   6
   5  -3   1 239.450 48.3846   1
  -5   3  -1 218.220 46.2076   6
  -5   3  -1 217.108 18.7846   5
   5  -3   2 13.7691 15.0978   1
   5  -3   2 68.9208 30.0859   6
  -5   3  -2 4.99648 12.7945   2
   5  -3   3 87.9152 29.8001   6
   5  -3   3 31.2912 21.4910   1
  -5   3  -3 35.9995 18.2276   2
   5  -3   4-14.6176 19.5075   1
   5  -3   4-1.31020 13.0774   3
  -5   3  -4 28.7001 17.2619   6
  -5   3  -4 30.7343 25.3788   2
   5  -3   5 58.8972 35.5179   1
  -5   3  -5 59.4008 19.8949   6
   5  -3   5 53.9083 17.8748   3
  -5   3  -5 52.2407 31.6624   2
  -5   3  -6 55.7229 19.9338   6
   5  -3   6 58.4561 10.8607   3
  -5   3  -6 46.2608 24.9714   2
  -5   3  -7 0.58479 20.9754   2
  -5   3  -8 87.9331 46.0171   2
  -5   3  -9-26.9856 24.3929   2
  -5   3 -10 72.3171 45.9258   2
   5  -2 -11 67.2430 28.9969   6
   5  -2 -10 16.3876 33.0771   6
   5  -2  -9 253.267 70.0470   6
   5  -2  -9 167.414 36.5148   2
   5  -2  -8-19.2632 27.6827   6
   5  -2  -8 2.65496 10.1823   2
  -5   2   7 634.655 82.7565   4
   5  -2  -7 665.059 103.128   6
   5  -2  -7 690.076 52.7025   2
  -5   2   6-3.22016 13.7353   4
   5  -2  -6 12.5022 17.4797   6
   5  -2  -5 38.7349 25.0039   6
  -5   2   4 30.1617 12.5996   4
   5  -2  -4 40.0973 24.6421   6
  -5   2   4 41.4057 28.0055   6
  -5   2   3 546.591 46.0997   4
   5  -2  -3 639.166 83.6907   6
   5  -2  -3 511.006 45.4759   5
  -5   2   3 577.150 75.4218   1
  -5   2   2 253.384 49.3491   1
   5  -2  -2 294.995 54.0869   6
   5  -2  -2 290.868 24.8275   5
  -5   2   1 338.473 55.6454   6
  -5   2   1 284.100 49.1228   1
   5  -2  -1 307.620 55.1093   6
   5  -2   0 524.804 69.0357   6
  -5   2   0 500.549 49.0791   2
  -5   2   0 546.625 73.7004   1
   5  -2   0 466.511 67.7878   1
   5  -2   1 79.6066 32.5676   1
   5  -2   1 62.6245 27.0519   6
  -5   2  -1 55.9762 19.5138   2
   5  -2   2 568.016 63.6710   6
   5  -2   2 589.289 80.4143   1
  -5   2  -2 619.924 70.8808   2
   5  -2   3 850.471 72.4799   6
  -5   2  -3 885.029 77.6684   6
  -5   2  -3 718.713 85.1832   2
   5  -2   3 782.852 93.9287   1
   5  -2   4 159.782 24.2762   3
  -5   2  -4 193.171 35.2108   6
  -5   2  -4 85.1327 32.9677   2
   5  -2   4 119.754 40.9198   1
   5  -2   5 50.6909 9.85025   3
  -5   2  -5 83.4576 20.8860   6
  -5   2  -5 51.8121 36.7916   2
   5  -2   5 61.4996 12.4461   3
  -5   2  -6 13.2828 5.64810   6
  -5   2  -6 18.3619 32.3637   2
  -5   2  -7 45.1308 33.6849   2
  -5   2  -8 4.75982 22.2198   2
  -5   2  -9 55.2777 43.6556   2
   5  -1 -12 252.057 80.7645   6
   5  -1 -11 95.5764 45.7453   6
   5  -1 -10 21.2431 30.4225   6
   5  -1 -10-12.4337 15.1107   2
   5  -1  -9 14.1757 25.3107   6
   5  -1  -9-5.97001 13.4200   2
   5  -1  -8 77.4091 29.7688   6
   5  -1  -8 121.932 28.7779   2
   5  -1  -7 169.347 29.4882   2
   5  -1  -7 117.926 47.6611   6
   5  -1  -6 2.85011 6.07054   2
   5  -1  -6-3.76007 22.7744   6
   5  -1  -5 60.1577 24.7631   6
  -5   1   4 76.5132 40.0388   1
   5  -1  -4 79.4435 34.0366   6
   5  -1  -4 44.4157 9.06478   2
  -5   1   4 54.6441 22.5428   6
   5  -1  -3 3085.98 180.061   6
   5  -1  -3 3216.42 84.6522   2
  -5   1   3 3366.88 178.241   1
   5  -1  -2-1.15534 7.28401   2
   5  -1  -2-21.7761 21.6100   6
  -5   1   2-15.1807 14.5829   6
  -5   1   2 1.89244 16.4370   1
   5  -1  -1 46.0956 15.2048   2
  -5   1   1 84.9317 32.4868   1
   5  -1  -1 45.6934 16.8174   6
  -5   1   1 27.4330 16.0937   6
   5  -1   0 101.060 24.8868   2
   5  -1   0 86.3458 29.0026   6
   5  -1   1 80.6233 26.3944   2
   5  -1   1 71.8687 25.6791   6
  -5   1  -1 45.6693 19.1281   2
   5  -1   2 34.5753 28.7511   1
   5  -1   2 46.1962 24.9546   6
   5  -1   2 15.1519 17.0491   2
  -5   1  -2 0.29786 12.4158   2
  -5   1  -2 19.2742 15.1577   6
  -5   1  -2 2.87649 6.50052   5
   5  -1   3 56.9498 16.6509   6
  -5   1  -3 91.0314 36.9397   2
  -5   1  -3 117.516 28.1705   6
   5  -1   3 90.9541 42.1437   1
   5  -1   4 18.9948 16.1988   6
   5  -1   4 11.8680 8.15457   3
  -5   1  -4-1.15952 17.4228   2
  -5   1  -4 0.34442 8.10975   6
  -5   1  -5 264.350 62.3449   2
  -5   1  -6 308.067 73.1154   2
  -5   1  -7 48.1940 35.2060   2
  -5   1  -8 5.13126 29.8354   2
  -5   1  -9 106.747 61.9617   2
   5   0 -12 225.381 71.0693   6
   5   0 -11 9.36666 29.3730   6
   5   0 -10 94.9657 34.8177   2
   5   0 -10 110.171 51.4754   6
   5   0  -9 323.578 53.2404   2
   5   0  -9 238.194 62.2532   6
   5   0  -8-10.3094 35.2350   6
   5   0  -7-26.3178 33.8814   6
   5   0  -6 20.7370 20.3843   6
   5   0  -5 553.457 81.6325   6
  -5   0   5 508.227 72.3464   6
  -5   0   5 482.292 74.7457   1
  -5   0   4 112.574 35.2830   1
   5   0  -4 145.961 44.1321   6
   5   0  -3 411.709 41.2192   2
   5   0  -3 391.639 64.5479   6
  -5   0   3 471.513 67.9011   1
   5   0  -2 468.359 67.5075   6
  -5   0   2 511.641 65.0026   6
   5   0  -2 489.102 50.5450   2
  -5   0   2 413.633 64.9350   1
   5   0  -2 419.680 25.3557   5
   5   0  -1 35.5900 23.0194   6
   5   0  -1 26.2571 12.9809   2
  -5   0   1 13.5207 17.1480   1
   5   0   0 272.596 21.8454   4
   5   0   0 394.528 54.0499   2
   5   0   0 282.105 48.7295   6
   5   0   1 76.8463 16.3229   4
   5   0   1 55.6476 25.4879   2
   5   0   1 61.2321 19.5120   6
  -5   0  -1 64.6792 22.4764   6
  -5   0  -1 61.6725 16.1378   5
   5   0   2 15.5960 26.2491   1
   5   0   2 1.97594 6.30592   4
   5   0   2 13.0032 20.0138   2
   5   0   2-9.23877 11.7132   3
  -5   0  -2-7.98825 26.0059   2
   5   0   2-2.23634 13.7993   6
  -5   0  -2 12.7351 14.2288   6
  -5   0  -2-1.09403 8.61148   5
   5   0   3 592.372 61.3088   4
   5   0   3 497.525 51.8463   6
   5   0   3 549.574 40.9351   3
  -5   0  -3 412.484 72.0670   2
   5   0   3 396.362 74.1023   1
  -5   0  -3 555.723 59.2408   5
  -5   0  -4 25.9152 14.8384   5
   5   0   4 12.5384 17.5495   4
   5   0   4 7.23363 7.35953   6
  -5   0  -4-4.61507 19.0582   2
   5   0   4-0.99768 3.89882   3
  -5   0  -5 268.083 52.4690   5
   5   0   5 350.995 60.4031   4
  -5   0  -5 259.010 64.6656   2
  -5   0  -6 9.90896 26.0059   2
  -5   0  -7-26.4113 42.7878   2
  -5   0  -8 21.6698 26.4220   2
  -5   0 -10 34.4755 35.5238   5
   5   1 -13-7.26647 33.7978   6
   5   1 -12 36.9987 39.3483   6
   5   1 -11 47.3829 31.5761   2
   5   1 -11-35.6972 40.5668   6
   5   1 -10-14.6366 37.4548   6
   5   1  -9 54.9760 35.8797   6
   5   1  -8 42.0284 31.8450   6
   5   1  -7 25.2345 26.4932   6
   5   1  -6 29.5081 20.2475   4
   5   1  -6 30.5507 17.0692   6
   5   1  -5-9.20588 14.2261   4
   5   1  -5 0.66040 16.6385   6
  -5  -1   5 5.80208 15.4170   1
  -5  -1   5 26.9959 15.2562   6
   5   1  -4-7.17278 12.0090   4
  -5  -1   4 4.04679 13.8066   1
   5   1  -4 6.72991 18.7430   6
  -5  -1   4 10.5285 17.4778   6
  -5  -1   3 154.674 39.9845   1
   5   1  -3 169.704 43.6990   6
  -5  -1   3 194.885 41.0389   6
   5   1  -2 408.749 64.8244   6
   5   1  -2 452.194 52.9794   2
  -5  -1   2 485.110 65.3593   6
  -5  -1   2 468.707 68.1436   1
   5   1  -2 466.740 37.2694   5
   5   1  -2 451.295 72.1187   1
   5   1  -1 733.015 65.6124   3
   5   1  -1 723.097 82.5140   6
  -5  -1   1 730.420 75.9930   6
   5   1  -1 820.752 77.8272   2
   5   1  -1 818.561 95.7801   1
   5   1   0-12.0917 17.5138   3
   5   1   0-0.34967 12.9968   6
   5   1   0-19.9948 28.0183   1
   5   1   0 27.9666 23.9261   2
   5   1   1 16.1906 17.9570   1
   5   1   1 1.33317 9.56753   3
   5   1   1 6.79169 14.6140   6
  -5  -1  -1 6.02193 8.96706   5
   5   1   1-4.47639 21.7279   2
   5   1   2 135.186 39.8088   2
   5   1   2 27.4676 11.0938   6
   5   1   2 66.5377 17.7173   3
  -5  -1  -2 59.7290 22.6632   5
   5   1   2 53.2875 34.2454   1
   5   1   3-24.7169 18.2855   4
   5   1   3 7.93179 7.70577   6
   5   1   3 19.4190 11.9429   3
  -5  -1  -3-8.76616 10.8853   5
   5   1   4 3.40709 9.88043   4
  -5  -1  -4 39.5032 29.8221   2
   5   1   4 1.35454 6.65554   6
   5   1   4 15.1465 8.20689   3
  -5  -1  -4 5.02438 13.8685   5
  -5  -1  -5 36.7755 30.6727   2
  -5  -1  -5 1.72064 14.6695   5
  -5  -1  -6-16.1270 23.3208   5
  -5  -1  -6 16.5357 27.4740   2
  -5  -1  -7-33.0272 27.0031   5
  -5  -1  -7 15.6091 37.6490   2
  -5  -1  -8 46.1135 31.8880   5
  -5  -1  -8-24.1982 47.0628   2
  -5  -1  -9 39.1208 35.1677   5
   5   2 -13-141.338 58.2412   6
   5   2 -12-11.9069 23.9709   2
   5   2 -12-34.5306 46.4330   6
   5   2 -11 82.6461 40.5896   6
   5   2 -10 130.860 51.5943   6
   5   2  -9 376.186 74.9592   4
   5   2  -9 210.651 61.6543   6
   5   2  -8 137.051 41.8778   4
   5   2  -8 136.207 45.4727   6
   5   2  -7 291.507 58.5585   4
   5   2  -7 275.705 64.3151   6
   5   2  -6 8.09300 11.6857   4
   5   2  -6 17.2977 15.8404   6
  -5  -2   5 117.703 35.2224   1
   5   2  -5 109.135 41.5985   6
   5   2  -4 475.600 61.1403   3
   5   2  -4 453.149 75.4221   6
  -5  -2   4 464.663 66.8477   6
  -5  -2   4 494.148 70.7774   1
  -5  -2   3 265.082 53.1600   1
  -5  -2   3 325.523 54.8253   6
   5   2  -3 276.688 46.1981   3
   5   2  -3 281.233 57.7200   6
   5   2  -3 292.087 39.0460   5
   5   2  -2 499.195 60.3120   3
   5   2  -2 400.683 65.8280   6
   5   2  -2 418.505 57.5487   2
   5   2  -2 466.132 73.8589   1
   5   2  -2 455.145 46.4031   5
   5   2  -1 16.1991 11.6369   5
   5   2  -1-17.6025 22.2005   1
   5   2  -1 21.9574 12.9551   3
   5   2  -1-0.13464 11.9098   6
   5   2  -1 14.3661 16.6599   2
   5   2   0 142.888 41.0043   1
   5   2   0 101.307 21.5959   3
   5   2   0 72.8269 29.6835   6
   5   2   0 105.301 38.5316   2
   5   2   1 34.0385 41.0970   1
   5   2   1 8.44629 12.7407   3
   5   2   1 2.48459 10.8954   6
  -5  -2  -1-1.85946 9.49176   5
   5   2   2-17.6363 12.9671   6
   5   2   2-1.50375 8.18896   3
  -5  -2  -2-12.2567 13.6296   5
   5   2   2-16.6150 19.8971   1
   5   2   3 0.37351 10.3656   6
   5   2   3 23.5822 13.0046   3
  -5  -2  -3-4.24281 12.0167   5
   5   2   4 22.0522 9.83318   6
  -5  -2  -4 12.1496 13.9429   5
  -5  -2  -5-11.4392 16.1971   5
  -5  -2  -6-7.04206 22.1296   5
  -5  -2  -7 28.5901 37.3182   5
  -5  -2  -8-47.1051 40.3462   5
   5   3 -14 41.4990 32.5557   6
   5   3 -13-43.7592 33.3668   6
   5   3 -12 24.2579 28.9389   6
   5   3 -11 57.1812 30.5812   4
   5   3 -11 5.97015 18.9906   6
   5   3 -10 99.2224 46.5064   4
   5   3 -10 112.390 46.7860   6
   5   3  -9 178.391 51.8773   4
   5   3  -9 199.502 64.8022   6
   5   3  -8 137.995 44.7838   4
   5   3  -8 151.576 49.9087   6
   5   3  -7 19.5172 15.8547   4
   5   3  -7 31.5789 18.4911   6
   5   3  -6 506.659 85.7591   6
   5   3  -5 152.511 48.6205   6
  -5  -3   5 118.448 38.1190   1
  -5  -3   4 5.97829 21.1684   1
   5   3  -4-10.4585 21.5456   6
   5   3  -3 491.809 60.9547   3
   5   3  -3 460.639 75.4970   6
  -5  -3   3 499.975 76.7386   1
   5   3  -3 466.523 55.3954   5
   5   3  -3 497.914 76.9083   1
   5   3  -2 297.492 53.8005   2
   5   3  -2 315.114 46.9287   3
   5   3  -2 354.422 65.4106   6
   5   3  -2 348.673 47.7384   5
   5   3  -2 275.653 58.7402   1
   5   3  -1 213.319 39.3700   5
   5   3  -1 212.831 37.6125   3
   5   3  -1 253.083 51.3740   2
   5   3  -1 197.572 46.9684   6
   5   3  -1 237.114 56.8379   1
   5   3   0 115.741 49.8788   1
   5   3   0 154.512 30.8328   3
   5   3   0 122.230 38.0362   6
   5   3   1 37.3262 24.1057   1
   5   3   1 49.4149 25.4150   6
   5   3   1 61.4293 16.4443   3
   5   3   2 43.1710 21.0258   6
   5   3   2 35.0061 14.5013   3
  -5  -3  -2 38.9683 32.9624   5
   5   3   2 17.4262 22.1926   1
   5   3   3 55.8941 17.9675   6
  -5  -3  -3 96.3030 33.2547   5
   5   3   3 59.1420 18.8702   3
  -5  -3  -4 37.4931 28.4164   5
  -5  -3  -5 8.42802 25.1563   5
  -5  -3  -6 29.2915 27.0188   5
  -5  -3  -7 75.6960 52.6714   5
  -5  -3  -8-62.6667 50.6631   5
   5   4 -14-80.0944 32.2352   6
   5   4 -13 30.4477 31.1149   6
   5   4 -12 26.9760 24.0938   4
   5   4 -12-24.8623 39.9873   6
   5   4 -11 1.80717 25.7228   4
   5   4 -11-8.01132 27.1732   6
   5   4 -10 11.5738 19.2316   4
   5   4 -10 9.60443 24.9328   6
   5   4  -9 186.523 53.3120   4
   5   4  -9 239.120 74.6698   6
   5   4  -8 185.249 49.2515   4
   5   4  -8 220.890 65.0122   6
   5   4  -7 53.9309 32.3321   6
   5   4  -6 1899.29 164.187   6
   5   4  -5 81.2589 36.3088   6
   5   4  -4 29.7073 26.3446   6
   5   4  -4-15.0276 13.7955   5
   5   4  -3 19.7887 28.5387   1
   5   4  -3 8.42568 21.1555   6
   5   4  -3 4.86619 11.0932   5
   5   4  -2 14.8747 24.0975   1
   5   4  -2 30.9354 19.5888   3
   5   4  -2-5.54997 16.8630   6
   5   4  -2 7.03523 12.5606   5
   5   4  -1 443.499 55.4567   3
   5   4  -1 462.204 72.1791   6
   5   4  -1 465.162 83.5273   1
   5   4  -1 474.747 64.7133   5
   5   4   0 13.4909 21.5580   1
   5   4   0 33.7265 28.9639   6
   5   4   0-18.9000 19.0211   3
   5   4   1 97.5475 46.5786   1
   5   4   1 106.137 30.6649   6
   5   4   1 109.082 27.0408   3
   5   4   2 906.336 85.2165   6
   5   4   2 867.302 68.8751   3
   5   4   2 945.892 124.868   1
  -5  -4  -2 1134.97 115.804   5
   5   4   3 262.093 41.5267   6
  -5  -4  -3 336.548 68.0864   5
  -5  -4  -4 30.9085 21.2231   5
  -5  -4  -5-24.2781 26.5462   5
  -5  -4  -6 35.5800 23.3085   5
  -5  -4  -7 113.929 51.9389   5
   5   5 -13 23.0882 26.8546   4
   5   5 -13 31.1581 27.1563   6
   5   5 -12 95.9345 46.8713   4
   5   5 -12 132.195 59.8711   6
   5   5 -11 89.0943 47.4361   4
   5   5 -11 182.119 66.9403   6
   5   5 -10 9.03291 22.4563   4
   5   5 -10-45.1262 35.2098   6
   5   5  -9 1.13121 14.7739   4
   5   5  -9-46.4453 39.7417   6
   5   5  -8 333.618 76.0715   6
   5   5  -7 655.607 100.282   6
   5   5  -6 2070.09 175.756   6
   5   5  -5 130.962 46.8618   6
   5   5  -4 163.334 51.5943   6
   5   5  -4 69.0402 25.8348   5
   5   5  -3 45.6723 30.6748   6
   5   5  -3 48.3105 27.5250   1
   5   5  -3-13.3242 18.9286   5
   5   5  -2-6.62411 21.3308   1
   5   5  -2-5.94335 16.0034   6
   5   5  -2 8.48476 18.5035   5
   5   5  -1 10.1437 14.7818   5
   5   5  -1-14.0977 22.4958   6
   5   5  -1 8.03247 22.4086   1
   5   5   0 409.050 84.2198   1
   5   5   0 469.914 58.2449   3
   5   5   0 452.128 71.1464   6
   5   5   1 42.6247 34.7366   1
   5   5   1 14.1354 15.4999   6
   5   5   2 558.127 69.2348   6
   5   5   2 678.523 110.092   1
  -5  -5  -3 215.688 60.6885   5
  -5  -5  -4 47.7004 39.3060   5
  -5  -5  -5-45.7042 38.2195   5
  -5  -5  -6-48.8452 44.4683   5
   5   6 -12 301.225 81.8592   4
   5   6 -12 350.629 94.5978   6
   5   6 -11 31.3203 21.9496   4
   5   6 -11 93.6210 44.4064   6
   5   6 -10 1.52306 19.8940   4
   5   6 -10 27.0965 29.4158   6
   5   6  -9 37.4228 18.3830   6
   5   6  -8 20.0835 30.6810   6
   5   6  -7-7.85494 18.9735   6
   5   6  -6-30.8298 25.2997   6
   5   6  -5 19.9907 16.7389   6
   5   6  -4 90.0224 44.6153   6
   5   6  -3 450.545 78.5293   1
   5   6  -3 366.948 74.3031   6
   5   6  -2 17.7075 35.1724   1
   5   6  -2 13.7204 20.0462   6
   5   6  -1 214.006 66.6532   1
   5   6  -1 98.8330 35.5210   6
   5   6   0 34.2765 31.0766   1
   5   6   0 8.05085 13.5729   6
   5   6   1-4.47250 30.9957   1
   5   6   1 17.0591 12.1835   6
   5   6   2 45.7198 34.5362   1
   5   6   3-26.7110 29.8002   1
  -5  -6  -3-0.24454 17.9287   5
  -5  -6  -4-49.2385 28.3463   5
   5   7 -12-57.8334 43.6076   4
   5   7 -11 10.7715 18.9843   4
   5   7 -11-7.94361 32.6937   6
   5   7 -10 47.3151 22.5233   6
   5   7  -9 19.5069 25.6078   6
   5   7  -8 24.1643 28.9567   6
   5   7  -7 54.9627 33.0390   6
   5   7  -6 131.140 50.5595   6
   5   7  -5 22.7772 27.4242   6
   5   7  -4 102.495 45.3664   6
   5   7  -3 77.2185 42.6271   1
   5   7  -3 43.4610 30.3950   6
   5   7  -2 33.4943 32.6498   1
   5   7  -2-8.93447 22.0877   6
   5   7  -1-7.62171 19.9426   6
   5   7  -1 15.5426 31.0823   1
   5   7   0-86.5269 43.9159   1
   5   7   0-19.2531 27.8134   6
   5   7   1 59.8702 47.8837   1
   5   7   2 60.6180 47.7598   1
   5   7   3 105.532 70.4928   1
   5   8 -10 42.5873 36.8172   6
   5   8  -9-9.93407 26.5841   6
   5   8  -8-10.3462 19.0517   6
   5   8  -7-26.3785 33.6161   6
   5   8  -6 17.9618 30.3364   6
   5   8  -5 13.5766 25.9954   6
   5   8  -4 56.5075 36.9814   6
   5   8  -3 45.5512 36.4150   1
   5   8  -3 2.22721 23.5056   6
   5   8  -2-30.8556 29.6730   1
   5   8  -2 22.4238 25.3303   6
   5   8  -1-30.3972 25.6319   6
   5   8  -1-10.1675 30.9477   1
   5   8   0-73.0981 42.9916   1
   5   8   0-51.8050 36.4269   6
   5   8   1 8.72062 27.8309   1
   5   8   2 0.99911 24.2124   1
   5   9  -8 71.5431 42.0275   6
   5   9  -7 82.2361 45.6386   6
   5   9  -6 3.36651 21.7733   6
   5   9  -5-4.22579 33.1792   6
   5   9  -4 17.1219 25.7604   6
   5   9  -3 92.4910 49.5888   1
   5   9  -3-2.62561 39.5781   6
   5   9  -2 51.8203 49.0451   1
   5   9  -2-1.62399 36.2251   6
   5   9  -1 49.7211 37.7754   6
   5   9  -1-43.0614 35.0790   1
   5   9   0-158.565 59.9523   1
   5  10  -4-119.108 53.9491   6
   5  10  -3-30.1136 25.2614   6
   6 -11   1 29.3160 39.7950   3
   6 -11   2 124.315 48.1355   3
   6 -11   3 133.375 56.9827   3
   6 -11   4 75.4649 44.0736   3
   6 -11   5-0.70338 32.7552   3
   6 -11   6-47.4300 33.2994   3
   6 -11   7 17.1508 21.6919   3
   6 -11   8-155.942 47.8860   3
   6 -10  -2 105.132 51.3840   3
   6 -10  -1 62.2560 41.8954   3
   6 -10   0 38.8872 44.4693   3
   6 -10   1 54.1773 41.1827   3
   6 -10   2 42.2824 42.5814   3
   6 -10   3 133.644 52.5623   3
   6 -10   4 115.879 48.1858   3
   6 -10   5 0.62808 24.3482   3
   6 -10   6 3.50479 20.6360   3
   6 -10   7 5.16981 25.7712   3
   6 -10   8-20.0794 23.0936   3
   6  -9  -6 45.2098 40.2909   5
   6  -9  -5 2.41762 20.3161   5
   6  -9  -4 76.5867 51.2546   3
   6  -9  -3 228.772 69.2761   3
   6  -9  -2 136.052 50.2968   3
   6  -9  -1 55.6853 29.2296   3
   6  -9   0 69.2516 46.3063   3
   6  -9   1 82.3091 41.8414   3
   6  -9   2 35.5597 40.7363   3
   6  -9   3 60.0041 34.9613   3
   6  -9   4 13.2517 23.9341   3
   6  -9   5 66.0901 36.3526   3
   6  -9   6 173.644 46.2660   3
   6  -9   7 19.8842 26.3701   3
  -6   9  -8-24.4268 25.3073   4
   6  -9   8-6.90455 25.1677   3
  -6   9  -9 42.5781 31.2326   4
  -6   9  -9 99.0142 45.6269   2
   6  -8  -7 65.6043 42.5960   5
   6  -8  -6 35.8602 42.2821   3
   6  -8  -6 84.8741 56.3505   5
   6  -8  -5 92.7698 56.1967   3
   6  -8  -5 9.15487 37.2532   5
   6  -8  -4 64.0306 38.4021   3
   6  -8  -4 104.761 45.0687   5
   6  -8  -3 141.994 62.7548   3
   6  -8  -2 109.356 44.7844   3
   6  -8  -1 62.7892 30.0535   3
   6  -8   0-31.7842 32.8514   3
  -6   8   0-51.0106 34.5599   1
  -6   8  -1 68.3323 30.2637   1
  -6   8  -1 41.9192 19.4387   5
   6  -8   1 38.2990 33.7652   3
   6  -8   2 63.6255 39.5595   3
  -6   8  -2 39.7471 23.4393   5
   6  -8   3-7.99234 28.2328   3
  -6   8  -3 33.1595 18.3936   5
   6  -8   4 53.5084 28.5887   3
   6  -8   5 39.5106 24.7068   3
   6  -8   6 63.4058 32.6538   1
   6  -8   6 39.7544 20.6856   3
  -6   8  -7 44.7157 23.3253   4
  -6   8  -7 37.3005 32.2150   2
   6  -8   7 41.5650 37.9004   1
   6  -8   7 10.6423 17.2961   3
  -6   8  -8-5.17405 12.2584   4
  -6   8  -8 44.5325 28.9175   2
  -6   8  -9-22.2606 15.7475   4
  -6   8  -9-22.9106 29.2414   2
   6  -7  -8 27.4857 48.6170   5
   6  -7  -7-23.6913 43.4367   3
   6  -7  -7 11.3382 26.6033   5
   6  -7  -6 39.7480 40.7666   6
   6  -7  -6-36.9532 53.4834   3
   6  -7  -6 32.1239 20.9268   5
   6  -7  -5 3.99046 25.7690   3
   6  -7  -5 93.6664 50.2227   6
   6  -7  -5 28.6003 28.4970   5
   6  -7  -4-12.7982 37.0495   3
   6  -7  -4 49.6778 43.6227   6
   6  -7  -4 48.0732 31.9407   5
   6  -7  -3-23.1760 38.9890   3
   6  -7  -3 74.6955 39.7178   6
   6  -7  -3-4.06439 21.7962   5
   6  -7  -2 46.2219 42.3366   6
   6  -7  -2-66.2300 46.2351   3
   6  -7  -1 65.5160 35.1256   3
  -6   7   1 113.144 38.9463   1
   6  -7   0-21.4067 30.0765   3
  -6   7   0 3.14805 21.5627   1
   6  -7   1-45.8033 30.4614   3
  -6   7  -1 3.26271 19.2596   1
   6  -7   2-45.8633 32.4829   3
   6  -7   3-16.2733 21.2225   3
   6  -7   4 45.6558 31.2306   3
  -6   7  -4 23.4926 18.1689   5
  -6   7  -5 12.5127 21.2777   2
   6  -7   5 61.9582 37.5944   1
   6  -7   5 28.1835 22.6861   3
  -6   7  -6 51.3031 23.6423   4
   6  -7   6 17.2900 21.6054   1
  -6   7  -6 18.5899 21.1599   2
   6  -7   6-3.72829 13.0510   3
  -6   7  -7 3.06355 18.0284   4
  -6   7  -7-19.2328 22.7813   2
   6  -7   7 32.8431 23.7408   3
   6  -7   7-16.3432 22.9844   1
  -6   7  -8 8.34726 18.2956   4
  -6   7  -8 6.78758 23.0332   2
   6  -7   8-26.4209 27.1335   1
  -6   7  -9 23.3240 29.4468   2
   6  -7   9 29.9313 34.2271   1
   6  -6  -9 3.36477 31.0336   6
   6  -6  -9-19.3545 24.1464   5
   6  -6  -8 142.418 66.6676   6
   6  -6  -8 96.0898 45.3539   5
   6  -6  -7 127.940 59.0272   6
   6  -6  -7 22.8007 23.2795   5
   6  -6  -6 44.7540 36.5059   6
   6  -6  -6 65.6980 34.7244   5
   6  -6  -5 97.3471 47.7169   6
   6  -6  -5 81.7457 34.9161   5
   6  -6  -4 14.9790 24.0354   6
   6  -6  -4 41.3149 33.5424   5
   6  -6  -3 2.74375 18.5098   6
   6  -6  -3 38.0151 17.8980   5
   6  -6  -2 19.3375 25.3020   6
  -6   6   1 356.488 63.3212   1
   6  -6  -1 438.575 81.9429   6
  -6   6   1 237.370 19.0616   2
  -6   6   0 118.329 21.2740   2
   6  -6   0 101.300 49.3913   6
  -6   6   0 68.0079 28.4511   1
  -6   6  -1 19.8417 12.9013   5
   6  -6   1 55.7784 41.8254   6
   6  -6   1-10.0908 38.3176   3
  -6   6  -1 23.4769 14.1726   2
  -6   6  -1-9.25083 25.8475   1
   6  -6   2 1.03664 19.6880   3
  -6   6  -2 48.2649 23.1411   2
  -6   6  -2 7.25326 9.11788   5
   6  -6   3 179.331 48.0759   3
  -6   6  -3 240.128 48.1052   2
  -6   6  -3 199.505 35.3388   5
   6  -6   4 77.6229 33.6789   3
  -6   6  -4 57.8791 20.5609   4
  -6   6  -4 62.5218 29.8380   2
   6  -6   4 38.3331 26.7643   1
  -6   6  -5 22.2267 14.9415   4
   6  -6   5 6.18474 21.3105   1
  -6   6  -5 35.2868 28.2707   2
   6  -6   5 51.0599 25.2663   3
  -6   6  -6-4.11464 11.2882   4
  -6   6  -6 16.0588 27.1897   2
   6  -6   6 12.2547 35.4467   1
   6  -6   6 72.4936 29.2604   3
  -6   6  -7 40.3423 24.5622   4
  -6   6  -7-21.2842 34.5914   2
   6  -6   7 5.87357 11.3703   3
  -6   6  -8 4.97081 28.3600   2
   6  -6   8 24.9080 22.5215   1
  -6   6  -9-27.1335 34.4839   2
   6  -6   9 22.5771 29.0558   1
   6  -6  10 89.5494 47.6434   1
   6  -5 -10 47.6598 41.8503   6
   6  -5 -10 10.4726 33.6218   5
   6  -5  -9-19.9918 38.6996   6
   6  -5  -9 63.3320 42.2696   5
   6  -5  -8-26.5976 40.9135   6
   6  -5  -8-9.93166 24.0825   5
   6  -5  -7 131.447 52.8075   6
   6  -5  -7 146.815 52.7935   5
   6  -5  -6 38.5217 28.1729   6
   6  -5  -6-15.1575 33.6894   5
  -6   5   5 1011.51 103.280   4
   6  -5  -5 929.553 121.073   6
   6  -5  -5 1017.24 110.538   5
   6  -5  -4 97.3354 43.1149   6
   6  -5  -4 88.1696 30.7866   5
   6  -5  -3 45.0488 31.4871   6
   6  -5  -3 27.4030 18.7127   5
   6  -5  -2 24.2610 24.3047   6
   6  -5  -1-22.2416 26.2685   6
  -6   5   1-8.18058 21.7467   1
  -6   5   0 23.4638 16.2542   1
   6  -5   0 131.452 47.6989   6
  -6   5   0 51.1237 13.5826   2
  -6   5  -1 248.037 36.2525   2
   6  -5   1 355.911 66.6362   6
  -6   5  -1 286.255 53.8795   1
  -6   5  -1 254.189 31.6282   5
   6  -5   2 614.492 85.4078   6
   6  -5   2 405.756 61.6537   3
  -6   5  -2 400.503 52.5531   2
  -6   5  -2 487.259 44.8790   5
  -6   5  -3 251.863 34.3180   4
  -6   5  -3 247.474 47.6710   2
   6  -5   3 278.730 50.2525   3
   6  -5   3 263.303 56.5196   1
  -6   5  -4 36.7656 15.9821   4
  -6   5  -4 15.1752 23.4858   2
   6  -5   4 35.7868 21.8400   3
   6  -5   4 40.4746 31.4016   1
  -6   5  -4 8.65778 22.0728   6
   6  -5   5 75.7261 26.9132   3
  -6   5  -5 17.5752 14.2487   4
  -6   5  -5 27.8232 28.7132   2
  -6   5  -5 26.5292 21.7341   6
   6  -5   5 6.67853 19.5998   1
  -6   5  -6 46.3117 30.9111   2
   6  -5   6-4.53070 21.6693   1
  -6   5  -6 64.6199 31.1806   6
   6  -5   6 10.0863 14.9668   3
  -6   5  -7 24.4113 30.8555   2
   6  -5   7 20.7036 32.0982   1
  -6   5  -8 19.3591 37.3636   2
   6  -5   8 46.0631 41.2200   1
   6  -5   9 10.9207 33.8998   1
  -6   5  -9 57.9071 39.7397   2
   6  -4 -10-29.0490 27.8043   5
   6  -4 -10-18.4702 45.3448   6
   6  -4  -9 6.30158 29.1229   5
   6  -4  -9-10.9888 25.6670   6
   6  -4  -8-15.2228 21.9489   5
   6  -4  -8-33.7040 47.6075   6
   6  -4  -7 3.72362 20.0532   5
   6  -4  -7-42.7686 44.2132   6
   6  -4  -6 657.619 101.288   6
   6  -4  -6 725.824 94.1655   5
  -6   4   5 1222.12 105.745   4
   6  -4  -5 1144.75 128.181   6
   6  -4  -5 1302.80 113.765   5
   6  -4  -4-19.0191 29.5816   6
   6  -4  -4 10.3553 12.2075   5
  -6   4   3 147.852 30.2167   4
   6  -4  -3 143.955 41.5637   6
   6  -4  -3 177.417 33.3701   5
   6  -4  -2-2.38523 19.2665   6
   6  -4  -1-2.84977 30.4086   6
  -6   4   1 57.6977 34.9117   1
  -6   4   0 149.580 43.8600   1
   6  -4   0 138.811 40.7551   6
  -6   4   0 135.616 22.4989   2
  -6   4  -1 177.432 16.9353   4
  -6   4  -1 254.508 41.0005   2
   6  -4   1 363.140 64.8361   6
  -6   4  -1 256.853 52.3696   6
  -6   4  -2 434.855 72.0460   6
   6  -4   2 464.874 69.2768   6
   6  -4   2 410.796 71.8978   1
  -6   4  -2 400.517 32.3439   5
  -6   4  -2 316.869 50.4168   2
   6  -4   3 1787.05 128.596   6
  -6   4  -3 1580.17 133.588   6
   6  -4   3 1568.00 110.152   3
  -6   4  -3 1492.98 119.295   2
   6  -4   3 1534.89 135.983   1
   6  -4   4 281.110 43.7770   3
  -6   4  -4 481.848 71.9903   6
   6  -4   4 327.735 68.2542   1
  -6   4  -4 327.223 63.7256   2
   6  -4   5 11.3319 13.1794   3
   6  -4   5-10.5802 22.7849   1
  -6   4  -5 26.4427 21.2580   6
  -6   4  -5 14.2679 22.8555   2
   6  -4   6-16.5895 38.8194   1
   6  -4   6-1.50231 7.58592   3
  -6   4  -6-16.7992 23.2996   2
   6  -4   7-22.6622 26.7247   1
  -6   4  -7 34.6130 24.2878   2
   6  -4   8 0.25090 32.5630   1
  -6   4  -8 80.5980 48.7740   2
  -6   4  -9-0.94985 35.8266   2
   6  -3 -11 118.783 42.5931   6
   6  -3 -10 33.5823 29.0772   6
   6  -3  -9-30.0354 45.2060   6
   6  -3  -8 138.159 51.6680   6
   6  -3  -7 161.406 57.7535   6
  -6   3   6 905.151 92.7408   4
   6  -3  -6 933.164 123.197   6
   6  -3  -6 999.780 105.027   5
   6  -3  -5 881.278 113.237   6
   6  -3  -5 807.592 84.0443   5
  -6   3   4 3.10786 10.7869   4
   6  -3  -4 29.2488 34.1565   6
   6  -3  -4-5.31164 10.6467   5
  -6   3   3 226.484 30.9357   4
   6  -3  -3 161.633 52.9668   6
   6  -3  -3 272.537 34.9538   5
   6  -3  -2 316.646 66.8030   6
  -6   3   1 122.074 46.2845   1
   6  -3  -1 148.147 42.1785   6
  -6   3   0 242.316 35.2128   2
   6  -3   0 192.732 42.6699   6
  -6   3   0 347.578 60.8478   6
  -6   3   0 307.943 60.3873   1
   6  -3   1 668.248 81.1741   6
  -6   3  -1 761.739 90.2338   6
  -6   3  -1 581.747 62.5731   2
   6  -3   1 708.013 93.3709   1
   6  -3   2 90.2439 35.3263   1
   6  -3   2 48.1294 22.9737   6
  -6   3  -2 83.3502 38.6977   6
  -6   3  -2 47.3916 24.6474   2
   6  -3   3 1762.04 121.402   6
  -6   3  -3 1709.95 127.547   6
  -6   3  -3 2011.29 144.046   2
   6  -3   3 2076.40 166.707   1
   6  -3   4 237.155 37.3005   3
   6  -3   4 227.138 58.0609   1
  -6   3  -4 238.494 56.3421   2
   6  -3   5 18.9745 13.5091   3
   6  -3   5 11.0565 34.3796   1
  -6   3  -5 2.71297 17.6727   2
  -6   3  -6 85.0986 48.2470   2
   6  -3   6 23.3398 26.5648   1
   6  -3   7 22.3202 21.7504   1
  -6   3  -7 34.7284 28.0948   2
  -6   3  -8 17.2297 33.5382   2
  -6   3  -9-1.00016 36.8806   2
   6  -2 -12 26.9269 37.0605   6
   6  -2 -11 171.882 74.1771   6
   6  -2 -10 46.5197 53.7262   6
   6  -2  -9 104.555 50.0541   6
   6  -2  -8 0.37591 21.7311   6
   6  -2  -7 35.1712 26.7773   6
   6  -2  -6 38.3359 31.1141   6
   6  -2  -5 424.994 77.1742   6
   6  -2  -4 356.666 70.5631   6
   6  -2  -4 469.950 48.6589   5
   6  -2  -3 870.849 104.736   6
   6  -2  -3 815.983 46.6643   5
   6  -2  -2 54.9501 27.2459   6
  -6   2   1-12.6402 21.2546   1
   6  -2  -1 18.5483 22.3782   6
  -6   2   1-7.16132 14.3406   6
   6  -2   0 93.4828 34.0966   6
   6  -2   0 60.9194 32.1093   1
  -6   2   0 67.1686 26.5846   6
   6  -2   1 232.633 49.3468   6
  -6   2  -1 168.427 37.1804   2
  -6   2  -1 210.289 45.7842   6
   6  -2   1 221.827 54.4837   1
   6  -2   2-2.90844 24.5062   6
  -6   2  -2 3.04228 12.8017   2
  -6   2  -2-7.85082 17.2141   6
   6  -2   2 24.9587 31.1174   1
  -6   2  -2 19.5054 6.65746   5
   6  -2   3 251.337 46.4948   6
   6  -2   3 285.546 66.8017   1
  -6   2  -3 236.925 56.1405   2
  -6   2  -3 216.122 31.3599   5
   6  -2   4 20.9943 30.7840   1
   6  -2   4-7.53578 18.0512   3
   6  -2   4 59.0546 25.7451   6
  -6   2  -4 37.8573 31.5900   2
   6  -2   5 13.7833 8.60531   3
  -6   2  -5 49.0479 36.2570   2
   6  -2   5 28.0001 32.3018   1
   6  -2   6-20.9596 19.4004   1
  -6   2  -6-6.65991 19.8357   2
  -6   2  -7 39.6703 37.0753   2
  -6   2  -8-53.8274 39.7419   2
   6  -1 -12 76.0924 48.2808   6
   6  -1 -11 83.6761 55.4536   6
   6  -1 -10 23.3356 39.1611   6
   6  -1  -9-7.21466 23.7778   6
   6  -1  -8 288.415 35.0923   2
   6  -1  -8 347.429 76.7657   6
   6  -1  -7 24.8493 22.5721   6
   6  -1  -7 30.6563 9.27815   2
   6  -1  -6 3.91819 3.33467   2
   6  -1  -6-34.8389 32.4600   6
   6  -1  -5-57.3135 33.4447   6
   6  -1  -4-5.48900 24.0136   6
   6  -1  -4 7.77181 5.78666   2
   6  -1  -3 69.9626 12.0437   5
   6  -1  -3 107.369 18.3485   2
   6  -1  -3 40.5379 19.3569   6
   6  -1  -2 107.390 21.9476   2
   6  -1  -2 82.2116 32.1877   6
  -6   1   2 145.879 40.7764   6
   6  -1  -1 29.7596 16.2074   2
   6  -1  -1-23.8472 25.8926   6
  -6   1   1 21.0653 21.3420   6
   6  -1  -1 28.7319 26.4947   1
   6  -1   0 49.0558 35.9091   1
   6  -1   0 44.0468 21.8381   2
   6  -1   0-5.35946 15.0565   6
  -6   1   0-7.81810 20.8384   6
   6  -1   1 55.9616 35.2589   1
   6  -1   1 45.7915 24.4763   2
   6  -1   1 85.1812 32.9289   6
  -6   1  -1 37.3437 19.9041   6
   6  -1   2 37.4038 26.8020   6
  -6   1  -2-6.46919 23.6148   2
   6  -1   2 17.2960 22.0205   1
  -6   1  -2 7.55403 7.32307   5
   6  -1   3-35.7632 32.3529   1
   6  -1   3-5.96822 13.3054   3
   6  -1   3-17.2136 19.9980   6
  -6   1  -3 10.9265 15.0891   2
  -6   1  -3 4.86364 8.15125   5
  -6   1  -4 18.5942 15.6493   5
   6  -1   4 15.1910 13.8456   6
   6  -1   4 21.7936 11.7579   3
  -6   1  -4 15.6654 20.5795   2
  -6   1  -4 12.2339 9.55090   6
   6  -1   4 25.3297 19.5908   1
  -6   1  -5 2.39584 15.7352   5
  -6   1  -5 14.7501 30.0306   2
   6  -1   5-0.10818 21.5082   1
  -6   1  -6-5.37088 26.0339   2
  -6   1  -7 12.5596 20.9615   2
  -6   1  -8-50.1631 43.2445   2
   6   0 -12 14.2878 36.4827   6
   6   0 -11-17.4003 25.9569   6
   6   0 -10 85.8269 47.1879   6
   6   0  -9 52.7985 22.5604   2
   6   0  -9 47.0869 25.3480   6
   6   0  -8 113.157 48.3828   6
   6   0  -7-33.5546 35.6418   6
   6   0  -6-26.6121 32.4270   6
   6   0  -5 284.800 66.3045   6
   6   0  -4 267.344 35.8415   2
   6   0  -4 219.996 56.1103   6
   6   0  -3 301.579 41.3975   2
   6   0  -3 246.809 58.7433   6
   6   0  -3 272.219 24.8448   5
   6   0  -2-42.0824 31.9529   6
  -6   0   2-14.4292 21.2985   6
   6   0  -2 17.4549 18.1436   2
   6   0  -1-6.06778 29.1431   6
  -6   0   1 63.7485 26.2161   6
   6   0  -1 45.8396 42.2348   1
   6   0  -1 38.8604 21.5627   2
   6   0   0 172.519 42.3515   2
   6   0   0 92.5786 39.3308   1
   6   0   0 86.7544 21.7377   6
  -6   0   0 150.363 38.3826   6
   6   0   1 41.6677 12.4479   4
   6   0   1 35.3601 16.4333   2
   6   0   1 70.1737 23.3690   3
   6   0   1 13.8453 13.2104   6
  -6   0  -1 60.5040 24.5913   6
   6   0   1-18.8930 34.6855   1
   6   0   2 47.5668 15.9430   4
   6   0   2 36.4990 31.9416   1
   6   0   2 46.4152 15.1888   3
   6   0   2 66.6463 24.9734   6
  -6   0  -2 25.7275 14.9933   5
   6   0   3 18.6672 25.1392   1
   6   0   3 68.0855 24.5848   4
   6   0   3 54.9151 17.4207   6
   6   0   3 21.4539 11.9956   3
  -6   0  -3 24.4411 16.9844   5
   6   0   4 72.9415 28.0605   4
   6   0   4 13.9797 10.0540   6
  -6   0  -4 51.7309 29.1126   2
   6   0   4 30.6173 24.9443   1
  -6   0  -4 36.0518 20.6384   5
  -6   0  -5 23.1504 26.7092   2
   6   0   5 21.6869 29.9788   1
  -6   0  -5 20.7222 22.6477   5
  -6   0  -6 3.12929 28.2144   2
  -6   0  -6 20.7170 21.0697   5
  -6   0  -7-3.00766 18.1015   5
  -6   0  -7 35.0802 30.4103   2
   6   1 -13 35.7980 27.9108   6
   6   1 -12-21.1278 46.2902   6
   6   1 -11 21.7282 38.8825   6
   6   1 -10-14.3011 31.3846   6
   6   1  -9 195.805 57.8882   6
   6   1  -8 34.3761 28.2676   6
   6   1  -7 181.088 54.1955   6
   6   1  -6 90.1645 29.1806   4
   6   1  -6 87.2929 38.5740   6
   6   1  -5 482.247 57.1938   4
   6   1  -5 389.491 77.3769   6
   6   1  -4 0.73223 7.41150   4
   6   1  -4 36.9829 28.2730   6
   6   1  -3 27.3008 13.7000   4
   6   1  -3 14.3952 22.6277   6
   6   1  -3 5.39480 12.5862   2
   6   1  -3 34.1762 12.9656   5
   6   1  -2 307.821 50.0351   3
  -6  -1   2 378.301 61.4947   6
   6   1  -2 364.843 69.2979   6
   6   1  -2 331.803 51.3381   2
   6   1  -2 381.516 72.9235   1
   6   1  -1 112.741 29.8077   3
   6   1  -1 115.045 38.5432   6
  -6  -1   1 129.672 36.9691   6
   6   1  -1 146.196 40.4583   2
   6   1  -1 116.259 43.0337   1
   6   1   0 442.637 84.6821   1
   6   1   0 578.866 62.5584   3
   6   1   0 465.964 73.3335   6
  -6  -1   0 542.541 69.8739   6
   6   1   0 489.117 70.9664   2
   6   1   1 146.268 34.8860   3
   6   1   1 39.9050 14.6144   6
   6   1   1 101.488 44.8794   1
   6   1   2-8.11469 10.2815   4
   6   1   2 6.79044 19.3965   1
   6   1   2-21.8671 20.1959   6
   6   1   2 31.7773 16.3817   3
  -6  -1  -2 10.0657 11.6085   5
   6   1   3 25.0659 28.5761   1
   6   1   3 31.6764 18.8282   4
   6   1   3 31.9755 15.6202   6
   6   1   3 27.4862 12.7565   3
  -6  -1  -3 24.7016 15.9826   5
   6   1   4-23.5961 18.7531   1
  -6  -1  -4-10.7638 17.4671   5
  -6  -1  -5 50.7237 30.4373   5
  -6  -1  -6-5.45126 19.9451   5
  -6  -1  -7-0.33425 17.1080   5
   6   2 -13-7.01007 47.1606   6
   6   2 -12 16.9052 32.4682   6
   6   2 -11 5.97130 37.4974   6
   6   2 -10 70.8806 48.3801   6
   6   2  -9 58.7984 47.9366   6
   6   2  -8 130.413 47.6566   4
   6   2  -8 73.5417 28.5862   6
   6   2  -7 324.784 61.2480   4
   6   2  -7 297.624 72.2810   6
   6   2  -6 323.146 54.6927   4
   6   2  -6 360.638 76.2113   6
   6   2  -5 123.078 31.0380   4
   6   2  -5 152.901 47.3249   6
   6   2  -4 24.6967 21.4338   6
   6   2  -3 31.2704 19.2995   2
   6   2  -3 33.5028 25.7928   6
   6   2  -3 66.1883 20.4166   5
   6   2  -2 56.1196 17.5306   5
   6   2  -2 136.860 36.8541   3
   6   2  -2 59.2901 30.5997   6
   6   2  -2 38.4016 18.5710   2
   6   2  -2 63.8936 38.4063   1
   6   2  -1-12.8693 22.3671   3
   6   2  -1 50.6459 35.2647   1
   6   2  -1 23.0568 21.4382   6
   6   2  -1 12.2629 12.8010   2
   6   2   0 558.462 61.5265   3
   6   2   0 552.474 78.7627   6
   6   2   0 602.164 101.067   1
   6   2   1 25.0462 29.0815   1
   6   2   1 55.6854 28.4624   6
   6   2   1 47.7215 17.0646   3
   6   2   2 7.38323 20.0188   1
   6   2   2-13.0999 18.6538   6
   6   2   2-0.73985 9.81713   3
  -6  -2  -2 4.75711 14.0903   5
   6   2   3-2.77843 11.5913   4
   6   2   3 26.1962 14.3950   6
  -6  -2  -3 41.4392 20.5793   5
   6   2   3 23.9923 42.0361   1
   6   2   4 36.5900 24.6385   1
  -6  -2  -4 13.2175 19.7793   5
  -6  -2  -5-0.09105 21.9547   5
  -6  -2  -6 52.0546 35.5324   5
   6   3 -13 90.8462 47.5208   6
   6   3 -12 233.541 82.8230   6
   6   3 -11 85.0917 43.3075   6
   6   3 -10-3.64566 23.5579   4
   6   3 -10 65.1507 41.1982   6
   6   3  -9 39.0054 30.3947   4
   6   3  -9 82.5441 46.7180   6
   6   3  -8 461.160 77.6312   4
   6   3  -8 550.058 102.228   6
   6   3  -7 690.805 88.1736   4
   6   3  -7 714.385 112.776   6
   6   3  -6 1477.16 155.538   6
   6   3  -5 371.808 74.0833   6
   6   3  -4-4.83251 20.8010   6
   6   3  -4 24.1539 14.5863   5
   6   3  -3 93.7430 33.9998   2
   6   3  -3 51.5857 31.3636   6
   6   3  -3 64.3723 39.7102   1
   6   3  -3 58.4959 22.7258   5
   6   3  -2 151.257 32.3436   5
   6   3  -2 114.028 47.9100   1
   6   3  -2 130.891 46.2744   6
   6   3  -1-0.10905 31.1103   1
   6   3  -1 0.85117 15.4364   3
   6   3  -1 20.6085 19.1212   6
   6   3   0 193.141 49.7019   6
   6   3   0 163.495 34.2629   3
   6   3   0 168.935 56.8855   1
   6   3   1-27.1902 41.0826   1
   6   3   1-19.2839 15.6254   6
   6   3   1-0.90417 14.3491   3
   6   3   2 60.5223 38.1721   1
   6   3   2 51.8445 22.1412   6
  -6  -3  -3 61.5825 31.5845   5
   6   3   3 64.2592 40.8502   1
   6   3   4 20.6653 22.6726   1
  -6  -3  -4 29.9506 26.2907   5
  -6  -3  -5 69.3936 28.1507   5
  -6  -3  -6 15.7197 27.1312   5
   6   4 -12-39.6683 23.5890   4
   6   4 -12-3.01384 24.7948   6
   6   4 -11 67.4110 37.8208   4
   6   4 -11-40.4019 43.4381   6
   6   4 -10-10.7949 27.0209   4
   6   4 -10 92.3896 45.3291   6
   6   4  -9 84.0589 39.3877   4
   6   4  -9 3.81136 22.5297   6
   6   4  -8 4.95517 15.2393   4
   6   4  -8-14.7528 25.4007   6
   6   4  -7 216.909 62.5767   6
   6   4  -6-4.87730 28.2467   6
   6   4  -5 615.466 102.451   6
   6   4  -5 623.838 80.3184   5
   6   4  -4 25.6407 33.8211   6
   6   4  -4-13.9753 19.0785   5
   6   4  -3 29.6734 25.8175   1
   6   4  -3-2.41670 25.5344   6
   6   4  -3 0.47647 12.1021   5
   6   4  -2 3.48298 23.2277   6
   6   4  -2-17.5245 26.7393   1
   6   4  -1 61.7155 32.1032   1
   6   4  -1 12.8091 20.2622   6
   6   4   0 79.0150 30.4248   6
   6   4   0 49.2739 36.2014   1
   6   4   1 91.3824 49.6325   1
   6   4   1 38.8307 23.0161   6
   6   4   2 52.8978 39.3994   1
   6   4   2 3.53921 10.4912   6
  -6  -4  -3-9.39131 22.1614   5
   6   4   3-21.0609 28.2858   1
  -6  -4  -4 55.0446 33.2261   5
   6   4   4 60.1199 42.8270   1
  -6  -4  -5 44.6806 26.5276   5
   6   5 -13 108.375 65.8330   4
   6   5 -12 321.887 79.6768   4
   6   5 -12 114.027 52.2477   6
   6   5 -11 5.70096 19.0222   4
   6   5 -11 11.4629 30.1545   6
   6   5 -10 15.9070 16.3922   4
   6   5 -10-9.89132 26.0320   6
   6   5  -9-31.7485 33.9355   4
   6   5  -9 10.7350 33.6813   6
   6   5  -8 106.829 50.9411   6
   6   5  -7 220.942 70.2281   6
   6   5  -6-35.6343 34.8171   6
   6   5  -5 48.0870 29.2537   6
   6   5  -5 35.2157 24.9209   5
   6   5  -4 63.7172 32.5234   6
   6   5  -4 75.5406 33.7344   5
   6   5  -3-37.9215 34.1661   1
   6   5  -3-5.11890 29.3209   6
   6   5  -3 38.4003 19.0865   5
   6   5  -2 170.018 54.6526   6
   6   5  -2 162.131 55.9807   1
   6   5  -1 39.9387 39.8497   1
   6   5  -1-13.8349 21.7983   6
   6   5   0-23.3482 35.8883   1
   6   5   0 4.29083 17.9799   6
   6   5   1-5.09428 25.2122   1
   6   5   1 8.47561 13.7226   6
   6   5   2 31.7539 38.4676   1
   6   5   3 21.7056 26.9977   1
  -6  -5  -4 50.5302 31.4813   5
   6   6 -12 52.7385 20.2375   4
   6   6 -11 119.310 44.9094   4
   6   6 -11 61.5461 52.7776   6
   6   6 -10 17.2896 23.2049   4
   6   6 -10 44.6393 37.5706   6
   6   6  -9-32.3917 26.6735   6
   6   6  -8 45.4598 28.8162   6
   6   6  -7 25.2826 32.0848   6
   6   6  -6 22.2112 19.5110   6
   6   6  -5 4.18229 21.5530   6
   6   6  -4 26.6176 22.3686   6
   6   6  -3 155.339 54.9160   6
   6   6  -3 93.1282 46.4311   1
   6   6  -2 54.9334 38.3879   6
   6   6  -2-3.95740 28.8516   1
   6   6  -1 32.6973 26.9046   1
   6   6  -1-4.15955 17.3115   6
   6   6   0 16.5411 28.7698   1
   6   6   0 33.2039 21.6036   6
   6   6   1-10.2188 33.2348   1
   6   6   2-34.3988 34.6627   1
   6   7 -12 167.642 55.5504   4
   6   7 -11 82.6843 44.3635   4
   6   7 -10-9.27905 30.5685   6
   6   7  -9 36.4215 24.2426   6
   6   7  -8-2.71314 27.5252   6
   6   7  -7-2.08499 27.9834   6
   6   7  -6 11.3879 31.0713   6
   6   7  -5 121.381 52.5195   6
   6   7  -4-42.3116 38.7182   6
   6   7  -3 89.4591 42.9402   6
   6   7  -3 163.428 63.3668   1
   6   7  -2 164.263 57.0688   6
   6   7  -2 27.3700 23.4457   1
   6   7  -1 19.2361 37.4428   1
   6   7  -1 29.7672 25.4876   6
   6   7   0 63.0353 51.4629   1
   6   7   1-4.15174 32.1993   1
   6   8  -8 12.3902 24.3053   6
   6   8  -7 7.39042 41.5206   6
   6   8  -6 30.5630 28.9938   6
   6   8  -5-55.6317 48.2955   6
   6   8  -4 5.72308 26.4275   6
   6   8  -3 66.3660 54.1213   1
   6   8  -3 43.9794 28.9311   6
   6   8  -2-90.8513 43.9568   6
   6   8  -2 28.8368 50.6405   1
   6   8  -1 48.3029 39.6093   1
   6   8   0-37.3137 35.1123   1
   6   9  -5-35.4754 39.3840   6
   6   9  -4 93.8777 49.7620   6
   6   9  -3 45.1413 23.0788   6
   7 -11   4 145.426 58.4974   3
   7 -11   5-17.4131 26.0904   3
   7 -11   6 12.0950 27.8741   3
   7 -11   7 29.5207 21.8942   3
   7 -10   0 9.87826 31.5785   3
   7 -10   1 67.8954 51.0079   3
   7 -10   2 127.593 61.5084   3
   7 -10   3 16.8077 40.7397   3
   7 -10   4 79.8210 44.6896   3
   7 -10   5 2.09970 34.6144   3
   7 -10   6 75.1924 41.7452   3
  -7  10  -7 21.1575 22.6849   2
   7 -10   7-16.1118 21.6588   3
  -7  10  -8-6.03138 25.5478   2
   7  -9  -3 18.8915 39.7933   3
   7  -9  -2 16.0383 31.1877   3
   7  -9  -1 17.2320 29.8341   3
   7  -9   0-8.49148 43.1335   3
   7  -9   1 23.2681 28.0567   3
   7  -9   2-49.5783 33.5206   3
   7  -9   3 43.7978 33.8561   3
   7  -9   4-2.60604 26.8762   3
  -7   9  -5-2.77920 18.0099   2
   7  -9   5 2.05429 20.2593   3
  -7   9  -6-1.39883 16.6966   2
   7  -9   6 52.4372 28.8878   3
  -7   9  -7 29.8250 27.6544   2
   7  -9   7 10.6091 17.6472   3
  -7   9  -8 2.91328 20.8839   2
   7  -8  -6-49.3262 39.7931   5
   7  -8  -5-61.1379 48.1242   5
   7  -8  -4-35.3473 31.4714   3
   7  -8  -3-2.88974 38.7041   3
   7  -8  -2 52.6970 37.1513   3
   7  -8  -1 77.2243 48.0104   3
   7  -8   0 105.287 47.1461   3
   7  -8   1 82.7961 42.1237   3
   7  -8   2 37.9412 35.7258   3
  -7   8  -2 34.6557 19.7919   2
   7  -8   3-4.38796 31.4350   3
  -7   8  -3 4.48959 17.4015   2
   7  -8   4 40.1058 33.2329   3
  -7   8  -4 7.58457 13.0882   2
  -7   8  -5 27.2634 28.0048   2
   7  -8   5 81.0482 38.3467   3
  -7   8  -6 29.4735 35.1461   2
   7  -8   6 71.4416 32.8372   3
   7  -8   6 51.6885 40.4396   1
  -7   8  -7-50.6329 36.6772   2
  -7   8  -8 0.12580 18.4804   2
   7  -7  -7 0.27924 24.4212   5
   7  -7  -6 63.2740 46.5095   6
   7  -7  -6 39.5148 37.1461   5
   7  -7  -5 94.1820 52.2076   6
   7  -7  -5-26.6906 26.8942   5
   7  -7  -4 148.261 60.1126   6
   7  -7  -4 19.2837 15.9629   5
   7  -7  -3 8.06785 38.0981   6
   7  -7  -2 71.2494 39.3561   6
   7  -7  -1-20.1667 32.9311   3
   7  -7  -1 59.8991 51.0401   6
   7  -7   0 249.449 68.3002   6
   7  -7   0 110.286 44.1716   3
  -7   7  -1 74.4622 20.3100   2
   7  -7   1 98.1928 32.9699   3
  -7   7  -2-2.40598 11.5170   2
   7  -7   2 26.6328 27.7435   3
   7  -7   3-60.6213 35.6713   3
  -7   7  -3-3.05255 12.8375   2
   7  -7   4 25.3512 18.3873   3
  -7   7  -4 27.3355 21.6637   2
  -7   7  -4 9.04465 11.0131   4
  -7   7  -5-5.14166 16.9452   2
   7  -7   5 4.82886 30.4362   1
   7  -7   5 40.4673 25.5956   3
  -7   7  -6 68.5267 38.3422   2
   7  -7   6 31.6459 28.1671   1
   7  -7   6 89.4579 32.5091   3
  -7   7  -7 44.6481 25.3827   2
   7  -7   7 6.07647 23.0157   1
  -7   7  -8-24.0723 28.2674   2
   7  -7   8-21.9593 29.2666   1
   7  -6  -8 77.1003 51.0559   6
   7  -6  -8 78.0872 54.8546   5
   7  -6  -7 148.087 67.2321   6
   7  -6  -7-1.33813 25.9563   5
   7  -6  -6 266.768 74.4751   6
   7  -6  -6 179.314 54.5541   5
   7  -6  -5 96.0040 50.1034   6
   7  -6  -5 99.6384 36.8990   5
   7  -6  -4 43.4196 30.2602   6
   7  -6  -4 66.3455 25.5410   5
   7  -6  -3 0.34599 30.4806   6
   7  -6  -2 118.895 50.7468   6
   7  -6  -1 20.5631 27.4250   6
   7  -6   0 87.9628 44.6200   6
  -7   6   0 11.6034 6.03101   2
   7  -6   1 258.659 66.9341   6
  -7   6  -1 236.695 35.8693   2
   7  -6   2 31.8839 29.5767   3
  -7   6  -2 10.9287 16.4462   2
  -7   6  -3 11.4513 12.4440   2
  -7   6  -3 11.6079 11.2436   4
   7  -6   3-28.0864 28.0669   3
  -7   6  -4 27.6612 25.4796   2
  -7   6  -4 14.2800 14.2906   4
   7  -6   4-1.48324 20.7965   3
   7  -6   4 45.1964 27.2364   1
   7  -6   5-3.19028 14.9114   3
  -7   6  -5 49.6958 36.8621   2
   7  -6   5 0.10596 20.8006   1
  -7   6  -6 10.7644 21.5199   2
   7  -6   6 10.6194 22.6253   1
   7  -6   6 16.8320 20.9108   3
   7  -6   7 1.02596 32.3332   1
  -7   6  -7 48.3653 32.6114   2
   7  -6   8-61.9306 42.1318   1
  -7   6  -8 24.0281 28.7974   2
   7  -6   9-53.7749 41.4043   1
   7  -5  -9 42.4974 55.9106   6
   7  -5  -9 85.7762 56.6319   5
   7  -5  -8 54.4147 48.2989   6
   7  -5  -8 5.50119 31.9582   5
   7  -5  -7 24.2773 29.3594   6
   7  -5  -7 10.9863 28.5388   5
   7  -5  -6 5.65521 28.5726   6
   7  -5  -6 33.9943 26.9547   5
   7  -5  -5 415.979 88.8173   6
   7  -5  -5 352.834 62.8864   5
   7  -5  -4 314.519 78.2792   6
   7  -5  -4 235.161 43.1776   5
  -7   5   3 116.822 27.5183   4
   7  -5  -3 80.6370 33.9478   6
  -7   5   2 22.4688 15.1171   4
   7  -5  -2-44.4338 37.1482   6
  -7   5   1 101.781 17.8865   4
   7  -5  -1 135.997 47.8637   6
   7  -5   0 42.0620 28.7318   6
  -7   5   0 32.4902 11.5926   2
   7  -5   1 36.5884 29.1259   6
  -7   5  -1 41.0156 21.2620   2
   7  -5   2 279.066 63.6973   6
  -7   5  -2 161.577 37.6213   2
   7  -5   3-4.64033 23.1965   3
   7  -5   3 35.8542 29.8503   1
  -7   5  -3-4.23451 19.6698   2
   7  -5   4 3.58172 22.2735   3
   7  -5   4 8.70666 23.6184   1
  -7   5  -4-2.69715 17.0011   2
   7  -5   5 3.69977 14.8563   3
  -7   5  -5 9.93597 16.2265   2
   7  -5   5 48.5098 40.4325   1
   7  -5   6 23.7179 39.5488   1
  -7   5  -6 64.9520 34.7998   2
   7  -5   7 41.9561 24.6129   1
  -7   5  -7-18.5003 30.1891   2
   7  -5   8-123.252 54.7815   1
  -7   5  -8 77.0514 45.9057   2
   7  -5   9-148.619 62.5766   1
   7  -4 -10 30.5412 25.7325   5
   7  -4  -9 9.00374 23.9193   5
   7  -4  -9-39.6053 47.3808   6
   7  -4  -8-48.2569 53.8220   6
   7  -4  -8-9.97923 22.4696   5
   7  -4  -7-33.9870 42.4895   6
   7  -4  -7 48.3345 29.7896   5
   7  -4  -6 120.913 46.1600   6
   7  -4  -6 329.249 61.4307   5
   7  -4  -5 86.1259 35.4486   6
   7  -4  -5 144.952 34.2953   5
  -7   4   4-2.20402 10.0422   4
   7  -4  -4 20.6144 25.1303   6
   7  -4  -4 0.12669 10.1408   5
  -7   4   3 85.1330 19.1969   4
   7  -4  -3 69.4185 24.4861   6
   7  -4  -2 63.1333 28.3599   6
   7  -4  -1-17.6563 34.4948   6
   7  -4   0 24.0925 20.7280   6
   7  -4   1-19.1856 30.6906   6
  -7   4  -1 0.59709 8.74562   2
   7  -4   2 97.8045 37.3603   6
  -7   4  -2 28.9675 21.8379   2
   7  -4   2 28.2253 34.7805   1
   7  -4   3 276.688 60.0998   6
   7  -4   3 220.197 61.5917   1
  -7   4  -3 150.803 41.6197   2
   7  -4   4-2.68126 17.4590   3
  -7   4  -4-1.80124 18.6864   2
   7  -4   4-6.49481 23.4393   1
   7  -4   5-2.92080 12.2174   3
   7  -4   5-21.5430 20.7091   1
  -7   4  -5-7.83881 17.3611   2
   7  -4   6-96.4966 46.8597   1
  -7   4  -6-21.1912 19.5562   2
   7  -4   7 11.7910 48.6014   1
  -7   4  -7-0.41142 24.2656   2
   7  -4   8-14.5842 40.4820   1
  -7   4  -8 37.1278 55.0859   2
   7  -3 -11 12.6707 41.6755   5
   7  -3 -10 42.9425 29.6827   6
   7  -3  -9 64.7654 44.3765   6
   7  -3  -8 37.5084 24.1431   5
   7  -3  -8 81.9814 54.4222   6
   7  -3  -7 12.8007 16.1950   5
   7  -3  -7-13.5548 30.6859   6
   7  -3  -6 140.958 52.6563   6
   7  -3  -6 81.2835 29.2836   5
   7  -3  -5 120.659 48.4610   6
   7  -3  -5 40.5857 22.7311   5
   7  -3  -4 36.3409 35.3516   6
   7  -3  -4 5.41249 8.32695   5
   7  -3  -3 63.0506 41.9137   6
   7  -3  -2 247.774 64.3335   6
   7  -3  -1 183.621 47.7282   6
   7  -3   0-16.4627 37.9530   6
   7  -3   1 10.4122 19.5371   1
   7  -3   1-23.9293 25.7941   6
  -7   3  -1 31.1866 19.1015   2
   7  -3   2 7.51441 17.4931   6
  -7   3  -2 36.0687 22.5248   2
   7  -3   2 48.9273 30.1290   1
   7  -3   3-11.5597 20.0794   1
   7  -3   3 87.6635 34.7747   6
  -7   3  -3-21.5483 20.4975   2
  -7   3  -3 55.7466 31.1360   6
  -7   3  -3 14.0797 5.06738   5
  -7   3  -4 57.2908 19.3743   5
   7  -3   4 91.5480 28.7667   3
   7  -3   4 136.429 44.4837   6
  -7   3  -4 165.396 44.4582   6
   7  -3   4 62.0912 43.4769   1
  -7   3  -4 102.375 41.1635   2
   7  -3   5 64.4393 24.4029   1
  -7   3  -5 56.1319 37.8266   2
   7  -3   6 6.85282 30.6028   1
  -7   3  -6 22.5726 28.2243   2
   7  -3   7-24.8390 29.4308   1
  -7   3  -7 8.90364 26.2724   2
  -7   3  -8-27.0438 33.4476   2
   7  -3   8 12.7443 50.4774   1
   7  -2 -11 281.419 88.2460   6
   7  -2 -10 8.39752 25.0409   6
   7  -2  -9 72.4954 47.6126   6
   7  -2  -8 36.4898 41.5145   6
   7  -2  -7-32.2966 29.3742   6
   7  -2  -6-27.9162 34.0370   6
   7  -2  -5 13.8266 13.9707   5
   7  -2  -5 17.3444 27.2063   6
   7  -2  -4 246.245 63.8387   6
   7  -2  -4 197.781 25.2855   5
   7  -2  -3 19.1506 16.3430   6
   7  -2  -2 784.057 104.225   6
   7  -2  -1 98.7586 39.8665   6
   7  -2   0 8.03889 21.9007   1
   7  -2   0 36.0942 32.1505   6
   7  -2   1 13.1247 25.2720   1
   7  -2   1 23.5164 24.0747   6
   7  -2   2-1.39466 22.6745   1
  -7   2  -2-5.62709 19.6981   2
   7  -2   2 8.50168 19.4559   6
  -7   2  -2 21.8762 24.5029   6
   7  -2   3 12.5110 16.4761   6
  -7   2  -3 4.33448 18.7926   2
  -7   2  -3-3.77460 16.5639   6
   7  -2   3-36.9986 22.1976   1
  -7   2  -3 5.39619 5.89531   5
   7  -2   4-27.6008 31.8457   1
  -7   2  -4-23.8255 26.6971   2
  -7   2  -4 4.86313 10.3996   5
   7  -2   5 51.6244 34.0974   1
  -7   2  -5 4.19097 27.2578   2
   7  -2   6 62.1012 38.4596   1
  -7   2  -6 70.5895 45.4618   2
  -7   2  -7 79.3412 43.6325   2
   7  -2   7 82.4164 51.6685   1
   7  -1 -11 66.8537 50.3948   6
   7  -1 -10 120.027 70.8060   6
   7  -1  -9-6.07359 32.7489   6
   7  -1  -8 30.3195 36.7770   6
   7  -1  -7 25.5579 20.0896   6
   7  -1  -6-19.3509 22.6802   6
   7  -1  -5 157.985 48.2200   6
   7  -1  -4 59.2945 13.4112   2
   7  -1  -4 22.1423 23.3359   6
   7  -1  -4 43.8961 11.0153   5
   7  -1  -3 113.015 21.8900   2
   7  -1  -3 78.1543 27.0733   6
   7  -1  -2 62.9135 21.4164   2
   7  -1  -2 51.0208 35.2100   6
   7  -1  -1 16.3548 15.9064   2
   7  -1  -1-22.9574 29.9094   6
   7  -1  -1 33.5188 35.0192   1
   7  -1   0-20.2626 17.6925   2
   7  -1   0-19.0337 19.0619   6
   7  -1   0 2.08939 24.3199   1
   7  -1   1 44.1362 30.2376   1
   7  -1   1 14.0129 24.6319   6
  -7   1  -1 18.5788 18.3112   6
   7  -1   2 48.9937 26.8826   6
  -7   1  -2 6.46627 19.3071   6
   7  -1   2 50.1378 34.6183   1
   7  -1   3-52.7299 27.3480   6
   7  -1   3 15.3292 28.8733   1
  -7   1  -3 9.28974 10.3665   6
  -7   1  -3 6.32617 7.61144   5
   7  -1   4 56.1838 42.2769   1
   7  -1   4 67.0968 25.7298   6
  -7   1  -4 50.2634 28.6917   2
   7  -1   5 2.07831 29.4153   1
  -7   1  -5 9.58959 30.8780   2
  -7   1  -6-23.5752 46.2045   2
   7  -1   6 52.0102 45.0720   1
  -7   1  -7 6.31364 38.8767   2
   7   0 -11-6.89658 35.4896   6
   7   0 -10-31.2604 27.2776   6
   7   0  -9-35.3749 37.6717   6
   7   0  -8 125.968 52.9756   6
   7   0  -7 15.5979 22.1855   6
   7   0  -6 163.926 54.8459   6
   7   0  -6 97.0062 22.6728   2
   7   0  -5 18.4876 24.2580   6
   7   0  -5 47.5702 19.4681   2
   7   0  -4-4.50076 22.3901   6
   7   0  -4 42.6823 15.9728   2
   7   0  -3-9.33671 30.0943   6
   7   0  -3 1.36079 15.0736   2
   7   0  -2 6.18152 15.2475   2
   7   0  -2-17.8212 19.3770   6
   7   0  -1 123.369 36.6327   2
   7   0  -1 100.095 51.0173   1
   7   0  -1 84.8082 36.5815   6
   7   0   0-2.67743 19.6638   2
   7   0   0-9.84127 13.1862   3
   7   0   0-0.25265 27.4835   6
   7   0   0-31.9678 33.3906   1
   7   0   1 27.6333 27.3626   1
   7   0   1 78.6592 27.2956   3
   7   0   1 34.0438 28.5460   6
  -7   0  -1 41.4662 20.9511   6
   7   0   2 27.2884 22.3117   6
   7   0   2 68.7251 23.9065   3
   7   0   2 56.7098 39.4991   1
  -7   0  -2 66.5995 27.5342   6
   7   0   3 35.4221 25.5597   1
   7   0   3-33.1013 26.2996   6
  -7   0  -3 28.1230 12.0907   5
   7   0   4 18.1112 41.1483   1
   7   0   5-19.1439 21.3502   1
   7   0   6 2.98190 22.7724   1
   7   1 -11-44.4915 67.7612   6
   7   1 -10 20.7220 28.9838   6
   7   1  -9 0.15109 23.0487   6
   7   1  -8 307.476 81.7347   6
   7   1  -7-36.1374 24.6632   6
   7   1  -6 9.94530 18.6567   6
   7   1  -5 32.4435 20.6335   2
   7   1  -5-39.9526 28.8481   6
   7   1  -4 130.119 49.9796   6
   7   1  -4 110.110 26.7115   2
   7   1  -4 150.665 24.5436   5
   7   1  -3 30.4281 30.4760   6
   7   1  -3 37.3373 20.0659   2
   7   1  -2 19.9023 26.1874   1
   7   1  -2-12.6475 22.2253   6
   7   1  -2 11.6593 18.3496   2
   7   1  -1 28.4164 7.21072   4
   7   1  -1 65.2470 43.8158   1
   7   1  -1 8.07557 20.6082   6
   7   1  -1 61.2741 26.2823   2
   7   1   0 33.0887 10.7101   4
   7   1   0 35.0364 31.6926   1
   7   1   0 31.2037 18.3429   3
   7   1   0-33.2471 26.2514   6
   7   1   1 20.9065 11.4855   3
   7   1   1 24.1317 18.8014   6
   7   1   1 45.1024 34.2007   1
   7   1   2-14.4981 11.2702   6
   7   1   2-2.08120 20.2195   1
   7   1   3 62.6865 51.1850   1
   7   1   4-29.7183 34.3895   1
   7   1   5 22.7361 27.1262   1
   7   2 -11-6.62654 28.9658   6
   7   2 -10-11.5792 22.9090   6
   7   2  -9 124.607 51.4270   6
   7   2  -8-35.6543 26.4066   6
   7   2  -7 207.270 45.8615   4
   7   2  -7 189.022 65.4897   6
   7   2  -6 56.9527 25.0029   4
   7   2  -6 97.2144 51.3484   6
   7   2  -5 445.747 54.6779   4
   7   2  -5 317.221 51.7811   2
   7   2  -5 409.766 83.2147   6
   7   2  -4 69.0340 19.5755   4
   7   2  -4 71.4739 27.6915   2
   7   2  -4 106.808 47.4457   6
   7   2  -4 53.8729 17.1138   5
   7   2  -3 5.59966 17.0801   6
   7   2  -3 7.62507 14.1707   2
   7   2  -3 12.1362 10.6256   5
   7   2  -2 20.0648 29.8143   6
   7   2  -2 15.0339 28.1719   1
   7   2  -1 11.1119 26.0601   6
   7   2  -1 10.0894 27.3278   1
   7   2   0 16.5649 27.2613   1
   7   2   0 18.2948 34.2363   6
   7   2   1 25.5712 14.7341   6
   7   2   1 83.9841 42.7791   1
   7   2   2 74.3393 37.1543   1
   7   2   2 37.1086 18.0929   6
   7   2   3 50.2089 41.5792   1
   7   2   4 39.9705 34.3779   1
   7   3 -11-27.3121 36.3529   6
   7   3 -10 4.12916 25.0156   4
   7   3 -10 82.5982 58.5379   6
   7   3  -9 31.8842 32.7064   4
   7   3  -9-1.85882 25.4969   6
   7   3  -8 18.5922 26.9182   4
   7   3  -8 36.8943 41.9080   6
   7   3  -7 71.9749 30.5392   4
   7   3  -7 82.5608 40.9031   6
   7   3  -6 348.554 58.2673   4
   7   3  -6 332.741 80.2812   6
   7   3  -5 1181.64 147.134   6
   7   3  -4 0.47721 33.1331   6
   7   3  -3 17.0764 17.7329   6
   7   3  -2 1.49994 18.8492   6
   7   3  -2 28.8233 31.9488   1
   7   3  -1 19.7551 21.0656   6
   7   3  -1 111.999 54.2335   1
   7   3   0 68.8379 38.5506   1
   7   3   0 76.3527 30.8678   6
   7   3   1 27.1747 24.5636   6
   7   3   1 96.6036 58.6074   1
   7   3   2 37.4599 40.1408   1
   7   3   3 223.772 73.2983   1
   7   4 -11 14.5461 24.8707   4
   7   4 -10 86.0708 45.2689   4
   7   4 -10-25.6099 38.9316   6
   7   4  -9-6.63697 35.6924   4
   7   4  -9 60.9141 37.4577   6
   7   4  -8 47.5325 24.5984   4
   7   4  -8 8.12106 22.2461   6
   7   4  -7 123.897 44.1059   4
   7   4  -7 90.4552 51.0470   6
   7   4  -6 139.754 54.0740   6
   7   4  -5 657.986 111.742   6
   7   4  -4 110.669 49.2582   6
   7   4  -3 55.6523 39.3618   6
   7   4  -3 80.4303 43.0870   1
   7   4  -2 58.0051 34.2906   1
   7   4  -2 76.4084 37.0955   6
   7   4  -1 14.0723 27.3831   1
   7   4  -1 26.9137 28.4361   6
   7   4   0 42.5054 29.8544   6
   7   4   0 8.51398 23.8717   1
   7   4   1 105.097 50.1471   1
   7   4   2 33.4134 35.6362   1
   7   5 -12 21.6714 61.1380   4
   7   5 -11 137.133 67.3830   4
   7   5 -10 89.4027 39.1051   4
   7   5 -10 140.097 64.5249   6
   7   5  -9 3.59207 28.9665   4
   7   5  -9-3.77608 26.8901   6
   7   5  -8 52.0961 41.3723   6
   7   5  -7 83.0755 51.4484   6
   7   5  -6 36.2309 33.8366   6
   7   5  -5 2.73064 26.0886   6
   7   5  -4 81.8587 45.7607   6
   7   5  -3 96.6183 57.5561   1
   7   5  -3 58.6437 29.9342   6
   7   5  -2 97.2414 54.4484   1
   7   5  -2 41.9487 35.6430   6
   7   5  -1 18.1653 24.8398   1
   7   5  -1-24.5115 19.7388   6
   7   5   0 11.7441 16.7298   6
   7   5   0-41.2141 48.3933   1
   7   5   1 31.1569 49.6904   1
   7   6 -11-6.62748 20.2175   4
   7   6 -10-6.35970 31.5431   4
   7   6  -9-2.88825 46.8739   6
   7   6  -8 20.8682 32.1581   6
   7   6  -7-22.3070 42.7641   6
   7   6  -6 5.82936 32.0626   6
   7   6  -5 44.5957 32.9532   6
   7   6  -4 11.7835 36.1092   6
   7   6  -3 23.3251 25.6225   1
   7   6  -3-23.3714 36.1858   6
   7   6  -2 38.0893 38.4632   1
   7   6  -2 21.8949 19.7426   6
   7   6  -1 5.60718 29.5543   1
   7   6  -1-13.1218 26.2311   6
   7   6   0 5.51246 62.2906   1
   7   7  -7 72.0668 49.5931   6
   7   7  -6-9.59231 42.1414   6
   7   7  -5-6.46927 30.5587   6
   7   7  -4 0.80252 20.1779   6
   7   7  -3-30.7058 42.2496   1
   7   7  -3 42.6632 44.8922   6
   7   7  -2-5.56476 42.7637   1
   7   7  -2-81.2550 42.9811   6
   7   7  -1-65.7585 45.0841   1
   7   8  -4 63.8386 43.8276   6
   7   8  -3 8.79923 43.0562   1
   7   8  -3 15.3585 28.4121   6
   8 -10   2 195.748 71.8663   3
   8 -10   3 196.507 69.7083   3
   8 -10   4 70.9293 49.9138   3
   8 -10   5 46.3264 32.2396   3
   8 -10   6-5.11851 24.1900   3
   8  -9  -1 6.23025 38.4205   3
   8  -9   0-37.8930 34.8055   3
   8  -9   1-46.2560 42.1115   3
   8  -9   2 66.3704 40.5774   3
   8  -9   3 46.9414 39.4483   3
   8  -9   4 101.833 46.3537   3
   8  -9   5 75.6323 37.5754   3
   8  -8  -3 103.492 61.1701   6
   8  -8  -3-28.5864 41.8819   3
   8  -8  -2-4.89349 25.2993   3
   8  -8  -1 14.8020 26.4811   3
   8  -8   0 37.4107 31.3299   3
   8  -8   1 31.0604 30.3478   3
   8  -8   2-49.2725 39.5421   3
   8  -8   3-38.8986 36.2356   3
   8  -8   4 118.732 39.7918   3
   8  -8   5 7.81596 26.6617   3
  -8   8  -6 8.80200 21.8160   2
  -8   8  -7 66.7234 44.3630   2
   8  -7  -4 202.980 72.1087   6
   8  -7  -3 50.8040 44.7490   6
   8  -7  -2 96.3793 54.8387   6
   8  -7  -1 112.553 55.1366   6
   8  -7   0-65.1039 34.1628   3
   8  -7   0 152.203 62.7275   6
   8  -7   1 15.6626 25.2001   3
   8  -7   2 26.5730 22.3161   3
   8  -7   3-42.2948 24.2006   3
   8  -7   4-2.38746 25.7916   3
  -8   7  -4-5.16840 20.2912   2
   8  -7   5 46.8358 27.3607   3
   8  -7   5 10.4295 26.1494   1
  -8   7  -5-16.6847 34.8813   2
   8  -7   6 40.1684 53.2068   1
  -8   7  -6-26.8097 32.9933   2
   8  -7   7 42.3187 54.0285   1
  -8   7  -7-28.5252 30.9065   2
  -8   7  -8 3.37399 30.3621   2
   8  -6  -6 71.0155 48.7760   6
   8  -6  -5 43.9119 50.5148   6
   8  -6  -4 115.340 59.5455   6
   8  -6  -3 48.5819 27.7402   6
   8  -6  -2-39.7091 35.7613   6
   8  -6  -1 46.4525 40.4387   6
   8  -6   0 49.9833 38.4784   6
   8  -6   1 35.9906 35.1977   6
   8  -6   2-7.09874 38.3166   3
   8  -6   2 41.1229 38.3926   6
  -8   6  -2 11.2904 14.4513   2
   8  -6   3 150.675 45.3052   3
  -8   6  -3 93.8734 33.4662   2
   8  -6   4 229.415 52.5062   3
  -8   6  -4 117.899 41.6742   2
   8  -6   4 230.039 71.6463   1
   8  -6   5 77.9937 44.4328   1
  -8   6  -5 80.3033 39.1886   2
   8  -6   6-23.9794 32.6247   1
  -8   6  -6 45.6875 35.1832   2
   8  -6   7-68.0499 58.5189   1
  -8   6  -7 28.6308 41.4898   2
   8  -6   8 3.23322 42.1547   1
   8  -5  -7-16.9010 33.9381   6
   8  -5  -6-52.3209 49.6111   6
   8  -5  -5 235.580 69.8671   6
   8  -5  -4 392.767 87.2030   6
   8  -5  -3-50.6992 37.1763   6
   8  -5  -2-15.6867 29.1806   6
   8  -5  -1-35.7029 37.5470   6
   8  -5   0 33.1714 33.6409   6
   8  -5   1 93.1023 44.8662   6
  -8   5  -1 57.4361 20.1325   2
   8  -5   2 117.060 50.7230   6
  -8   5  -2 70.6629 26.3453   2
   8  -5   3 25.0983 22.3899   3
  -8   5  -3 59.7559 30.0426   2
   8  -5   3 17.0002 23.5120   1
   8  -5   4 308.695 58.4710   3
   8  -5   4 250.803 80.3359   1
  -8   5  -4 321.738 66.5104   2
   8  -5   5 51.6820 35.2750   1
  -8   5  -5 93.2627 43.2264   2
   8  -5   6-75.6882 45.1866   1
  -8   5  -6 7.61402 35.2205   2
  -8   5  -7 25.9231 47.9857   2
   8  -5   7-0.31163 33.4815   1
   8  -4  -8-6.26765 43.4555   6
   8  -4  -7-16.9877 40.2775   6
   8  -4  -6 230.369 71.9352   6
   8  -4  -5 71.9336 36.9190   6
   8  -4  -4 343.670 79.5316   6
   8  -4  -3 30.1737 23.2159   6
   8  -4  -2-32.5690 28.6998   6
   8  -4  -1-18.6356 33.9391   6
   8  -4   0 0.10496 27.0575   6
   8  -4   1-14.6665 36.2648   6
   8  -4   2 35.6059 26.0309   6
  -8   4  -2 21.5520 18.5532   2
   8  -4   2 58.0526 43.9835   1
   8  -4   3-1.49801 38.9500   1
   8  -4   3 21.2353 35.7849   6
  -8   4  -3 1.25933 13.8754   2
   8  -4   4 426.025 62.7601   3
  -8   4  -4 500.406 84.7195   2
   8  -4   4 504.857 98.5047   1
  -8   4  -5 4.49269 22.2503   2
   8  -4   5-4.33666 37.3119   1
  -8   4  -6 9.48425 24.0660   2
   8  -4   6-33.9081 36.6061   1
   8  -4   7-132.299 60.6226   1
  -8   4  -7-52.4488 38.8600   2
   8  -3  -8 85.9567 55.7297   6
   8  -3  -7 83.3721 47.3925   6
   8  -3  -6-26.3436 28.6169   6
   8  -3  -5 11.5043 18.7184   6
   8  -3  -4 90.7276 50.9972   6
   8  -3  -3-9.77409 32.6120   6
   8  -3  -2 99.8392 49.3229   6
   8  -3  -1 118.396 43.9591   6
   8  -3   0-62.2618 43.2919   6
   8  -3   1 3.64848 27.4261   6
   8  -3   1 1.17982 20.4599   1
   8  -3   2 121.922 52.7124   1
   8  -3   2 44.3533 24.0260   6
   8  -3   3 31.0067 20.8870   6
  -8   3  -3-31.8111 21.3217   2
   8  -3   3-5.93520 24.3961   1
   8  -3   4 28.1914 24.0072   1
  -8   3  -4 48.6021 34.0588   2
  -8   3  -5-32.7838 33.2684   2
   8  -3   5-72.6753 45.0744   1
   8  -3   6 44.7899 30.9426   1
  -8   3  -6 37.8982 35.6031   2
  -8   3  -7 72.1529 35.5680   2
   8  -2  -9 44.5228 53.9649   6
   8  -2  -8 100.528 63.8924   6
   8  -2  -7 138.538 62.7717   6
   8  -2  -6 40.6813 31.9659   6
   8  -2  -5 41.5940 35.8911   6
   8  -2  -4 12.6545 28.5189   6
   8  -2  -3 46.8460 38.0996   6
   8  -2  -2-41.4519 37.1505   6
   8  -2  -1 43.9446 32.0023   6
   8  -2   0 35.7075 41.4597   1
   8  -2   0 54.9566 33.1206   6
   8  -2   1-67.2361 39.9076   6
   8  -2   1 91.8485 46.1883   1
   8  -2   2-23.9646 33.6789   6
   8  -2   2 22.4326 28.7264   1
   8  -2   3 4.29903 31.4445   1
   8  -2   3 3.43122 20.4745   6
  -8   2  -4-72.2389 37.4520   2
   8  -2   4-25.5628 30.9673   1
  -8   2  -5-13.6244 32.3090   2
   8  -2   5 2.85171 34.2188   1
  -8   2  -6-25.1484 36.2202   2
   8  -1  -9-15.6843 44.5786   6
   8  -1  -8 19.2730 38.7214   6
   8  -1  -7 11.0549 27.3584   6
   8  -1  -6 14.4557 24.6242   6
   8  -1  -5-4.09470 25.1948   6
   8  -1  -4 70.3713 44.4402   6
   8  -1  -3-16.9936 25.2040   6
   8  -1  -2 110.221 40.9637   6
   8  -1  -1 96.6155 46.7669   6
   8  -1   0 92.7835 45.6660   1
   8  -1   0 60.0232 34.6845   6
   8  -1   1 102.759 39.3879   6
   8  -1   1 77.5658 36.4471   1
   8  -1   2-123.000 52.1173   1
   8  -1   2-43.4765 26.1862   6
   8  -1   3 23.9620 20.3829   6
   8  -1   3-21.8504 31.6336   1
   8  -1   4-5.62900 30.2159   1
   8  -1   5-23.5148 49.0509   1
   8   0  -9 9.35611 21.8598   6
   8   0  -8 42.5391 28.6092   6
   8   0  -7 261.046 71.5547   6
   8   0  -6 13.4110 25.7703   6
   8   0  -5-40.6907 30.6399   6
   8   0  -4 34.7937 35.1092   6
   8   0  -3-25.8748 31.7101   6
   8   0  -2-6.72040 18.3697   2
   8   0  -2 16.2429 27.1930   6
   8   0  -1 4.15894 27.5945   1
   8   0  -1-23.0169 20.2198   6
   8   0   0 101.656 59.6817   1
   8   0   0 10.4540 19.1222   6
   8   0   1 40.4074 29.6322   6
   8   0   1 70.6110 40.7500   1
   8   0   2-15.4870 39.9951   1
   8   0   2 96.2780 38.6349   6
   8   0   3 108.830 45.3146   1
   8   0   4-14.2295 35.7554   1
   8   1  -9-37.3171 37.8767   6
   8   1  -8-28.5967 52.8357   6
   8   1  -7-5.74087 28.3152   6
   8   1  -6 162.472 55.1295   6
   8   1  -5 132.410 58.6260   6
   8   1  -4 192.964 60.7825   6
   8   1  -3 92.4078 40.4929   6
   8   1  -2 36.1386 34.4033   6
   8   1  -1-3.19890 30.4525   1
   8   1  -1 17.1828 19.3412   6
   8   1   0-35.6880 24.7841   6
   8   1   0-9.29038 25.1194   1
   8   1   1 108.155 53.9510   1
   8   1   1 67.0640 32.1146   6
   8   1   2 14.8385 26.5194   1
   8   1   3 43.8717 38.4063   1
   8   2  -9 47.3373 42.9913   6
   8   2  -8 65.6886 37.3639   6
   8   2  -7 315.009 86.5946   6
   8   2  -6 44.5833 46.9637   6
   8   2  -5 406.510 95.2333   6
   8   2  -4 429.172 94.5020   6
   8   2  -3 57.7550 35.7870   6
   8   2  -2-12.2000 33.1141   6
   8   2  -2 155.826 65.1732   1
   8   2  -1 136.266 51.4213   6
   8   2  -1 322.244 90.9958   1
   8   2   0-35.1680 30.3775   6
   8   2   0 17.3184 41.3238   1
   8   2   1 83.6922 46.6951   1
   8   2   1-16.2384 18.2431   6
   8   2   2 16.0456 26.6160   1
   8   3  -9 87.9098 50.6080   6
   8   3  -8 74.8512 52.9849   6
   8   3  -7 4.29041 21.6341   6
   8   3  -6 18.7983 20.3541   6
   8   3  -5 9.57505 26.3164   6
   8   3  -4 21.8934 33.0538   6
   8   3  -3 38.1482 43.6166   6
   8   3  -2-40.6737 38.1268   1
   8   3  -2 74.4571 45.3617   6
   8   3  -1 79.2671 44.5205   1
   8   3  -1 11.7708 28.0900   6
   8   3   0-5.96512 22.0749   6
   8   3   0 9.33030 32.4692   1
   8   3   1 30.7250 39.3891   1
   8   4  -8 59.3014 42.9460   6
   8   4  -7-12.3207 36.8918   6
   8   4  -6 7.10936 35.7622   6
   8   4  -5-45.0339 32.1438   6
   8   4  -4 26.1462 27.8324   6
   8   4  -3-5.11802 24.3523   6
   8   4  -2-5.50255 26.8085   1
   8   4  -2 5.95966 29.4875   6
   8   4  -1 86.6377 55.0446   1
   8   4  -1 153.855 52.4020   6
   8   4   0 163.262 58.6549   1
   8   5  -7 94.8067 53.1820   6
   8   5  -6-14.6413 48.8324   6
   8   5  -5-26.6998 22.6969   6
   8   5  -4 1.56122 28.6383   6
   8   5  -3-7.91845 21.4385   6
   8   5  -2 90.6301 62.8214   1
   8   5  -2 82.6544 41.5689   6
   8   5  -1-121.902 59.9466   1
   8   5  -1 58.3316 33.3399   6
   8   6  -6-49.5476 42.2475   6
   8   6  -5 2.83487 31.1031   6
   8   6  -4 95.4134 59.0329   6
   8   6  -3 15.7572 33.3195   6
   8   6  -2 71.7996 46.5062   6
   9  -9   2 185.458 63.4740   3
   9  -9   3 42.6206 42.3125   3
   9  -9   4-14.0517 27.3138   3
   9  -8   0-3.19406 50.9565   3
   9  -8   1 68.2813 44.4324   3
   9  -8   2 23.9734 35.2776   3
   9  -8   3 3.55294 25.7049   3
   9  -8   4 21.1457 23.3158   3
   9  -7  -2 15.4420 41.3314   6
   9  -7  -1 53.5192 50.1916   6
   9  -7   0 31.4556 39.6434   3
   9  -7   0 109.721 63.6705   6
   9  -7   1-114.286 55.7681   3
   9  -7   2 112.284 48.6625   3
   9  -7   3 73.0800 46.8345   3
   9  -7   4 42.9034 38.3921   3
   9  -6  -3 28.5113 27.9135   6
   9  -6  -2 58.7318 51.7736   6
   9  -6  -1 44.0343 42.8148   6
   9  -6   0 62.8848 44.4910   6
   9  -6   1 82.7665 45.6849   6
   9  -6   2-25.1465 38.1153   3
   9  -6   2 114.567 50.4295   6
   9  -6   3 20.8661 31.0686   3
   9  -6   5 8.95877 27.9145   1
   9  -6   6 71.2727 59.5728   1
   9  -5  -5 98.8026 46.6260   6
   9  -5  -4 47.5497 40.7552   6
   9  -5  -3-30.7698 29.4593   6
   9  -5  -2-38.2257 37.4769   6
   9  -5  -1 10.8903 27.9964   6
   9  -5   0 64.3061 43.2354   6
   9  -5   1 16.5920 26.1925   6
   9  -5   2 77.3787 37.0662   6
   9  -5   3-41.1029 31.1967   3
   9  -5   3 69.2487 60.0497   1
   9  -5   4 36.9679 41.7022   1
   9  -5   5 17.8487 32.9038   1
  -9   5  -5-22.1719 25.0589   2
  -9   5  -6 33.2085 38.2834   2
   9  -4  -6-90.5887 48.9890   6
   9  -4  -5 79.4788 45.5313   6
   9  -4  -4-95.9768 60.4108   6
   9  -4  -3-96.6488 53.8030   6
   9  -4  -2-7.67228 38.8392   6
   9  -4  -1-46.5357 40.3260   6
   9  -4   0 54.7288 41.1871   6
   9  -4   1-4.74629 30.4088   6
   9  -4   2-44.1475 28.5272   6
   9  -4   2 41.4844 58.0686   1
   9  -4   3-69.2405 45.5273   1
   9  -4   3 20.4410 39.0542   6
   9  -4   4-12.5114 44.0847   1
  -9   4  -4 2.60073 15.7917   2
   9  -4   5 36.0024 31.5635   1
  -9   4  -5-43.3577 35.0909   2
  -9   4  -6-7.32474 22.9402   2
   9  -3  -6-9.57150 30.5581   6
   9  -3  -5 46.5387 45.1291   6
   9  -3  -4 12.8058 33.5036   6
   9  -3  -3 83.8207 50.9177   6
   9  -3  -2-9.07098 37.0119   6
   9  -3  -1 39.0228 28.2438   6
   9  -3   0-62.0433 47.5357   6
   9  -3   1 2.78115 19.9543   6
   9  -3   2 34.3326 35.7296   1
   9  -3   2 41.4499 27.9237   6
   9  -3   3-28.6785 40.8795   1
   9  -3   3 4.83058 20.1122   6
   9  -3   4-128.893 58.5700   1
   9  -2  -7-22.7191 39.2068   6
   9  -2  -6 21.9088 35.4523   6
   9  -2  -5 30.7877 27.2783   6
   9  -2  -4 19.9066 33.4297   6
   9  -2  -3 36.0075 36.0931   6
   9  -2  -2 11.2088 33.2048   6
   9  -2  -1 5.72314 33.2885   6
   9  -2   0-20.7871 32.5065   6
   9  -2   1-42.7268 39.0039   6
   9  -2   1 8.18063 40.2801   1
   9  -2   2-91.0668 49.6887   1
   9  -2   2 3.20990 19.2508   6
   9  -2   3 2.36128 47.0302   1
   9  -1  -7 20.9450 36.3515   6
   9  -1  -6 83.4751 50.6799   6
   9  -1  -5 17.8820 32.5247   6
   9  -1  -4 13.5576 32.2647   6
   9  -1  -3-21.9247 30.5862   6
   9  -1  -2 31.0903 27.0204   6
   9  -1  -1 38.3212 31.1537   6
   9  -1   0 84.2982 43.2235   6
   9  -1   0-16.5230 37.0262   1
   9  -1   1-71.6577 44.2978   6
   9  -1   1 19.6929 40.5210   1
   9  -1   2-6.81763 36.7642   1
   9   0  -7 188.021 74.5414   6
   9   0  -6 70.8334 48.5549   6
   9   0  -5 26.4202 40.9572   6
   9   0  -4 47.8262 30.8899   6
   9   0  -3-21.7390 37.8487   6
   9   0  -2-28.3507 23.6928   6
   9   0  -1 27.0210 28.0520   6
   9   0   0-21.2700 40.5182   1
   9   0   0 33.5304 35.7113   6
   9   0   1 25.5950 34.9586   1
   9   0   1 13.1547 30.7869   6
   9   1  -7 55.5154 23.9655   6
   9   1  -6 9.24551 26.8772   6
   9   1  -5-4.04809 40.7250   6
   9   1  -4 11.6621 23.3511   6
   9   1  -3 98.5741 49.7433   6
   9   1  -2-11.2699 24.9769   6
   9   1  -1 41.3646 69.4329   1
   9   1  -1-4.05687 18.4016   6
   9   1   0 15.3015 26.9289   6
   9   1   0 46.6254 55.2966   1
   9   2  -7-45.4936 46.2168   6
   9   2  -6 65.2421 51.8059   6
   9   2  -5 57.5982 46.2772   6
   9   2  -4 489.093 106.269   6
   9   2  -3 115.617 49.4343   6
   9   2  -2-40.0300 34.3849   6
   9   2  -1-27.4256 44.0417   6
   9   2  -1 44.0908 42.0050   1
   9   3  -6 116.585 56.7137   6
   9   3  -5 41.5779 50.6644   6
   9   3  -4 182.453 74.7788   6
   9   3  -3 4.23748 23.7146   6
   9   3  -2-42.4105 37.9398   6
   9   3  -1-21.3723 40.7698   6
   9   4  -5-64.3168 35.2533   6
   9   4  -4 52.7183 40.4086   6
   9   4  -3-52.4082 38.2084   6
   9   4  -2 70.0332 41.1931   6
   9   5  -4 118.751 52.5384   6
   9   5  -3 16.0182 28.7401   6
  10  -7   1-49.4759 49.5634   3
  10  -7   2-11.2873 47.7044   3
  10  -6   0 74.2332 52.5966   6
  10  -6   1 62.3370 63.1737   6
  10  -6   2 0.77033 31.9491   3
  10  -5  -2-49.8752 54.8223   6
  10  -5  -1-5.60580 39.4048   6
  10  -5   0-20.7788 29.0797   6
  10  -5   1-0.38428 30.3869   6
  10  -5   2 14.4661 42.2744   6
  10  -4  -3 1.93794 41.6396   6
  10  -4  -2-10.7529 28.6796   6
  10  -4  -1 9.12324 27.6009   6
  10  -4   0-23.3449 29.5432   6
  10  -4   1 114.994 54.3886   6
  10  -4   2 151.577 52.2527   6
  10  -3  -3-38.4492 42.0853   6
  10  -3  -2-42.3710 58.5682   6
  10  -3  -1-72.3102 55.8473   6
  10  -3   0-61.7530 48.6667   6
  10  -3   1-51.6349 45.0886   6
  10  -2  -4 7.47963 26.6538   6
  10  -2  -3 118.953 61.3087   6
  10  -2  -2 9.11723 23.3663   6
  10  -2  -1 40.4400 32.2250   6
  10  -2   0-47.1807 53.0930   6
  10  -2   1-36.2173 33.0069   6
  10  -1  -4 57.4006 36.5386   6
  10  -1  -3 50.3308 23.1681   6
  10  -1  -2 33.2051 34.7254   6
  10  -1  -1 130.228 60.4539   6
  10  -1   0 8.33424 28.2325   6
  10   0  -4 25.0163 48.3319   6
  10   0  -3 60.0639 45.7198   6
  10   0  -2-5.43051 44.5148   6
  10   0  -1 104.114 55.8312   6
  10   1  -4 40.0789 29.0099   6
  10   1  -3 111.970 60.0025   6
  10   1  -2 26.3565 29.4032   6
  10   1  -1 33.3031 31.7045   6
  10   2  -3 48.3300 38.9742   6
  10   2  -2 9.24601 37.5297   6
   0   0   0    0.00    0.00   0
;
_shelx_hkl_checksum              8234
#END Tags that were not found in dictionaries
loop_
_symmetry_equiv_pos_as_xyz
'x, y, z'
'-x, -y, -z'
loop_
_atom_site_label
_atom_site_type_symbol
_atom_site_fract_x
_atom_site_fract_y
_atom_site_fract_z
_atom_site_U_iso_or_equiv
_atom_site_adp_type
_atom_site_occupancy
_atom_site_symmetry_multiplicity
_atom_site_calc_flag
_atom_site_refinement_flags
O3 O 0.1909(3) 0.7769(3) 0.8348(2) 0.0572(7) Uani 1 1 d .
O1 O 0.3363(3) 0.8940(3) 0.7056(2) 0.0606(8) Uani 1 1 d .
C2 C 0.3117(4) 1.0333(4) 0.9252(3) 0.0409(9) Uani 1 1 d .
H2 H 0.3374 1.1260 0.9991 0.049 Uiso 1 1 calc R
O5" O 0.1494(3) 1.1693(3) 1.3990(2) 0.0613(8) Uani 1 1 d .
C4" C 0.0518(4) 0.9109(4) 1.2859(3) 0.0441(9) Uani 1 1 d .
H4" H 0.0181 0.9107 1.3641 0.053 Uiso 1 1 calc R
C3 C 0.2220(4) 0.9074(4) 0.9343(3) 0.0371(8) Uani 1 1 d .
C1" C 0.1571(4) 0.9109(4) 1.0551(3) 0.0359(8) Uani 1 1 d .
F2 F 0.1632(3) 0.6512(2) 0.6011(2) 0.0743(8) Uani 1 1 d .
C3" C 0.0238(4) 0.7789(4) 1.1733(3) 0.0423(9) Uani 1 1 d .
C2" C 0.0758(4) 0.7776(4) 1.0567(3) 0.0412(9) Uani 1 1 d .
H2" H 0.0562 0.6879 0.9804 0.049 Uiso 1 1 calc R
C5" C 0.1303(4) 1.0445(4) 1.2830(3) 0.0404(8) Uani 1 1 d .
O3" O -0.0526(3) 0.6418(3) 1.1659(2) 0.0605(8) Uani 1 1 d .
C1 C 0.3638(4) 1.0228(4) 0.8069(3) 0.0407(9) Uani 1 1 d .
C6" C 0.1843(4) 1.0465(4) 1.1688(3) 0.0395(8) Uani 1 1 d .
H6" H 0.2378 1.1362 1.1674 0.047 Uiso 1 1 calc R
C1' C 0.4503(4) 1.1516(4) 0.7853(3) 0.0408(8) Uani 1 1 d .
F1 F 0.4217(3) 0.7073(3) 0.7529(2) 0.0752(8) Uani 1 1 d .
C6' C 0.5276(5) 1.2907(4) 0.8927(4) 0.0545(10) Uani 1 1 d .
H6' H 0.5210 1.3061 0.9819 0.065 Uiso 1 1 calc R
B2 B 0.2780(7) 0.7553(5) 0.7214(4) 0.0554(12) Uani 1 1 d .
C2' C 0.4617(5) 1.1322(4) 0.6530(4) 0.0589(11) Uani 1 1 d .
H2' H 0.4105 1.0391 0.5793 0.071 Uiso 1 1 calc R
C4' C 0.6232(6) 1.3861(5) 0.7383(5) 0.0726(13) Uani 1 1 d .
H4' H 0.6809 1.4654 0.7228 0.087 Uiso 1 1 calc R
C5' C 0.6142(5) 1.4067(5) 0.8689(5) 0.0678(12) Uani 1 1 d .
H5' H 0.6671 1.4999 0.9423 0.081 Uiso 1 1 calc R
C8" C 0.2246(5) 1.3105(4) 1.3997(4) 0.0657(12) Uani 1 1 d .
H8"A H 0.3434 1.3187 1.3937 0.099 Uiso 1 1 calc R
H8"B H 0.2232 1.3889 1.4839 0.099 Uiso 1 1 calc R
H8"C H 0.1576 1.3185 1.3221 0.099 Uiso 1 1 calc R
C7" C -0.0977(6) 0.6336(5) 1.2851(4) 0.0717(13) Uani 1 1 d .
H7"A H 0.0055 0.6773 1.3615 0.108 Uiso 1 1 calc R
H7"B H -0.1460 0.5311 1.2667 0.108 Uiso 1 1 calc R
H7"C H -0.1829 0.6866 1.3076 0.108 Uiso 1 1 calc R
C3' C 0.5475(6) 1.2490(5) 0.6302(5) 0.0739(13) Uani 1 1 d .
H3' H 0.5542 1.2351 0.5413 0.089 Uiso 1 1 calc R
loop_
_atom_site_aniso_label
_atom_site_aniso_U_11
_atom_site_aniso_U_22
_atom_site_aniso_U_33
_atom_site_aniso_U_23
_atom_site_aniso_U_13
_atom_site_aniso_U_12
O3 0.0844(18) 0.0402(15) 0.0438(14) 0.0109(12) 0.0378(13) 0.0071(13)
O1 0.100(2) 0.0394(15) 0.0444(14) 0.0133(12) 0.0426(14) 0.0126(14)
C2 0.052(2) 0.039(2) 0.0351(18) 0.0149(15) 0.0217(16) 0.0143(17)
O5" 0.098(2) 0.0432(16) 0.0453(15) 0.0147(12) 0.0396(14) 0.0165(14)
C4" 0.055(2) 0.049(2) 0.0350(19) 0.0215(17) 0.0217(17) 0.0137(18)
C3 0.0374(18) 0.040(2) 0.0371(18) 0.0166(16) 0.0148(15) 0.0127(16)
C1" 0.0375(18) 0.041(2) 0.0356(18) 0.0178(16) 0.0165(15) 0.0159(16)
F2 0.0965(17) 0.0599(15) 0.0505(13) 0.0111(11) 0.0285(12) 0.0050(12)
C3" 0.048(2) 0.041(2) 0.043(2) 0.0202(17) 0.0181(16) 0.0102(17)
C2" 0.048(2) 0.037(2) 0.0361(18) 0.0106(15) 0.0199(16) 0.0101(17)
C5" 0.047(2) 0.042(2) 0.0329(17) 0.0125(16) 0.0164(16) 0.0158(17)
O3" 0.0872(18) 0.0445(16) 0.0510(15) 0.0200(12) 0.0369(14) 0.0060(14)
C1 0.041(2) 0.047(2) 0.0378(19) 0.0183(17) 0.0157(15) 0.0140(17)
C6" 0.0451(19) 0.039(2) 0.0427(19) 0.0209(16) 0.0205(16) 0.0160(16)
C1' 0.0422(19) 0.043(2) 0.048(2) 0.0242(17) 0.0228(16) 0.0168(17)
F1 0.0832(16) 0.0742(17) 0.0851(17) 0.0412(14) 0.0415(13) 0.0268(14)
C6' 0.066(2) 0.046(2) 0.054(2) 0.023(2) 0.022(2) 0.012(2)
B2 0.075(3) 0.042(3) 0.043(3) 0.011(2) 0.026(2) 0.010(3)
C2' 0.084(3) 0.052(3) 0.053(2) 0.0272(19) 0.037(2) 0.020(2)
C4' 0.091(3) 0.055(3) 0.104(4) 0.052(3) 0.053(3) 0.030(2)
C5' 0.080(3) 0.042(3) 0.078(3) 0.025(2) 0.026(2) 0.010(2)
C8" 0.098(3) 0.043(2) 0.050(2) 0.0117(19) 0.037(2) 0.010(2)
C7" 0.106(3) 0.063(3) 0.063(3) 0.036(2) 0.050(2) 0.018(2)
C3' 0.113(4) 0.069(3) 0.080(3) 0.052(3) 0.061(3) 0.043(3)
loop_
_atom_type_symbol
_atom_type_description
_atom_type_scat_dispersion_real
_atom_type_scat_dispersion_imag
_atom_type_scat_source
C C 0.0033 0.0016 'International Tables Vol C Tables 4.2.6.8 and 6.1.1.4'
H H 0.0000 0.0000 'International Tables Vol C Tables 4.2.6.8 and 6.1.1.4'
B B 0.0013 0.0007 'International Tables Vol C Tables 4.2.6.8 and 6.1.1.4'
O O 0.0106 0.0060 'International Tables Vol C Tables 4.2.6.8 and 6.1.1.4'
F F 0.0171 0.0103 'International Tables Vol C Tables 4.2.6.8 and 6.1.1.4'
loop_
_geom_angle_atom_site_label_1
_geom_angle_atom_site_label_2
_geom_angle_atom_site_label_3
_geom_angle
C3 O3 B2 120.9(3)
C1 O1 B2 121.2(3)
C3 C2 C1 120.6(3)
C3 C2 H2 119.7
C1 C2 H2 119.7
C5" O5" C8" 117.6(3)
C3" C4" C5" 119.9(3)
C3" C4" H4" 120.0
C5" C4" H4" 120.0
O3 C3 C2 120.6(3)
O3 C3 C1" 115.9(3)
C2 C3 C1" 123.4(3)
C2" C1" C6" 120.5(3)
C2" C1" C3 118.8(3)
C6" C1" C3 120.6(3)
O3" C3" C4" 124.4(3)
O3" C3" C2" 115.1(3)
C4" C3" C2" 120.6(3)
C1" C2" C3" 119.4(3)
C1" C2" H2" 120.3
C3" C2" H2" 120.3
O5" C5" C6" 123.9(3)
O5" C5" C4" 115.4(3)
C6" C5" C4" 120.7(3)
C3" O3" C7" 118.2(3)
O1 C1 C2 120.5(3)
O1 C1 C1' 115.4(3)
C2 C1 C1' 124.1(3)
C5" C6" C1" 118.9(3)
C5" C6" H6" 120.6
C1" C6" H6" 120.6
C6' C1' C2' 118.4(4)
C6' C1' C1 122.3(3)
C2' C1' C1 119.2(3)
C5' C6' C1' 120.5(4)
C5' C6' H6' 119.8
C1' C6' H6' 119.8
F2 B2 F1 110.4(4)
F2 B2 O1 108.7(4)
F1 B2 O1 109.4(4)
F2 B2 O3 109.0(3)
F1 B2 O3 107.7(4)
O1 B2 O3 111.7(3)
C3' C2' C1' 120.7(4)
C3' C2' H2' 119.7
C1' C2' H2' 119.7
C5' C4' C3' 120.2(4)
C5' C4' H4' 119.9
C3' C4' H4' 119.9
C4' C5' C6' 120.4(4)
C4' C5' H5' 119.8
C6' C5' H5' 119.8
O5" C8" H8"A 109.5
O5" C8" H8"B 109.5
H8"A C8" H8"B 109.5
O5" C8" H8"C 109.5
H8"A C8" H8"C 109.5
H8"B C8" H8"C 109.5
O3" C7" H7"A 109.5
O3" C7" H7"B 109.5
H7"A C7" H7"B 109.5
O3" C7" H7"C 109.5
H7"A C7" H7"C 109.5
H7"B C7" H7"C 109.5
C4' C3' C2' 119.9(4)
C4' C3' H3' 120.0
C2' C3' H3' 120.0
loop_
_geom_bond_atom_site_label_1
_geom_bond_atom_site_label_2
_geom_bond_distance
O3 C3 1.294(4)
O3 B2 1.479(5)
O1 C1 1.295(4)
O1 B2 1.468(5)
C2 C3 1.379(4)
C2 C1 1.384(4)
C2 H2 0.9300
O5" C5" 1.363(4)
O5" C8" 1.430(4)
C4" C3" 1.372(4)
C4" C5" 1.386(5)
C4" H4" 0.9300
C3 C1" 1.475(4)
C1" C2" 1.383(4)
C1" C6" 1.401(4)
F2 B2 1.358(5)
C3" O3" 1.365(4)
C3" C2" 1.389(4)
C2" H2" 0.9300
C5" C6" 1.381(4)
O3" C7" 1.423(4)
C1 C1' 1.468(5)
C6" H6" 0.9300
C1' C6' 1.378(5)
C1' C2' 1.390(5)
F1 B2 1.382(5)
C6' C5' 1.374(5)
C6' H6' 0.9300
C2' C3' 1.372(5)
C2' H2' 0.9300
C4' C5' 1.364(5)
C4' C3' 1.367(6)
C4' H4' 0.9300
C5' H5' 0.9300
C8" H8"A 0.9600
C8" H8"B 0.9600
C8" H8"C 0.9600
C7" H7"A 0.9600
C7" H7"B 0.9600
C7" H7"C 0.9600
C3' H3' 0.9300
loop_
_geom_torsion_atom_site_label_1
_geom_torsion_atom_site_label_2
_geom_torsion_atom_site_label_3
_geom_torsion_atom_site_label_4
_geom_torsion
B2 O3 C3 C2 11.7(5)
B2 O3 C3 C1" -167.9(3)
C1 C2 C3 O3 2.6(5)
C1 C2 C3 C1" -177.7(3)
O3 C3 C1" C2" 2.7(4)
C2 C3 C1" C2" -177.0(3)
O3 C3 C1" C6" 179.8(3)
C2 C3 C1" C6" 0.2(5)
C5" C4" C3" O3" -179.9(3)
C5" C4" C3" C2" 0.9(5)
C6" C1" C2" C3" -1.1(5)
C3 C1" C2" C3" 176.1(3)
O3" C3" C2" C1" -179.0(3)
C4" C3" C2" C1" 0.2(5)
C8" O5" C5" C6" 2.2(5)
C8" O5" C5" C4" -178.1(3)
C3" C4" C5" O5" 178.9(3)
C3" C4" C5" C6" -1.3(5)
C4" C3" O3" C7" -3.7(5)
C2" C3" O3" C7" 175.5(3)
B2 O1 C1 C2 -10.7(5)
B2 O1 C1 C1' 169.8(3)
C3 C2 C1 O1 -3.2(5)
C3 C2 C1 C1' 176.2(3)
O5" C5" C6" C1" -179.7(3)
C4" C5" C6" C1" 0.5(5)
C2" C1" C6" C5" 0.7(5)
C3 C1" C6" C5" -176.4(3)
O1 C1 C1' C6' -163.5(3)
C2 C1 C1' C6' 17.0(5)
O1 C1 C1' C2' 13.8(5)
C2 C1 C1' C2' -165.7(3)
C2' C1' C6' C5' -0.3(5)
C1 C1' C6' C5' 177.0(3)
C1 O1 B2 F2 143.1(3)
C1 O1 B2 F1 -96.4(4)
C1 O1 B2 O3 22.8(5)
C3 O3 B2 F2 -143.4(3)
C3 O3 B2 F1 96.9(4)
C3 O3 B2 O1 -23.3(5)
C6' C1' C2' C3' -0.1(6)
C1 C1' C2' C3' -177.5(4)
C3' C4' C5' C6' -0.7(7)
C1' C6' C5' C4' 0.7(6)
C5' C4' C3' C2' 0.3(7)
C1' C2' C3' C4' 0.1(6)
