#------------------------------------------------------------------------------
#$Date: 2016-03-22 21:26:17 +0200 (Tue, 22 Mar 2016) $
#$Revision: 179019 $
#$URL: svn://www.crystallography.net/cod/cif/4/12/17/4121755.cif $
#------------------------------------------------------------------------------
#
# This file is available in the Crystallography Open Database (COD),
# http://www.crystallography.net/
#
# All data on this site have been placed in the public domain by the
# contributors.
#
data_4121755
loop_
_publ_author_name
'Rodriguez, Rodrigo A.'
'Pan, Chung-Mao'
'Yabe, Yuki'
'Kawamata, Yu'
'Eastgate, Martin D.'
'Baran, Phil S.'
_publ_section_title
;
 Palau'chlor: A Practical and Reactive Chlorinating Reagent.
;
_journal_issue                   19
_journal_name_full               'Journal of the American Chemical Society'
_journal_page_first              6908
_journal_page_last               6911
_journal_paper_doi               10.1021/ja5031744
_journal_volume                  136
_journal_year                    2014
_chemical_formula_sum            'C10 H16 B Cl N2 O2'
_chemical_formula_weight         242.51
_chemical_name_common            RR5174
_chemical_name_systematic
; 
 ? 
;
_space_group_crystal_system      triclinic
_space_group_IT_number           2
_space_group_name_Hall           '-P 1'
_space_group_name_H-M_alt        'P -1'
_symmetry_space_group_name_Hall  '-P 1'
_symmetry_space_group_name_H-M   'P -1'
_atom_sites_solution_hydrogens   geom
_audit_creation_method           SHELXL-2013
_cell_angle_alpha                75.010(2)
_cell_angle_beta                 78.014(2)
_cell_angle_gamma                73.334(2)
_cell_formula_units_Z            2
_cell_length_a                   7.6158(3)
_cell_length_b                   8.4994(3)
_cell_length_c                   10.1588(4)
_cell_measurement_reflns_used    8866
_cell_measurement_temperature    100(2)
_cell_measurement_theta_max      28.35
_cell_measurement_theta_min      2.82
_cell_volume                     602.15(4)
_computing_cell_refinement       'Bruker SAINT'
_computing_data_collection       'Bruker APEX2'
_computing_data_reduction        'Bruker SAINT'
_computing_molecular_graphics    'Bruker SHELXTL'
_computing_publication_material  'Bruker SHELXTL'
_computing_structure_refinement  'SHELXL-2013 (Sheldrick, 2013)'
_computing_structure_solution    'SHELXS-97 (Sheldrick 2008)'
_diffrn_ambient_temperature      100(2)
_diffrn_measured_fraction_theta_full 0.995
_diffrn_measured_fraction_theta_max 0.992
_diffrn_measurement_device_type  'Bruker APEX-II CCD'
_diffrn_measurement_method       '\f and \w scans'
_diffrn_radiation_type           MoK\a
_diffrn_radiation_wavelength     0.71073
_diffrn_reflns_av_R_equivalents  0.0239
_diffrn_reflns_av_unetI/netI     0.0183
_diffrn_reflns_Laue_measured_fraction_full 0.995
_diffrn_reflns_Laue_measured_fraction_max 0.992
_diffrn_reflns_limit_h_max       10
_diffrn_reflns_limit_h_min       -10
_diffrn_reflns_limit_k_max       10
_diffrn_reflns_limit_k_min       -11
_diffrn_reflns_limit_l_max       13
_diffrn_reflns_limit_l_min       -13
_diffrn_reflns_number            12375
_diffrn_reflns_point_group_measured_fraction_full 0.995
_diffrn_reflns_point_group_measured_fraction_max 0.992
_diffrn_reflns_theta_full        25.000
_diffrn_reflns_theta_max         28.351
_diffrn_reflns_theta_min         2.560
_exptl_absorpt_coefficient_mu    0.304
_exptl_absorpt_correction_T_max  0.925
_exptl_absorpt_correction_T_min  0.899
_exptl_absorpt_correction_type   multi-scan
_exptl_absorpt_process_details   SADABS
_exptl_crystal_colour            colourless
_exptl_crystal_density_diffrn    1.338
_exptl_crystal_description       plate
_exptl_crystal_F_000             256
_exptl_crystal_size_max          0.320
_exptl_crystal_size_mid          0.280
_exptl_crystal_size_min          0.140
_refine_diff_density_max         0.414
_refine_diff_density_min         -0.222
_refine_diff_density_rms         0.048
_refine_ls_extinction_method     none
_refine_ls_goodness_of_fit_ref   1.014
_refine_ls_hydrogen_treatment    constr
_refine_ls_matrix_type           full
_refine_ls_number_parameters     150
_refine_ls_number_reflns         2987
_refine_ls_number_restraints     0
_refine_ls_restrained_S_all      1.014
_refine_ls_R_factor_all          0.0312
_refine_ls_R_factor_gt           0.0290
_refine_ls_shift/su_max          0.000
_refine_ls_shift/su_mean         0.000
_refine_ls_structure_factor_coef Fsqd
_refine_ls_weighting_details
'w=1/[\s^2^(Fo^2^)+(0.0400P)^2^+0.2800P] where P=(Fo^2^+2Fc^2^)/3'
_refine_ls_weighting_scheme      calc
_refine_ls_wR_factor_gt          0.0758
_refine_ls_wR_factor_ref         0.0777
_reflns_Friedel_coverage         0.000
_reflns_number_gt                2789
_reflns_number_total             2987
_reflns_threshold_expression     'I > 2\s(I)'
_cod_data_source_file            ja5031744_si_008.cif
_cod_data_source_block           baran363
_cod_depositor_comments
'Adding full bibliography for 4121744--4121757.cif.'
_cod_database_code               4121755
#BEGIN Tags that were not found in dictionaries:
_shelx_space_group_comment
; 
The symmetry employed for this shelxl refinement is uniquely defined 
by the following loop, which should always be used as a source of 
symmetry information in preference to the above space-group names. 
They are only intended as comments. 
;
_shelx_estimated_absorpt_t_min   0.909
_shelx_estimated_absorpt_t_max   0.959
_shelxl_version_number           2013-3
_shelx_res_file
; 
TITL baran363 in P-1 
CELL 0.71073 7.6158 8.4994 10.1588 75.010 78.014 73.334 
ZERR 2.00 0.0003 0.0003 0.0004 0.002 0.002 0.002 
LATT 1 
SFAC C H N O B CL 
UNIT 20 32 4 4 2 2 
TEMP -173.000 
SIZE 0.140 0.280 0.320 
ACTA 50 
omit 0 0 1 
omit 0 4 2 
L.S. 6 
FMAP 2 
PLAN -3 0 0.00 
BOND 
WGHT    0.040000    0.280000 
FVAR       0.29068 
CL1   6    0.988877    0.191826    0.357477    11.00000    0.02065    0.01550 = 
         0.01262   -0.00285   -0.00584    0.00117 
O1    4    0.618473    0.716695    0.142863    11.00000    0.01662    0.01213 = 
         0.01123   -0.00485   -0.00304    0.00065 
O2    4    0.734676    0.562420    0.341489    11.00000    0.01672    0.01001 = 
         0.01247   -0.00406   -0.00371    0.00009 
N1    3    0.808761    0.403193    0.009882    11.00000    0.01422    0.01227 = 
         0.01090   -0.00392   -0.00190   -0.00199 
N2    3    0.903058    0.253040   -0.019735    11.00000    0.01750    0.01450 = 
         0.01553   -0.00747   -0.00106   -0.00137 
C1    1    0.510386    0.998452    0.187895    11.00000    0.02745    0.01081 = 
         0.01609   -0.00245   -0.00364   -0.00122 
AFIX 137 
H14   2    0.632945    1.015150    0.144038    11.00000   -1.50000 
H13   2    0.462299    1.062922    0.260514    11.00000   -1.50000 
H1    2    0.425917    1.036920    0.118879    11.00000   -1.50000 
AFIX   0 
C2    1    0.525893    0.812851    0.250342    11.00000    0.01586    0.01083 = 
         0.01123   -0.00447   -0.00172   -0.00016 
C3    1    0.816707    0.414382    0.140724    11.00000    0.01084    0.01234 = 
         0.01006   -0.00324   -0.00097   -0.00314 
C4    1    0.924562    0.257490    0.195852    11.00000    0.01242    0.01314 = 
         0.01125   -0.00324   -0.00201   -0.00197 
C5    1    0.974520    0.163161    0.094171    11.00000    0.01550    0.01319 = 
         0.01610   -0.00582   -0.00135   -0.00076 
AFIX  43 
H2    2    1.048739    0.051049    0.104436    11.00000   -1.20000 
AFIX   0 
C6    1    0.334615    0.777778    0.296347    11.00000    0.01402    0.01703 = 
         0.02198   -0.00669   -0.00308   -0.00040 
AFIX 137 
H15   2    0.271407    0.802693    0.215870    11.00000   -1.50000 
H16   2    0.261928    0.848842    0.360671    11.00000   -1.50000 
H3    2    0.347536    0.659251    0.342078    11.00000   -1.50000 
AFIX   0 
C7    1    0.656127    0.734641    0.363115    11.00000    0.01552    0.01002 = 
         0.01111   -0.00405   -0.00140   -0.00231 
C8    1    0.819567    0.812740    0.340149    11.00000    0.01936    0.02194 = 
         0.01678   -0.00750   -0.00114   -0.00916 
AFIX 137 
H4    2    0.908816    0.743068    0.401912    11.00000   -1.50000 
H6    2    0.775561    0.925876    0.359397    11.00000   -1.50000 
H5    2    0.879537    0.819550    0.244354    11.00000   -1.50000 
AFIX   0 
C9    1    0.557300    0.726389    0.510368    11.00000    0.02263    0.01560 = 
         0.01140   -0.00439    0.00057   -0.00428 
AFIX 137 
H7    2    0.469742    0.655673    0.528978    11.00000   -1.50000 
H8    2    0.490000    0.839900    0.522516    11.00000   -1.50000 
H9    2    0.648540    0.678283    0.574405    11.00000   -1.50000 
AFIX   0 
C10   1    0.716510    0.531018   -0.097866    11.00000    0.01918    0.01570 = 
         0.01147   -0.00145   -0.00505   -0.00278 
AFIX 137 
H10   2    0.805769    0.546420   -0.181913    11.00000   -1.50000 
H11   2    0.667103    0.637508   -0.067123    11.00000   -1.50000 
H12   2    0.614835    0.494789   -0.116769    11.00000   -1.50000 
AFIX   0 
B1    5    0.722602    0.568391    0.207902    11.00000    0.01111    0.01128 = 
         0.01248   -0.00350   -0.00107   -0.00263 
HKLF 4 1 1 0 0 0 1 0 0 0 1 
  
REM  baran363 in P-1 
REM R1 =  0.0290 for    2789 Fo > 4sig(Fo)  and  0.0312 for all    2987 data 
REM    150 parameters refined using      0 restraints 
  
END 
  
WGHT      0.0369      0.2501 
  
REM Highest difference peak  0.414,  deepest hole -0.222,  1-sigma level  0.048 
Q1    1   0.5906  0.7821  0.3072  11.00000  0.05    0.41 
Q2    1   0.9471  0.1999  0.1528  11.00000  0.05    0.40 
Q3    1   0.7700  0.4978  0.1637  11.00000  0.05    0.40 
;
_shelx_res_checksum              3034
_shelx_hkl_file
; 
  -1   0   0    8.79    0.24 
  -1   0   0    8.66    0.25 
  -1   0   0    8.45    0.24 
  -1   0   0    9.03    0.24 
   1   0   0    9.33    0.25 
   1   0   0    8.32    0.24 
   1   0   0    8.53    0.24 
   1   0   0    8.96    0.24 
   1   0   0    8.40    0.24 
  -2   0   0   15.71    0.44 
  -2   0   0   15.41    0.44 
  -2   0   0   14.57    0.44 
  -2   0   0   15.97    0.44 
  -2   0   0   15.43    0.45 
   2   0   0   16.07    0.44 
   2   0   0   15.58    0.44 
   2   0   0   15.52    0.43 
   2   0   0   15.22    0.45 
   2   0   0   14.90    0.43 
  -3   0   0   33.55    0.95 
  -3   0   0   37.20    0.96 
  -3   0   0   36.25    0.95 
  -3   0   0   33.78    0.97 
   3   0   0   35.25    0.95 
   3   0   0   35.87    0.97 
   3   0   0   34.77    0.95 
  -4   0   0   41.48    1.15 
  -4   0   0   41.57    1.15 
  -4   0   0   43.73    1.16 
  -4   0   0   41.96    1.18 
   4   0   0   41.48    1.14 
   4   0   0   42.93    1.14 
  -5   0   0    5.65    0.27 
  -5   0   0    5.96    0.28 
  -5   0   0    6.24    0.28 
   5   0   0    6.17    0.26 
   5   0   0    6.57    0.28 
  -6   0   0   18.00    0.63 
  -6   0   0   17.90    0.64 
  -6   0   0   18.78    0.63 
   6   0   0   18.74    0.60 
   6   0   0   18.69    0.62 
  -7   0   0    1.16    0.17 
  -7   0   0    1.25    0.17 
   7   0   0    1.50    0.16 
  -8   0   0    1.21    0.19 
  -8   0   0    1.16    0.19 
   8   0   0    1.31    0.17 
  -9   0   0   -0.02    0.10 
   9   0   0    0.01    0.06 
   9  -1   0    7.40    0.41 
  -9   1   0    8.03    0.45 
   8  -1   0    1.62    0.21 
  -8   1   0    1.44    0.21 
  -8   1   0    1.21    0.20 
   7  -1   0    7.07    0.35 
  -7   1   0    6.55    0.37 
  -7   1   0    6.12    0.35 
   6  -1   0    0.18    0.08 
   6  -1   0    0.29    0.08 
  -6   1   0    0.19    0.09 
  -6   1   0    0.14    0.08 
  -6   1   0    0.24    0.10 
   5  -1   0    0.46    0.09 
   5  -1   0    0.57    0.10 
  -5   1   0    0.22    0.07 
  -5   1   0    0.16    0.07 
  -5   1   0    0.42    0.10 
   4  -1   0   20.48    0.62 
   4  -1   0   19.09    0.61 
  -4   1   0   20.04    0.62 
  -4   1   0   20.56    0.62 
   3  -1   0    1.82    0.13 
   3  -1   0    1.92    0.12 
   3  -1   0    1.77    0.13 
  -3   1   0    1.75    0.13 
  -3   1   0    1.57    0.13 
  -3   1   0    1.75    0.12 
   2  -1   0   15.96    0.45 
   2  -1   0   15.18    0.45 
   2  -1   0   15.51    0.45 
   2  -1   0   14.37    0.45 
   2  -1   0   16.17    0.47 
  -2   1   0   15.90    0.45 
  -2   1   0   15.47    0.46 
  -2   1   0   16.18    0.46 
  -2   1   0   16.09    0.46 
  -2   1   0   14.74    0.46 
   1  -1   0   12.74    0.35 
   1  -1   0   12.36    0.34 
   1  -1   0   12.53    0.34 
   1  -1   0   12.01    0.35 
   1  -1   0   11.76    0.34 
  -1   1   0   11.65    0.34 
  -1   1   0   12.23    0.35 
  -1   1   0   11.65    0.34 
  -1   1   0   11.82    0.34 
   0  -1   0   25.62    0.64 
   0  -1   0   22.91    0.63 
   0  -1   0   25.80    0.64 
   0  -1   0   25.75    0.65 
   0   1   0   24.48    0.63 
   0   1   0   25.94    0.64 
   0   1   0   22.72    0.65 
   0   1   0   25.11    0.63 
  -1  -1   0    1.51    0.07 
  -1  -1   0    1.52    0.10 
  -1  -1   0    1.44    0.08 
  -1  -1   0    1.36    0.07 
  -1  -1   0    1.46    0.08 
  -1  -1   0    1.45    0.07 
   1   1   0    1.43    0.07 
   1   1   0    1.36    0.07 
   1   1   0    1.41    0.07 
   1   1   0    1.54    0.07 
   1   1   0    1.34    0.07 
   1   1   0    1.43    0.10 
  -2  -1   0  972.03   23.46 
  -2  -1   0  907.94   23.53 
  -2  -1   0  886.58   24.06 
  -2  -1   0 1000.00   23.57 
  -2  -1   0  960.78   23.48 
   2   1   0  969.33   23.49 
   2   1   0  972.62   24.02 
   2   1   0  950.85   23.42 
   2   1   0  932.64   23.42 
  -3  -1   0    4.29    0.17 
  -3  -1   0    3.97    0.17 
  -3  -1   0    4.22    0.17 
  -3  -1   0    4.03    0.16 
  -3  -1   0    3.86    0.17 
   3   1   0    3.83    0.17 
   3   1   0    4.26    0.17 
   3   1   0    3.59    0.17 
  -4  -1   0   54.58    1.43 
  -4  -1   0   53.77    1.43 
  -4  -1   0   50.70    1.46 
  -4  -1   0   56.86    1.43 
   4   1   0   54.60    1.45 
   4   1   0   53.94    1.41 
   4   1   0   53.24    1.41 
  -5  -1   0    5.55    0.26 
  -5  -1   0    6.44    0.27 
  -5  -1   0    5.93    0.27 
  -5  -1   0    6.10    0.27 
  -5  -1   0    6.14    0.26 
   5   1   0    5.55    0.25 
   5   1   0    6.02    0.24 
  -6  -1   0   32.80    1.01 
  -6  -1   0   34.01    0.99 
   6   1   0   34.31    0.96 
   6   1   0   32.88    0.97 
  -7  -1   0    0.96    0.15 
  -7  -1   0    0.86    0.13 
   7   1   0    0.93    0.13 
  -8  -1   0    4.00    0.28 
  -8  -1   0    4.08    0.29 
   8   1   0    4.29    0.26 
  -9  -1   0    1.89    0.25 
   9   1   0    1.94    0.18 
   9  -2   0   34.96    1.18 
  -9   2   0   35.48    1.20 
   8  -2   0   10.64    0.49 
  -8   2   0   10.01    0.50 
  -8   2   0    9.62    0.51 
   7  -2   0    4.70    0.30 
  -7   2   0    5.17    0.32 
  -7   2   0    4.84    0.31 
  -7   2   0    4.37    0.31 
   6  -2   0    5.19    0.28 
   6  -2   0    5.10    0.29 
  -6   2   0    5.06    0.30 
  -6   2   0    5.57    0.32 
  -6   2   0    5.10    0.30 
   5  -2   0   38.59    1.13 
   5  -2   0   38.83    1.13 
  -5   2   0   38.88    1.13 
  -5   2   0   38.16    1.12 
  -5   2   0   38.34    1.16 
   4  -2   0    8.39    0.34 
   4  -2   0    8.66    0.34 
  -4   2   0    8.12    0.34 
  -4   2   0    8.48    0.33 
  -4   2   0    8.33    0.35 
   3  -2   0   51.48    1.37 
   3  -2   0   50.11    1.34 
  -3   2   0   47.99    1.33 
  -3   2   0   49.54    1.34 
  -3   2   0   49.32    1.37 
   2  -2   0   30.66    0.84 
   2  -2   0   32.24    0.85 
   2  -2   0   30.25    0.84 
   2  -2   0   32.39    0.87 
  -2   2   0   29.51    0.84 
  -2   2   0   29.99    0.84 
  -2   2   0   29.90    0.86 
   1  -2   0   64.75    1.71 
   1  -2   0   67.46    1.71 
   1  -2   0   66.93    1.70 
   1  -2   0   69.57    1.75 
   1  -2   0   67.34    1.70 
  -1   2   0   66.80    1.70 
  -1   2   0   67.23    1.70 
  -1   2   0   66.58    1.70 
   0  -2   0  263.02    6.78 
   0  -2   0  277.81    6.87 
   0  -2   0  274.41    6.89 
   0  -2   0  274.59    6.81 
   0  -2   0  279.71    7.07 
   0   2   0  283.36    6.83 
   0   2   0  269.58    6.85 
   0   2   0  264.53    6.82 
   0   2   0  275.82    7.04 
   0   2   0  277.83    6.85 
  -1  -2   0   27.47    0.72 
  -1  -2   0   28.43    0.70 
  -1  -2   0   27.25    0.70 
  -1  -2   0   27.80    0.70 
   1   2   0   26.44    0.69 
   1   2   0   28.20    0.80 
  -2  -2   0  478.34   11.90 
  -2  -2   0  472.47   12.18 
  -2  -2   0  486.21   11.88 
  -2  -2   0  481.55   11.86 
  -2  -2   0  485.58   12.17 
   2   2   0  470.39   11.81 
   2   2   0  441.99   13.23 
   2   2   0  501.56   11.79 
   2   2   0  463.61   11.80 
   2   2   0  489.48   11.78 
   2   2   0  489.41   12.10 
  -3  -2   0   77.70    1.93 
  -3  -2   0   76.22    1.93 
  -3  -2   0   76.92    1.94 
  -3  -2   0   77.93    1.98 
  -3  -2   0   75.64    1.98 
   3   2   0   77.92    2.19 
   3   2   0   74.88    1.92 
   3   2   0   73.54    1.92 
   3   2   0   75.86    1.96 
   3   2   0   76.85    1.91 
  -4  -2   0  194.85    4.77 
  -4  -2   0  185.26    4.76 
  -4  -2   0  191.20    4.66 
  -4  -2   0  178.46    4.65 
   4   2   0  178.00    5.19 
   4   2   0  185.98    4.73 
   4   2   0  185.40    4.62 
   4   2   0  190.16    4.63 
  -5  -2   0    0.05    0.02 
  -5  -2   0    0.00    0.02 
  -5  -2   0    0.05    0.05 
  -5  -2   0    0.06    0.05 
   5   2   0   -0.02    0.03 
   5   2   0    0.03    0.05 
  -6  -2   0    9.04    0.37 
  -6  -2   0    8.37    0.36 
  -6  -2   0    8.28    0.35 
   6   2   0    8.91    0.34 
   6   2   0    8.71    0.31 
  -7  -2   0    0.50    0.11 
  -7  -2   0    0.69    0.12 
   7   2   0    0.69    0.11 
  -8  -2   0    4.45    0.28 
  -8  -2   0    4.28    0.29 
   8   2   0    4.09    0.32 
   8   2   0    4.49    0.25 
  -9  -2   0    0.92    0.17 
  -9  -2   0    1.03    0.17 
   9   2   0    1.27    0.22 
   8  -3   0    0.33    0.13 
  -8   3   0    0.23    0.11 
   7  -3   0   36.11    1.16 
  -7   3   0   34.50    1.16 
  -7   3   0   37.60    1.18 
  -7   3   0   36.97    1.21 
   6  -3   0   33.77    1.04 
   6  -3   0   32.35    1.04 
  -6   3   0   32.76    1.05 
  -6   3   0   33.90    1.05 
  -6   3   0   31.53    1.07 
   5  -3   0    2.74    0.21 
   5  -3   0    2.60    0.21 
  -5   3   0    2.84    0.22 
  -5   3   0    2.60    0.22 
  -5   3   0    2.67    0.20 
   4  -3   0    1.39    0.14 
   4  -3   0    1.18    0.15 
  -4   3   0    1.21    0.13 
  -4   3   0    0.97    0.13 
  -4   3   0    1.25    0.15 
   3  -3   0   45.49    1.26 
   3  -3   0   46.93    1.26 
  -3   3   0   44.78    1.26 
  -3   3   0   45.81    1.25 
  -3   3   0   45.09    1.28 
   2  -3   0    0.72    0.08 
   2  -3   0    0.75    0.07 
   2  -3   0    0.61    0.09 
   2  -3   0    0.86    0.10 
  -2   3   0    0.77    0.09 
  -2   3   0    0.49    0.08 
  -2   3   0    0.74    0.10 
   1  -3   0   87.39    2.17 
   1  -3   0   82.32    2.11 
   1  -3   0   83.44    2.12 
   1  -3   0   82.61    2.12 
  -1   3   0   79.04    2.10 
  -1   3   0   81.91    2.16 
  -1   3   0   83.09    2.11 
   0  -3   0   99.25    2.36 
   0  -3   0   89.36    2.34 
   0  -3   0   90.52    2.35 
   0  -3   0   97.20    2.35 
   0  -3   0   91.09    2.41 
   0   3   0   95.64    2.34 
   0   3   0   93.79    2.34 
   0   3   0   92.86    2.40 
   0   3   0   93.13    2.34 
  -1  -3   0  143.47    3.64 
  -1  -3   0  153.47    3.66 
  -1  -3   0  149.27    3.69 
  -1  -3   0  156.31    3.74 
  -1  -3   0  148.17    3.65 
   1   3   0  142.60    4.07 
   1   3   0  139.75    3.63 
  -2  -3   0   25.23    0.66 
  -2  -3   0   24.34    0.66 
  -2  -3   0   25.10    0.64 
  -2  -3   0   23.82    0.64 
  -2  -3   0   23.94    0.63 
   2   3   0   24.70    0.75 
   2   3   0   22.83    0.61 
   2   3   0   23.79    0.62 
  -3  -3   0   11.82    0.35 
  -3  -3   0   12.35    0.36 
  -3  -3   0   11.67    0.37 
  -3  -3   0   12.40    0.37 
  -3  -3   0   12.23    0.36 
   3   3   0   12.29    0.44 
   3   3   0   12.29    0.34 
   3   3   0   11.92    0.34 
   3   3   0   12.11    0.34 
  -4  -3   0  331.67    8.30 
  -4  -3   0  303.83    8.11 
  -4  -3   0  334.05    8.30 
  -4  -3   0  348.11    8.12 
   4   3   0  331.64    8.29 
   4   3   0  327.34    8.06 
   4   3   0  336.38    9.05 
   4   3   0  310.98    8.09 
  -5  -3   0   57.35    1.53 
  -5  -3   0   59.51    1.58 
  -5  -3   0   59.98    1.54 
  -5  -3   0   58.22    1.57 
   5   3   0   57.21    1.48 
   5   3   0   56.56    1.75 
   5   3   0   56.67    1.50 
  -6  -3   0    0.00    0.04 
  -6  -3   0    0.06    0.05 
  -6  -3   0    0.01    0.02 
   6   3   0    0.11    0.06 
   6   3   0   -0.01    0.07 
  -7  -3   0    2.31    0.18 
  -7  -3   0    2.03    0.18 
   7   3   0    2.08    0.22 
   7   3   0    2.15    0.16 
  -8  -3   0    5.81    0.33 
  -8  -3   0    5.81    0.32 
   8   3   0    6.09    0.39 
  -9  -3   0    2.11    0.22 
  -9  -3   0    1.92    0.18 
   9   3   0    1.89    0.23 
   8  -4   0    1.55    0.22 
   7  -4   0    2.00    0.22 
  -7   4   0    1.96    0.23 
   6  -4   0   14.37    0.60 
   6  -4   0   14.86    0.61 
  -6   4   0   16.08    0.61 
  -6   4   0   15.01    0.63 
  -6   4   0   16.63    0.63 
   5  -4   0   20.75    0.74 
   5  -4   0   20.60    0.74 
  -5   4   0   21.57    0.76 
  -5   4   0   23.22    0.76 
  -5   4   0   21.92    0.73 
   4  -4   0    4.72    0.27 
   4  -4   0    4.52    0.27 
  -4   4   0    4.64    0.27 
  -4   4   0    4.86    0.25 
  -4   4   0    5.24    0.28 
   3  -4   0   56.96    1.60 
   3  -4   0   58.27    1.60 
  -3   4   0   58.92    1.59 
  -3   4   0   57.57    1.63 
  -3   4   0   60.42    1.58 
   2  -4   0    7.77    0.30 
   2  -4   0    7.79    0.30 
   2  -4   0    7.16    0.30 
  -2   4   0    6.91    0.29 
  -2   4   0    7.51    0.28 
  -2   4   0    6.92    0.29 
   1  -4   0   11.57    0.38 
   1  -4   0   11.12    0.38 
   1  -4   0   11.02    0.37 
   1  -4   0   11.54    0.38 
  -1   4   0   10.59    0.36 
  -1   4   0   10.89    0.37 
  -1   4   0   11.10    0.35 
   0  -4   0   96.56    2.43 
   0  -4   0  100.95    2.43 
   0  -4   0   97.87    2.48 
   0  -4   0   92.07    2.42 
   0  -4   0   92.57    2.41 
   0   4   0   94.83    2.40 
   0   4   0   97.07    2.46 
   0   4   0   92.66    2.40 
  -1  -4   0   12.37    0.36 
  -1  -4   0   12.62    0.36 
  -1  -4   0   11.81    0.36 
  -1  -4   0   12.55    0.38 
  -1  -4   0   12.11    0.37 
   1   4   0   11.74    0.34 
  -2  -4   0   25.26    0.67 
  -2  -4   0   24.85    0.67 
  -2  -4   0   24.06    0.67 
  -2  -4   0   25.42    0.67 
  -2  -4   0   24.83    0.69 
  -2  -4   0   25.34    0.69 
   2   4   0   24.65    0.78 
  -3  -4   0    5.17    0.20 
  -3  -4   0    5.25    0.19 
  -3  -4   0    5.31    0.19 
  -3  -4   0    5.41    0.19 
  -3  -4   0    5.27    0.19 
   3   4   0    4.91    0.25 
  -4  -4   0    6.09    0.23 
  -4  -4   0    6.27    0.23 
  -4  -4   0    6.51    0.23 
  -4  -4   0    6.21    0.24 
  -4  -4   0    6.06    0.22 
   4   4   0    6.07    0.19 
   4   4   0    6.11    0.19 
   4   4   0    5.81    0.29 
  -5  -4   0    3.68    0.18 
  -5  -4   0    3.95    0.18 
  -5  -4   0    4.01    0.18 
  -5  -4   0    3.50    0.19 
   5   4   0    3.48    0.24 
   5   4   0    3.44    0.13 
   5   4   0    3.54    0.15 
  -6  -4   0   48.69    1.40 
  -6  -4   0   50.30    1.36 
   6   4   0   50.32    1.30 
   6   4   0   49.68    1.57 
  -7  -4   0   17.34    0.59 
  -7  -4   0   17.58    0.61 
   7   4   0   16.88    0.70 
  -8  -4   0    0.35    0.10 
  -8  -4   0    0.34    0.11 
   8   4   0    0.43    0.14 
  -9  -4   0   -0.01    0.07 
  -9  -4   0    0.22    0.06 
   9   4   0    0.04    0.07 
   7  -5   0    1.73    0.24 
  -7   5   0    1.54    0.23 
   6  -5   0   24.79    0.88 
   6  -5   0   23.28    0.86 
  -6   5   0   26.18    0.88 
  -6   5   0   23.37    0.88 
   5  -5   0   21.52    0.76 
   5  -5   0   21.56    0.76 
  -5   5   0   21.07    0.77 
  -5   5   0   21.64    0.76 
   4  -5   0   53.29    1.51 
   4  -5   0   50.90    1.51 
  -4   5   0   53.77    1.54 
  -4   5   0   52.39    1.48 
  -4   5   0   52.17    1.49 
   3  -5   0    6.35    0.31 
   3  -5   0    6.16    0.31 
  -3   5   0    6.32    0.28 
  -3   5   0    6.04    0.30 
  -3   5   0    6.08    0.30 
   2  -5   0    3.54    0.21 
   2  -5   0    3.19    0.20 
  -2   5   0    3.36    0.18 
  -2   5   0    3.23    0.20 
  -2   5   0    3.34    0.20 
   1  -5   0   76.22    2.02 
   1  -5   0   73.55    1.96 
   1  -5   0   78.49    1.97 
   1  -5   0   73.24    1.97 
  -1   5   0   74.24    1.99 
  -1   5   0   74.60    1.93 
  -1   5   0   73.70    1.94 
   0  -5   0   97.11    2.46 
   0  -5   0   92.94    2.46 
   0  -5   0   97.55    2.46 
   0  -5   0   97.63    2.52 
   0   5   0   94.23    2.49 
   0   5   0   97.30    2.42 
   0   5   0   96.56    2.43 
  -1  -5   0    6.96    0.25 
  -1  -5   0    7.15    0.27 
  -1  -5   0    6.90    0.25 
  -1  -5   0    7.66    0.26 
  -1  -5   0    7.09    0.25 
   1   5   0    6.81    0.23 
  -2  -5   0   74.99    1.97 
  -2  -5   0   77.05    1.92 
  -2  -5   0   76.49    1.97 
  -2  -5   0   76.82    1.92 
  -2  -5   0   74.63    1.92 
  -2  -5   0   73.24    1.92 
   2   5   0   73.81    2.17 
  -3  -5   0    3.73    0.17 
  -3  -5   0    3.77    0.15 
  -3  -5   0    3.57    0.16 
  -3  -5   0    3.80    0.16 
  -3  -5   0    3.78    0.16 
  -3  -5   0    3.88    0.16 
   3   5   0    3.56    0.22 
  -4  -5   0   43.53    1.18 
  -4  -5   0   44.46    1.15 
  -4  -5   0   42.70    1.15 
  -4  -5   0   43.57    1.18 
   4   5   0   42.17    1.34 
  -5  -5   0    0.28    0.07 
  -5  -5   0    0.22    0.06 
  -5  -5   0    0.32    0.05 
  -5  -5   0    0.32    0.06 
   5   5   0    0.21    0.09 
  -6  -5   0   42.19    1.22 
  -6  -5   0   42.96    1.19 
   6   5   0   42.90    1.39 
  -7  -5   0    3.28    0.21 
  -7  -5   0    3.02    0.20 
   7   5   0    3.21    0.26 
  -8  -5   0    6.15    0.32 
  -8  -5   0    6.95    0.34 
   8   5   0    6.60    0.41 
  -9  -5   0    3.79    0.27 
  -9  -5   0    3.72    0.26 
   9   5   0    4.04    0.33 
   6  -6   0    5.41    0.35 
   6  -6   0    5.04    0.36 
  -6   6   0    4.67    0.32 
   5  -6   0    1.75    0.19 
   5  -6   0    1.94    0.25 
  -5   6   0    2.13    0.22 
  -5   6   0    1.93    0.20 
   4  -6   0    5.83    0.32 
   4  -6   0    5.43    0.33 
  -4   6   0    5.72    0.31 
  -4   6   0    5.10    0.31 
   3  -6   0    2.47    0.20 
   3  -6   0    2.51    0.22 
  -3   6   0    3.00    0.21 
  -3   6   0    2.49    0.20 
   2  -6   0   80.37    2.18 
   2  -6   0   81.66    2.19 
  -2   6   0   81.90    2.16 
  -2   6   0   82.61    2.21 
   1  -6   0   15.65    0.54 
   1  -6   0   15.84    0.54 
   1  -6   0   16.07    0.54 
  -1   6   0   15.83    0.51 
  -1   6   0   15.48    0.49 
  -1   6   0   16.19    0.52 
   0  -6   0    5.02    0.23 
   0  -6   0    5.09    0.23 
   0  -6   0    4.64    0.23 
   0  -6   0    4.89    0.22 
   0   6   0    4.56    0.20 
   0   6   0    4.83    0.20 
   0   6   0    4.90    0.18 
  -1  -6   0   33.97    0.93 
  -1  -6   0   32.93    0.90 
  -1  -6   0   31.72    0.90 
  -1  -6   0   33.24    0.90 
   1   6   0   32.25    0.85 
   1   6   0   29.67    0.86 
  -2  -6   0    7.83    0.28 
  -2  -6   0    7.70    0.27 
  -2  -6   0    7.66    0.29 
  -2  -6   0    7.00    0.27 
  -2  -6   0    7.50    0.28 
  -3  -6   0    0.42    0.07 
  -3  -6   0    0.48    0.07 
  -3  -6   0    0.50    0.05 
  -3  -6   0    0.53    0.08 
  -3  -6   0    0.48    0.05 
   3   6   0    0.65    0.12 
  -4  -6   0   48.69    1.30 
  -4  -6   0   47.76    1.33 
  -4  -6   0   48.59    1.30 
  -4  -6   0   48.93    1.36 
  -4  -6   0   51.16    1.30 
   4   6   0   47.70    1.51 
  -5  -6   0    5.91    0.25 
  -5  -6   0    6.04    0.25 
   5   6   0    5.93    0.33 
  -6  -6   0   20.07    0.64 
  -6  -6   0   21.06    0.66 
   6   6   0   20.18    0.78 
  -7  -6   0    4.02    0.23 
  -7  -6   0    3.86    0.22 
   7   6   0    3.79    0.29 
  -8  -6   0   16.93    0.61 
  -8  -6   0   17.49    0.62 
   8   6   0   16.72    0.74 
  -9  -6   0    1.88    0.18 
   9   6   0    1.83    0.22 
   5  -7   0    0.64    0.13 
   5  -7   0    0.31    0.13 
   4  -7   0    2.67    0.22 
   4  -7   0    2.44    0.25 
  -4   7   0    2.88    0.23 
   3  -7   0    8.65    0.41 
   3  -7   0    8.53    0.42 
  -3   7   0    8.41    0.40 
  -3   7   0    8.53    0.39 
   2  -7   0   -0.06    0.07 
   2  -7   0    0.01    0.05 
  -2   7   0   -0.01    0.05 
  -2   7   0    0.04    0.06 
   1  -7   0    0.08    0.08 
   1  -7   0    0.18    0.07 
  -1   7   0    0.13    0.07 
  -1   7   0    0.13    0.05 
   0  -7   0   13.02    0.46 
   0  -7   0   12.10    0.46 
   0   7   0   13.16    0.42 
   0   7   0   13.33    0.42 
  -1  -7   0   43.18    1.19 
  -1  -7   0   42.68    1.19 
   1   7   0   43.30    1.12 
  -2  -7   0   27.49    0.82 
  -2  -7   0   27.72    0.80 
  -2  -7   0   27.94    0.80 
  -3  -7   0    0.34    0.07 
  -3  -7   0    0.32    0.06 
  -3  -7   0    0.35    0.07 
   3   7   0    0.22    0.10 
  -4  -7   0    0.70    0.07 
  -4  -7   0    0.88    0.10 
  -4  -7   0    0.83    0.10 
   4   7   0    1.18    0.16 
  -5  -7   0    0.36    0.07 
  -5  -7   0    0.46    0.09 
  -5  -7   0    0.64    0.07 
   5   7   0    0.52    0.12 
  -6  -7   0    0.15    0.06 
  -6  -7   0    0.17    0.06 
   6   7   0    0.26    0.10 
  -7  -7   0    0.36    0.08 
  -7  -7   0    0.34    0.09 
   7   7   0    0.17    0.09 
  -8  -7   0    0.92    0.13 
  -8  -7   0    1.28    0.14 
   8   7   0    0.86    0.17 
   4  -8   0   15.15    0.65 
   4  -8   0   15.12    0.64 
   3  -8   0    0.70    0.16 
   3  -8   0    0.59    0.13 
  -3   8   0    0.55    0.10 
   2  -8   0   17.25    0.63 
   2  -8   0   16.33    0.64 
  -2   8   0   16.70    0.58 
   1  -8   0    8.04    0.39 
   1  -8   0    8.25    0.37 
   0  -8   0   12.65    0.49 
   0  -8   0   13.10    0.48 
  -1  -8   0    5.91    0.27 
  -2  -8   0   14.09    0.49 
  -2  -8   0   12.93    0.47 
  -2  -8   0   14.20    0.47 
  -3  -8   0   19.87    0.62 
  -3  -8   0   20.39    0.65 
  -3  -8   0   20.39    0.63 
  -4  -8   0   34.04    0.96 
  -4  -8   0   34.33    0.97 
  -4  -8   0   33.07    0.99 
   4   8   0   34.46    1.15 
  -5  -8   0    6.92    0.28 
  -5  -8   0    6.87    0.30 
  -5  -8   0    6.39    0.29 
   5   8   0    7.40    0.39 
  -6  -8   0    3.79    0.21 
  -6  -8   0    3.90    0.21 
   6   8   0    3.98    0.28 
  -7  -8   0    8.22    0.35 
  -7  -8   0    8.24    0.35 
   7   8   0    7.64    0.44 
  -8  -8   0    0.23    0.07 
  -8  -8   0    0.30    0.07 
   8   8   0    0.23    0.09 
   3  -9   0    1.58    0.17 
   3  -9   0    1.79    0.24 
   2  -9   0    5.98    0.36 
   2  -9   0    5.56    0.32 
   1  -9   0    0.90    0.16 
   1  -9   0    0.64    0.12 
   0  -9   0    3.22    0.21 
   0  -9   0    3.03    0.23 
  -1  -9   0    1.60    0.13 
  -1  -9   0    1.80    0.17 
  -2  -9   0    2.92    0.20 
  -2  -9   0    2.82    0.19 
  -2  -9   0    3.09    0.18 
  -3  -9   0    0.86    0.12 
  -3  -9   0    1.09    0.10 
  -3  -9   0    1.06    0.12 
  -4  -9   0    4.39    0.23 
  -4  -9   0    4.74    0.23 
  -4  -9   0    4.69    0.24 
  -5  -9   0    6.05    0.28 
  -5  -9   0    5.91    0.28 
   5   9   0    5.50    0.34 
  -6  -9   0    4.94    0.25 
  -6  -9   0    4.93    0.25 
   6   9   0    4.72    0.33 
  -7  -9   0    1.46    0.12 
  -7  -9   0    1.70    0.15 
   7   9   0    1.99    0.21 
   1 -10   0    1.42    0.14 
   0 -10   0    4.30    0.25 
  -1 -10   0    3.61    0.22 
  -1 -10   0    3.39    0.23 
  -1 -10   0    3.08    0.23 
  -2 -10   0    0.10    0.06 
  -2 -10   0    0.07    0.04 
  -2 -10   0    0.15    0.04 
  -3 -10   0    0.11    0.05 
  -3 -10   0    0.07    0.06 
  -4 -10   0    0.02    0.03 
  -4 -10   0    0.04    0.05 
  -5 -10   0    1.48    0.12 
  -5 -10   0    1.50    0.14 
  -6 -10   0   15.29    0.55 
  -5 -10   1    0.95    0.14 
  -5 -10   1    0.97    0.10 
  -4 -10   1    1.12    0.12 
  -4 -10   1    1.29    0.17 
  -3 -10   1   33.17    1.01 
  -3 -10   1   33.66    1.05 
  -3 -10   1   32.06    1.02 
  -2 -10   1    4.43    0.27 
  -2 -10   1    5.17    0.27 
  -2 -10   1    4.77    0.28 
  -1 -10   1   11.24    0.49 
  -1 -10   1   11.95    0.53 
  -1 -10   1   11.69    0.48 
   0 -10   1    3.96    0.29 
   0 -10   1    3.81    0.25 
   1 -10   1   19.85    0.75 
   1 -10   1   20.45    0.77 
  -7  -9   1    0.05    0.05 
  -6  -9   1    0.05    0.06 
  -6  -9   1    0.03    0.03 
  -5  -9   1   18.10    0.64 
  -5  -9   1   17.90    0.62 
  -4  -9   1    4.11    0.22 
  -4  -9   1    4.04    0.24 
  -4  -9   1    3.93    0.24 
  -3  -9   1    3.35    0.22 
  -3  -9   1    3.67    0.20 
  -3  -9   1    3.19    0.21 
  -2  -9   1    2.90    0.18 
  -2  -9   1    2.94    0.21 
  -2  -9   1    2.85    0.21 
  -1  -9   1   12.81    0.49 
  -1  -9   1   12.63    0.51 
  -1  -9   1   12.37    0.50 
   0  -9   1    0.65    0.12 
   0  -9   1    0.74    0.14 
   1  -9   1   10.51    0.46 
   2  -9   1    0.08    0.05 
   3  -9   1   34.67    1.15 
   3  -9   1   33.52    1.15 
   8   8  -1    2.28    0.22 
  -8  -8   1    2.29    0.19 
   7   8  -1    8.92    0.46 
  -7  -8   1    8.53    0.38 
  -7  -8   1    8.30    0.38 
   6   8  -1    0.40    0.10 
  -6  -8   1    0.44    0.08 
  -6  -8   1    0.40    0.09 
  -6  -8   1    0.43    0.09 
   5   8  -1    5.65    0.33 
  -5  -8   1    5.97    0.27 
  -5  -8   1    5.34    0.27 
  -5  -8   1    5.71    0.28 
   4   8  -1    0.39    0.10 
  -4  -8   1    0.35    0.07 
  -4  -8   1    0.33    0.08 
  -4  -8   1    0.39    0.09 
  -3  -8   1    4.75    0.25 
  -3  -8   1    4.88    0.25 
  -3  -8   1    4.65    0.23 
  -2  -8   1    6.77    0.31 
  -2  -8   1    7.21    0.33 
  -2  -8   1    7.13    0.31 
  -1  -8   1   58.11    1.62 
  -1  -8   1   58.09    1.66 
  -1  -8   1   58.83    1.61 
   0  -8   1    6.48    0.33 
   0  -8   1    6.81    0.32 
  -1   8  -1    0.26    0.07 
   1  -8   1    0.31    0.08 
   1  -8   1    0.22    0.10 
  -2   8  -1    0.53    0.10 
   2  -8   1    0.35    0.09 
   2  -8   1    0.29    0.12 
  -3   8  -1    1.33    0.15 
   3  -8   1    1.13    0.17 
   3  -8   1    1.12    0.19 
  -4   8  -1    4.18    0.28 
   4  -8   1    3.87    0.28 
   4  -8   1    3.43    0.31 
   8   7  -1    7.96    0.44 
  -8  -7   1    7.28    0.35 
  -8  -7   1    7.22    0.36 
   7   7  -1    1.98    0.20 
  -7  -7   1    2.28    0.18 
  -7  -7   1    2.15    0.18 
   6   7  -1   16.55    0.65 
  -6  -7   1   14.84    0.52 
  -6  -7   1   14.56    0.53 
  -6  -7   1   14.51    0.54 
   5   7  -1   13.54    0.56 
  -5  -7   1   13.75    0.47 
  -5  -7   1   13.37    0.49 
  -5  -7   1   13.00    0.47 
   4   7  -1   -0.10    0.05 
  -4  -7   1   -0.01    0.03 
  -4  -7   1   -0.02    0.04 
  -4  -7   1   -0.03    0.04 
   3   7  -1   25.76    0.87 
  -3  -7   1   24.96    0.76 
  -3  -7   1   25.53    0.76 
  -3  -7   1   25.69    0.78 
   2   7  -1   19.69    0.55 
  -2  -7   1   20.14    0.65 
  -2  -7   1   20.45    0.63 
  -2  -7   1   20.28    0.63 
   1   7  -1    4.97    0.20 
   1   7  -1    4.98    0.21 
  -1  -7   1    5.29    0.25 
  -1  -7   1    5.10    0.25 
  -1  -7   1    4.92    0.25 
   0   7  -1   12.19    0.43 
   0   7  -1   12.88    0.43 
   0  -7   1   12.64    0.47 
  -1   7  -1   93.60    2.48 
  -1   7  -1   91.51    2.42 
   1  -7   1   94.05    2.47 
   1  -7   1   91.37    2.47 
  -2   7  -1    4.24    0.25 
  -2   7  -1    4.69    0.25 
   2  -7   1    4.37    0.26 
   2  -7   1    4.25    0.28 
  -3   7  -1   25.28    0.83 
  -3   7  -1   24.51    0.84 
   3  -7   1   25.11    0.86 
   3  -7   1   25.65    0.86 
  -4   7  -1    8.55    0.41 
   4  -7   1    8.13    0.42 
   4  -7   1    8.60    0.44 
  -5   7  -1   13.00    0.56 
   5  -7   1   12.20    0.56 
   5  -7   1   11.00    0.55 
   9   6  -1    3.60    0.29 
  -9  -6   1    3.32    0.27 
   8   6  -1   13.02    0.61 
  -8  -6   1   12.42    0.51 
  -8  -6   1   12.16    0.50 
   7   6  -1    0.26    0.10 
  -7  -6   1    0.54    0.11 
  -7  -6   1    0.39    0.10 
   6   6  -1    0.39    0.11 
  -6  -6   1    0.09    0.05 
  -6  -6   1    0.15    0.07 
   5   6  -1    0.72    0.13 
  -5  -6   1    0.30    0.08 
  -5  -6   1    0.49    0.09 
   4   6  -1    5.53    0.30 
  -4  -6   1    6.04    0.26 
  -4  -6   1    6.40    0.26 
  -4  -6   1    6.06    0.27 
   3   6  -1    4.91    0.26 
   3   6  -1    4.84    0.17 
  -3  -6   1    5.28    0.22 
  -3  -6   1    4.90    0.22 
  -3  -6   1    5.01    0.23 
  -3  -6   1    5.05    0.23 
  -3  -6   1    5.06    0.24 
   2   6  -1    1.22    0.09 
   2   6  -1    1.23    0.07 
  -2  -6   1    1.19    0.11 
  -2  -6   1    1.15    0.11 
  -2  -6   1    1.55    0.10 
  -2  -6   1    1.33    0.12 
  -2  -6   1    1.43    0.10 
   1   6  -1    2.99    0.14 
   1   6  -1    2.91    0.15 
  -1  -6   1    2.94    0.16 
  -1  -6   1    3.43    0.17 
  -1  -6   1    2.94    0.17 
  -1  -6   1    2.94    0.17 
   0   6  -1    0.46    0.07 
   0   6  -1    0.41    0.06 
   0   6  -1    0.35    0.08 
   0  -6   1    0.46    0.08 
   0  -6   1    0.57    0.09 
   0  -6   1    0.42    0.09 
  -1   6  -1   20.87    0.62 
  -1   6  -1   20.51    0.65 
  -1   6  -1   20.51    0.64 
   1  -6   1   20.87    0.67 
   1  -6   1   19.74    0.66 
  -2   6  -1    2.16    0.17 
  -2   6  -1    2.22    0.18 
   2  -6   1    2.34    0.20 
   2  -6   1    2.07    0.18 
  -3   6  -1   48.41    1.43 
  -3   6  -1   50.64    1.41 
   3  -6   1   47.83    1.43 
   3  -6   1   49.34    1.43 
  -4   6  -1    3.97    0.28 
  -4   6  -1    4.92    0.29 
   4  -6   1    4.35    0.28 
   4  -6   1    4.53    0.30 
  -5   6  -1    6.02    0.36 
  -5   6  -1    6.23    0.35 
   5  -6   1    6.03    0.37 
   5  -6   1    5.90    0.35 
  -6   6  -1    0.02    0.09 
  -6   6  -1   -0.05    0.07 
   6  -6   1    0.09    0.09 
   6  -6   1    0.05    0.09 
   9   5  -1    4.16    0.33 
  -9  -5   1    3.94    0.29 
   8   5  -1   54.05    1.78 
  -8  -5   1   55.69    1.60 
  -8  -5   1   52.04    1.54 
   7   5  -1   32.08    1.13 
  -7  -5   1   31.64    0.97 
  -7  -5   1   32.55    1.00 
   6   5  -1    1.10    0.16 
  -6  -5   1    0.95    0.13 
  -6  -5   1    1.13    0.14 
   5   5  -1   11.36    0.47 
   5   5  -1   11.05    0.33 
  -5  -5   1   10.72    0.40 
  -5  -5   1   10.44    0.39 
   4   5  -1    0.65    0.07 
   4   5  -1    0.82    0.13 
  -4  -5   1    0.70    0.07 
  -4  -5   1    0.75    0.10 
  -4  -5   1    0.62    0.06 
  -4  -5   1    0.68    0.09 
   3   5  -1   39.81    1.05 
   3   5  -1   40.45    1.07 
   3   5  -1   40.67    1.25 
  -3  -5   1   40.61    1.10 
  -3  -5   1   42.11    1.14 
  -3  -5   1   40.60    1.10 
  -3  -5   1   41.17    1.13 
  -3  -5   1   41.68    1.11 
   2   5  -1    5.88    0.26 
   2   5  -1    5.47    0.20 
   2   5  -1    4.77    0.19 
  -2  -5   1    5.26    0.23 
  -2  -5   1    5.74    0.22 
  -2  -5   1    5.74    0.23 
  -2  -5   1    5.48    0.22 
  -2  -5   1    6.16    0.23 
   1   5  -1    2.54    0.13 
   1   5  -1    2.71    0.13 
   1   5  -1    2.65    0.11 
  -1  -5   1    2.79    0.15 
  -1  -5   1    2.80    0.14 
  -1  -5   1    2.38    0.14 
  -1  -5   1    2.78    0.15 
   0   5  -1   17.30    0.53 
   0   5  -1   17.20    0.51 
   0   5  -1   17.50    0.53 
   0  -5   1   16.80    0.54 
   0  -5   1   17.89    0.56 
   0  -5   1   18.21    0.54 
   0  -5   1   16.99    0.54 
  -1   5  -1    3.75    0.18 
  -1   5  -1    3.36    0.19 
  -1   5  -1    3.32    0.19 
   1  -5   1    3.33    0.19 
   1  -5   1    3.13    0.19 
   1  -5   1    3.53    0.19 
   1  -5   1    3.55    0.18 
  -2   5  -1    0.64    0.09 
  -2   5  -1    0.62    0.10 
  -2   5  -1    0.41    0.09 
   2  -5   1    0.53    0.11 
   2  -5   1    0.56    0.11 
  -3   5  -1  103.22    2.68 
  -3   5  -1   98.69    2.68 
  -3   5  -1  103.14    2.76 
   3  -5   1  102.46    2.71 
   3  -5   1  104.44    2.71 
  -4   5  -1   10.09    0.43 
  -4   5  -1    9.87    0.41 
  -4   5  -1    9.74    0.43 
   4  -5   1    9.49    0.43 
   4  -5   1    9.10    0.43 
  -5   5  -1    1.00    0.16 
  -5   5  -1    1.07    0.19 
   5  -5   1    0.67    0.15 
   5  -5   1    0.71    0.15 
  -6   5  -1    1.33    0.22 
  -6   5  -1    1.06    0.18 
   6  -5   1    1.07    0.17 
   6  -5   1    1.55    0.23 
  -7   5  -1   -0.01    0.09 
  -7   5  -1    0.26    0.11 
   7  -5   1    0.03    0.09 
   9   4  -1    4.14    0.33 
  -9  -4   1    4.02    0.30 
   8   4  -1    0.47    0.14 
  -8  -4   1    0.36    0.10 
  -8  -4   1    0.32    0.11 
   7   4  -1    0.45    0.13 
   7   4  -1    0.44    0.09 
  -7  -4   1    0.45    0.10 
  -7  -4   1    0.33    0.10 
   6   4  -1   58.86    1.55 
   6   4  -1   57.18    1.82 
  -6  -4   1   59.36    1.65 
  -6  -4   1   60.47    1.62 
   5   4  -1   58.27    1.52 
   5   4  -1   56.60    1.77 
  -5  -4   1   61.73    1.62 
  -5  -4   1   58.25    1.57 
  -5  -4   1   58.40    1.61 
   4   4  -1    0.31    0.05 
   4   4  -1    0.26    0.08 
   4   4  -1    0.38    0.05 
  -4  -4   1    0.45    0.06 
  -4  -4   1    0.31    0.06 
  -4  -4   1    0.37    0.07 
  -4  -4   1    0.36    0.07 
   3   4  -1   40.46    1.20 
   3   4  -1   37.75    1.02 
   3   4  -1   38.60    1.05 
  -3  -4   1   40.12    1.09 
  -3  -4   1   41.13    1.06 
  -3  -4   1   39.40    1.06 
  -3  -4   1   39.43    1.09 
   2   4  -1   33.28    0.88 
   2   4  -1   32.01    0.86 
   2   4  -1   32.17    0.99 
   2   4  -1   32.61    0.84 
  -2  -4   1   33.21    0.91 
  -2  -4   1   32.51    0.88 
  -2  -4   1   33.46    0.88 
  -2  -4   1   32.32    0.88 
  -2  -4   1   33.21    0.91 
  -2  -4   1   32.20    0.88 
   1   4  -1   72.86    1.90 
   1   4  -1   76.43    1.89 
   1   4  -1   73.74    1.95 
  -1  -4   1   74.74    1.92 
  -1  -4   1   75.69    1.95 
  -1  -4   1   75.17    1.92 
  -1  -4   1   73.75    1.97 
  -1  -4   1   78.29    1.97 
  -1  -4   1   74.76    1.92 
   0   4  -1    0.67    0.06 
   0   4  -1    0.58    0.07 
   0   4  -1    0.49    0.07 
   0  -4   1    0.51    0.08 
   0  -4   1    0.55    0.06 
   0  -4   1    0.57    0.07 
   0  -4   1    0.45    0.07 
  -1   4  -1    9.21    0.32 
  -1   4  -1    9.32    0.33 
  -1   4  -1    8.80    0.33 
   1  -4   1    8.97    0.33 
   1  -4   1    9.84    0.33 
   1  -4   1    8.88    0.33 
   1  -4   1    9.64    0.34 
  -2   4  -1   14.79    0.50 
  -2   4  -1   14.90    0.48 
  -2   4  -1   14.45    0.49 
   2  -4   1   14.25    0.50 
   2  -4   1   15.24    0.50 
   2  -4   1   15.70    0.51 
  -3   4  -1    8.84    0.34 
  -3   4  -1    8.27    0.35 
  -3   4  -1    7.95    0.35 
   3  -4   1    8.37    0.35 
   3  -4   1    7.97    0.35 
  -4   4  -1    9.61    0.40 
  -4   4  -1    9.29    0.41 
  -4   4  -1    9.48    0.39 
   4  -4   1    9.70    0.41 
   4  -4   1    8.88    0.40 
  -5   4  -1   67.74    1.99 
  -5   4  -1   68.52    1.94 
  -5   4  -1   72.49    1.94 
   5  -4   1   70.91    1.95 
   5  -4   1   69.92    1.95 
  -6   4  -1    7.20    0.38 
  -6   4  -1    6.75    0.39 
  -6   4  -1    7.10    0.38 
   6  -4   1    6.79    0.38 
   6  -4   1    7.83    0.39 
  -7   4  -1    6.53    0.41 
  -7   4  -1    6.90    0.41 
   7  -4   1    7.67    0.42 
  -8   4  -1    1.36    0.22 
   8  -4   1    0.89    0.17 
   9   3  -1    4.78    0.36 
  -9  -3   1    4.62    0.32 
   8   3  -1    7.50    0.44 
  -8  -3   1    7.76    0.39 
  -8  -3   1    7.28    0.38 
   7   3  -1    0.45    0.13 
   7   3  -1    0.48    0.09 
  -7  -3   1    0.61    0.13 
  -7  -3   1    0.62    0.12 
   6   3  -1   63.81    1.98 
   6   3  -1   65.26    1.72 
  -6  -3   1   63.42    1.75 
  -6  -3   1   66.51    1.86 
  -6  -3   1   65.14    1.80 
   5   3  -1   27.82    0.76 
   5   3  -1   26.91    0.92 
   5   3  -1   26.89    0.78 
  -5  -3   1   28.17    0.81 
  -5  -3   1   26.68    0.82 
  -5  -3   1   27.85    0.83 
  -5  -3   1   27.97    0.81 
   4   3  -1   66.17    1.72 
   4   3  -1   66.00    1.96 
   4   3  -1   67.47    1.71 
   4   3  -1   65.58    1.76 
  -4  -3   1   69.16    1.75 
  -4  -3   1   65.92    1.79 
  -4  -3   1   65.84    1.74 
  -4  -3   1   69.27    1.80 
   3   3  -1   34.54    1.06 
   3   3  -1   34.44    0.94 
   3   3  -1   34.92    0.90 
   3   3  -1   34.31    0.92 
   3   3  -1   35.25    0.94 
  -3  -3   1   34.50    0.94 
  -3  -3   1   35.89    0.96 
  -3  -3   1   34.90    0.94 
  -3  -3   1   35.23    0.96 
  -3  -3   1   34.80    0.94 
   2   3  -1   20.70    0.64 
   2   3  -1   20.42    0.55 
   2   3  -1   19.75    0.56 
   2   3  -1   20.79    0.57 
  -2  -3   1   20.51    0.59 
  -2  -3   1   20.24    0.59 
  -2  -3   1   21.47    0.58 
  -2  -3   1   20.12    0.57 
  -2  -3   1   21.45    0.58 
   1   3  -1    6.12    0.24 
   1   3  -1    7.03    0.22 
   1   3  -1    6.59    0.22 
   1   3  -1    6.78    0.23 
  -1  -3   1    7.01    0.24 
  -1  -3   1    7.20    0.24 
  -1  -3   1    6.99    0.24 
  -1  -3   1    6.80    0.23 
  -1  -3   1    6.88    0.23 
  -1  -3   1    6.97    0.23 
   0   3  -1   36.56    1.00 
   0   3  -1   37.15    0.98 
   0  -3   1   36.88    0.99 
   0  -3   1   37.89    0.99 
   0  -3   1   38.17    0.99 
   0  -3   1   36.24    0.98 
   0  -3   1   37.60    1.01 
  -1   3  -1   23.01    0.64 
  -1   3  -1   23.12    0.66 
  -1   3  -1   21.11    0.64 
   1  -3   1   23.31    0.65 
   1  -3   1   22.57    0.65 
   1  -3   1   21.90    0.64 
  -2   3  -1    9.84    0.34 
  -2   3  -1    9.63    0.35 
  -2   3  -1    9.49    0.35 
   2  -3   1   10.44    0.36 
   2  -3   1   10.08    0.36 
   2  -3   1    9.94    0.35 
  -3   3  -1    4.77    0.23 
  -3   3  -1    4.57    0.23 
  -3   3  -1    4.17    0.23 
   3  -3   1    4.89    0.23 
   3  -3   1    4.43    0.23 
  -4   3  -1    0.86    0.13 
  -4   3  -1    0.96    0.13 
  -4   3  -1    0.76    0.11 
   4  -3   1    0.88    0.13 
   4  -3   1    0.72    0.11 
  -5   3  -1    2.84    0.23 
  -5   3  -1    3.31    0.23 
  -5   3  -1    2.85    0.22 
   5  -3   1    2.73    0.21 
   5  -3   1    3.03    0.22 
  -6   3  -1    1.27    0.19 
  -6   3  -1    1.21    0.18 
  -6   3  -1    0.91    0.16 
   6  -3   1    1.01    0.17 
   6  -3   1    1.06    0.16 
  -7   3  -1   23.51    0.86 
  -7   3  -1   24.13    0.85 
  -7   3  -1   22.86    0.87 
   7  -3   1   24.31    0.85 
  -8   3  -1    5.64    0.37 
  -8   3  -1    6.82    0.40 
  -8   3  -1    5.72    0.37 
   8  -3   1    6.47    0.39 
   9   2  -1    6.05    0.42 
  -9  -2   1    6.26    0.38 
   8   2  -1    6.04    0.30 
  -8  -2   1    5.98    0.34 
  -8  -2   1    5.70    0.34 
   7   2  -1   17.40    0.58 
  -7  -2   1   16.83    0.63 
  -7  -2   1   17.03    0.62 
   6   2  -1   30.18    0.88 
  -6  -2   1   29.20    0.90 
  -6  -2   1   31.08    0.94 
   5   2  -1   15.33    0.51 
  -5  -2   1   17.19    0.56 
  -5  -2   1   16.24    0.55 
  -5  -2   1   17.34    0.54 
  -5  -2   1   16.29    0.53 
   4   2  -1   88.50    2.30 
   4   2  -1   89.06    2.36 
  -4  -2   1   89.00    2.38 
  -4  -2   1   88.09    2.32 
  -4  -2   1   93.46    2.33 
  -4  -2   1   94.85    2.39 
   3   2  -1  305.43    7.44 
   3   2  -1  309.47    7.27 
   3   2  -1  289.27    7.25 
  -3  -2   1  272.39    7.36 
  -3  -2   1  294.61    7.29 
  -3  -2   1  280.57    7.45 
  -3  -2   1  309.17    7.46 
   2   2  -1    8.69    0.27 
   2   2  -1    8.10    0.26 
   2   2  -1    8.30    0.30 
   2   2  -1    8.22    0.26 
   2   2  -1    7.95    0.25 
  -2  -2   1    8.78    0.27 
  -2  -2   1    7.64    0.27 
  -2  -2   1    8.23    0.26 
  -2  -2   1    8.67    0.27 
  -2  -2   1    8.58    0.27 
   1   2  -1    2.33    0.10 
   1   2  -1    2.67    0.11 
   1   2  -1    2.56    0.12 
   1   2  -1    2.44    0.11 
   1   2  -1    2.63    0.12 
   1   2  -1    2.44    0.11 
  -1  -2   1    2.55    0.12 
  -1  -2   1    2.60    0.12 
  -1  -2   1    2.69    0.12 
  -1  -2   1    2.71    0.12 
  -1  -2   1    2.52    0.11 
  -1  -2   1    2.55    0.11 
  -1  -2   1    2.48    0.12 
   0   2  -1  114.01    2.95 
   0   2  -1  120.38    3.02 
   0   2  -1  119.35    2.94 
   0   2  -1  112.56    2.94 
   0   2  -1  116.62    2.95 
   0  -2   1  122.87    2.95 
   0  -2   1  119.50    2.95 
   0  -2   1  121.48    3.02 
   0  -2   1  119.87    2.95 
   0  -2   1  116.77    3.24 
  -1   2  -1    8.64    0.28 
  -1   2  -1    8.89    0.30 
  -1   2  -1    9.06    0.29 
  -1   2  -1    8.22    0.29 
   1  -2   1    9.01    0.29 
   1  -2   1    8.89    0.29 
   1  -2   1    8.85    0.29 
   1  -2   1    9.22    0.29 
  -2   2  -1   32.42    0.90 
  -2   2  -1   31.03    0.88 
  -2   2  -1   31.02    0.87 
   2  -2   1   31.44    0.88 
   2  -2   1   31.09    0.90 
   2  -2   1   32.51    0.88 
   2  -2   1   33.93    0.90 
  -3   2  -1    1.22    0.13 
  -3   2  -1    1.18    0.12 
  -3   2  -1    0.99    0.11 
   3  -2   1    1.16    0.12 
   3  -2   1    1.05    0.09 
   3  -2   1    1.04    0.11 
  -4   2  -1   20.08    0.66 
  -4   2  -1   20.11    0.64 
  -4   2  -1   20.88    0.64 
   4  -2   1   19.57    0.63 
   4  -2   1   19.98    0.64 
  -5   2  -1   13.61    0.52 
  -5   2  -1   14.11    0.51 
  -5   2  -1   12.99    0.50 
   5  -2   1   13.09    0.50 
   5  -2   1   14.62    0.50 
  -6   2  -1    2.82    0.24 
  -6   2  -1    3.01    0.23 
  -6   2  -1    2.72    0.23 
   6  -2   1    2.76    0.20 
   6  -2   1    2.87    0.22 
  -7   2  -1   19.25    0.71 
  -7   2  -1   19.17    0.72 
  -7   2  -1   18.58    0.73 
   7  -2   1   19.40    0.70 
  -8   2  -1    1.95    0.23 
  -8   2  -1    2.25    0.22 
  -8   2  -1    1.68    0.24 
   8  -2   1    1.60    0.21 
  -9   2  -1    0.12    0.11 
   9  -2   1    0.22    0.11 
   9   1  -1    0.69    0.13 
  -9  -1   1    0.65    0.16 
   8   1  -1    0.21    0.08 
  -8  -1   1    0.08    0.07 
  -8  -1   1    0.15    0.10 
   7   1  -1    1.81    0.17 
  -7  -1   1    1.17    0.17 
  -7  -1   1    1.26    0.17 
   6   1  -1    6.04    0.28 
   6   1  -1    5.98    0.26 
  -6  -1   1    5.64    0.30 
  -6  -1   1    5.77    0.30 
   5   1  -1    2.35    0.17 
   5   1  -1    2.61    0.15 
  -5  -1   1    2.41    0.17 
  -5  -1   1    2.72    0.16 
  -5  -1   1    2.49    0.17 
   4   1  -1   17.20    0.52 
   4   1  -1   17.23    0.53 
  -4  -1   1   16.55    0.55 
  -4  -1   1   17.83    0.56 
  -4  -1   1   16.79    0.53 
  -4  -1   1   18.50    0.54 
   3   1  -1    5.51    0.21 
   3   1  -1    5.51    0.21 
   3   1  -1    5.27    0.21 
  -3  -1   1    5.70    0.21 
  -3  -1   1    5.39    0.22 
  -3  -1   1    5.34    0.22 
  -3  -1   1    5.43    0.21 
   2   1  -1  394.62   10.23 
   2   1  -1  417.86   10.57 
   2   1  -1  421.08   10.59 
   2   1  -1  407.85   10.33 
  -2  -1   1  394.96   10.50 
  -2  -1   1  428.00   10.54 
  -2  -1   1  422.42   10.19 
  -2  -1   1  410.57   10.23 
  -2  -1   1  410.83   10.37 
   1   1  -1  545.27   13.38 
   1   1  -1  497.79   13.04 
   1   1  -1  518.80   13.09 
   1   1  -1  530.72   13.38 
   1   1  -1  519.98   13.08 
  -1  -1   1  519.49   13.40 
  -1  -1   1  528.10   13.11 
  -1  -1   1  529.85   13.06 
  -1  -1   1  545.62   13.41 
  -1  -1   1  526.51   13.10 
   0   1  -1  106.62    2.62 
   0   1  -1  107.27    2.63 
   0   1  -1  107.86    2.69 
   0   1  -1  105.53    2.62 
   0   1  -1  103.64    2.63 
   0  -1   1  104.90    2.91 
   0  -1   1  108.58    2.69 
   0  -1   1  104.54    2.69 
   0  -1   1  102.16    2.63 
   0  -1   1  106.34    2.66 
   0  -1   1  108.22    2.62 
   0  -1   1  104.24    2.62 
  -1   1  -1    3.72    0.15 
  -1   1  -1    3.79    0.15 
  -1   1  -1    3.97    0.15 
  -1   1  -1    3.99    0.15 
   1  -1   1    3.89    0.15 
   1  -1   1    3.78    0.15 
   1  -1   1    3.89    0.15 
   1  -1   1    3.93    0.15 
  -2   1  -1   72.47    1.85 
  -2   1  -1   72.39    1.85 
   2  -1   1   73.41    1.89 
   2  -1   1   71.20    1.84 
   2  -1   1   75.27    1.85 
   2  -1   1   69.32    1.85 
  -3   1  -1   26.18    0.73 
  -3   1  -1   26.44    0.73 
  -3   1  -1   24.59    0.75 
   3  -1   1   26.23    0.75 
   3  -1   1   25.40    0.72 
   3  -1   1   24.43    0.72 
  -4   1  -1   36.84    1.07 
  -4   1  -1   38.07    1.05 
  -4   1  -1   36.81    1.05 
   4  -1   1   37.64    1.04 
   4  -1   1   37.17    1.04 
  -5   1  -1    0.17    0.08 
  -5   1  -1    0.21    0.07 
  -5   1  -1    0.26    0.09 
   5  -1   1    0.34    0.08 
   5  -1   1    0.27    0.07 
  -6   1  -1    0.24    0.10 
  -6   1  -1    0.43    0.11 
  -6   1  -1    0.33    0.10 
   6  -1   1    0.49    0.11 
   6  -1   1    0.11    0.06 
  -7   1  -1    8.09    0.41 
  -7   1  -1    8.60    0.41 
  -7   1  -1    7.94    0.42 
   7  -1   1    9.06    0.40 
  -8   1  -1    6.49    0.38 
  -8   1  -1    6.44    0.38 
  -8   1  -1    6.06    0.36 
   8  -1   1    7.03    0.36 
  -9   1  -1   11.74    0.56 
   9  -1   1   11.81    0.53 
   9   0  -1   16.45    0.66 
  -9   0   1   16.58    0.70 
   8   0  -1    7.47    0.38 
  -8   0   1    6.95    0.40 
  -8   0   1    7.18    0.40 
   7   0  -1   16.81    0.61 
  -7   0   1   16.07    0.64 
  -7   0   1   16.66    0.63 
   6   0  -1   16.59    0.56 
   6   0  -1   16.71    0.58 
  -6   0   1   15.86    0.60 
  -6   0   1   17.37    0.60 
   5   0  -1   19.82    0.63 
   5   0  -1   20.82    0.63 
  -5   0   1   19.27    0.66 
  -5   0   1   20.04    0.64 
   4   0  -1   11.83    0.41 
   4   0  -1   11.88    0.41 
  -4   0   1   12.04    0.42 
  -4   0   1   12.26    0.43 
  -4   0   1   13.54    0.44 
   3   0  -1   48.79    1.29 
   3   0  -1   47.48    1.29 
   3   0  -1   50.98    1.33 
  -3   0   1   46.19    1.33 
  -3   0   1   47.48    1.29 
  -3   0   1   51.19    1.30 
  -3   0   1   51.05    1.33 
   2   0  -1   49.84    1.30 
   2   0  -1   50.44    1.30 
   2   0  -1   52.66    1.33 
   2   0  -1   46.78    1.29 
  -2   0   1   51.27    1.34 
  -2   0   1   50.08    1.33 
  -2   0   1   51.48    1.30 
  -2   0   1   50.98    1.30 
  -2   0   1   50.50    1.30 
   1   0  -1   65.48    1.69 
   1   0  -1   62.60    1.65 
   1   0  -1   68.17    1.65 
   1   0  -1   65.51    1.69 
   1   0  -1   66.92    1.65 
  -1   0   1   67.03    1.69 
  -1   0   1   65.05    1.65 
  -1   0   1   63.41    1.69 
  -1   0   1   68.84    1.65 
  -1   0   1   65.18    1.65 
   0   0   1    7.95    0.22 
  -1   0  -1  230.38    6.04 
  -1   0  -1  238.56    5.90 
  -1   0  -1  239.87    5.90 
  -1   0  -1  237.49    5.85 
  -1   0  -1  241.16    5.91 
   1   0   1  231.71    5.97 
   1   0   1  229.49    5.84 
   1   0   1  231.78    5.85 
   1   0   1  234.40    5.85 
   1   0   1  234.81    5.87 
  -2   0  -1    0.50    0.06 
  -2   0  -1    0.48    0.06 
  -2   0  -1    0.54    0.07 
  -2   0  -1    0.48    0.06 
  -2   0  -1    0.52    0.06 
   2   0   1    0.45    0.06 
   2   0   1    0.43    0.06 
   2   0   1    0.49    0.06 
   2   0   1    0.59    0.06 
   2   0   1    0.42    0.06 
  -3   0  -1    2.81    0.15 
  -3   0  -1    3.06    0.14 
  -3   0  -1    2.63    0.14 
  -3   0  -1    2.74    0.15 
   3   0   1    2.86    0.14 
   3   0   1    3.09    0.15 
   3   0   1    2.86    0.14 
  -4   0  -1   24.56    0.71 
  -4   0  -1   23.83    0.72 
  -4   0  -1   24.15    0.71 
   4   0   1   24.34    0.70 
   4   0   1   23.96    0.69 
   4   0   1   24.18    0.72 
  -5   0  -1    3.07    0.19 
  -5   0  -1    3.23    0.19 
  -5   0  -1    3.13    0.19 
   5   0   1    3.32    0.18 
   5   0   1    2.96    0.19 
  -6   0  -1    0.04    0.06 
  -6   0  -1    0.05    0.06 
  -6   0  -1   -0.07    0.05 
   6   0   1    0.02    0.04 
   6   0   1    0.09    0.07 
  -7   0  -1    1.25    0.18 
  -7   0  -1    1.02    0.15 
  -7   0  -1    1.12    0.15 
   7   0   1    1.20    0.16 
  -8   0  -1    0.01    0.08 
  -8   0  -1   -0.01    0.05 
  -8   0  -1    0.02    0.09 
   8   0   1    0.06    0.07 
  -9   0  -1    0.65    0.16 
   9   0   1    1.38    0.19 
   9  -1  -1   -0.03    0.07 
  -9   1   1   -0.02    0.09 
   8  -1  -1    6.69    0.37 
  -8   1   1    6.29    0.39 
  -8   1   1    6.72    0.40 
   7  -1  -1   22.90    0.80 
  -7   1   1   24.36    0.85 
  -7   1   1   23.91    0.82 
   6  -1  -1    2.47    0.18 
   6  -1  -1    2.17    0.19 
  -6   1   1    2.58    0.21 
  -6   1   1    2.68    0.21 
   5  -1  -1   35.50    1.01 
   5  -1  -1   33.32    1.01 
  -5   1   1   35.10    1.02 
  -5   1   1   35.11    1.05 
   4  -1  -1    9.32    0.35 
   4  -1  -1    8.90    0.34 
  -4   1   1   10.22    0.37 
  -4   1   1    9.11    0.35 
  -4   1   1    9.04    0.35 
   3  -1  -1   42.24    1.12 
   3  -1  -1   39.02    1.09 
   3  -1  -1   40.06    1.09 
  -3   1   1   42.24    1.13 
  -3   1   1   39.70    1.12 
  -3   1   1   40.12    1.09 
  -3   1   1   37.41    1.08 
   2  -1  -1  148.43    3.79 
   2  -1  -1  152.73    3.79 
   2  -1  -1  151.10    3.78 
  -2   1   1  154.84    3.88 
  -2   1   1  161.40    3.88 
  -2   1   1  147.47    3.78 
  -2   1   1  155.37    3.79 
  -2   1   1  141.31    3.78 
   1  -1  -1  461.44   11.69 
   1  -1  -1  461.66   11.36 
   1  -1  -1  467.97   11.42 
   1  -1  -1  422.26   11.30 
  -1   1   1  451.40   11.58 
  -1   1   1  454.68   11.39 
  -1   1   1  472.20   11.38 
  -1   1   1  452.07   11.65 
   0  -1  -1    1.06    0.05 
   0  -1  -1    1.06    0.05 
   0  -1  -1    1.04    0.05 
   0  -1  -1    1.11    0.05 
   0  -1  -1    1.14    0.05 
   0   1   1    1.10    0.05 
   0   1   1    1.10    0.05 
   0   1   1    1.11    0.05 
   0   1   1    1.10    0.05 
   0   1   1    1.30    0.05 
  -1  -1  -1  327.92    8.16 
  -1  -1  -1  336.29    8.16 
  -1  -1  -1  349.71    9.26 
   1   1   1  317.94    9.20 
  -2  -1  -1    3.11    0.12 
  -2  -1  -1    2.90    0.11 
  -2  -1  -1    3.08    0.11 
  -2  -1  -1    3.00    0.11 
  -2  -1  -1    3.05    0.12 
   2   1   1    2.96    0.11 
   2   1   1    3.01    0.15 
   2   1   1    3.02    0.10 
   2   1   1    3.42    0.11 
   2   1   1    3.13    0.11 
  -3  -1  -1   19.72    0.60 
  -3  -1  -1   22.77    0.59 
  -3  -1  -1   21.44    0.59 
  -3  -1  -1   21.42    0.59 
  -3  -1  -1   20.52    0.58 
   3   1   1   20.85    0.58 
   3   1   1   21.44    0.58 
   3   1   1   20.96    0.57 
   3   1   1   21.40    0.59 
  -4  -1  -1   59.29    1.49 
  -4  -1  -1   55.06    1.48 
  -4  -1  -1   56.44    1.48 
  -4  -1  -1   57.00    1.52 
   4   1   1   56.48    1.50 
   4   1   1   55.61    1.47 
  -5  -1  -1   30.34    0.88 
  -5  -1  -1   32.54    0.89 
  -5  -1  -1   29.49    0.90 
  -5  -1  -1   29.68    0.88 
   5   1   1   30.33    0.86 
   5   1   1   30.81    0.85 
  -6  -1  -1    7.09    0.32 
  -6  -1  -1    7.25    0.32 
  -6  -1  -1    7.13    0.33 
   6   1   1    7.08    0.30 
   6   1   1    7.62    0.29 
  -7  -1  -1    0.27    0.09 
  -7  -1  -1    0.32    0.09 
  -7  -1  -1    0.37    0.11 
   7   1   1    0.25    0.08 
  -8  -1  -1    3.02    0.25 
  -8  -1  -1    2.96    0.24 
   8   1   1    3.38    0.22 
  -9  -1  -1    2.71    0.26 
  -9  -1  -1    2.30    0.21 
   9   1   1    2.70    0.21 
   9   1   1    3.25    0.30 
   8  -2  -1   10.36    0.49 
  -8   2   1    9.88    0.51 
  -8   2   1    9.64    0.49 
   7  -2  -1    1.48    0.20 
  -7   2   1    1.32    0.20 
  -7   2   1    1.53    0.22 
   6  -2  -1   50.26    1.43 
   6  -2  -1   48.87    1.43 
  -6   2   1   46.88    1.47 
  -6   2   1   51.67    1.44 
   5  -2  -1    1.88    0.17 
   5  -2  -1    2.16    0.17 
  -5   2   1    1.83    0.17 
  -5   2   1    1.78    0.18 
   4  -2  -1    0.40    0.10 
   4  -2  -1    0.34    0.08 
  -4   2   1    0.45    0.09 
  -4   2   1    0.43    0.10 
  -4   2   1    0.49    0.09 
   3  -2  -1    3.98    0.20 
   3  -2  -1    3.78    0.19 
   3  -2  -1    4.17    0.20 
  -3   2   1    3.86    0.19 
  -3   2   1    3.38    0.19 
  -3   2   1    3.78    0.20 
  -3   2   1    4.40    0.21 
   2  -2  -1    0.28    0.06 
   2  -2  -1    0.41    0.07 
   2  -2  -1    0.30    0.05 
   2  -2  -1    0.30    0.06 
  -2   2   1    0.31    0.07 
  -2   2   1    0.24    0.06 
  -2   2   1    0.46    0.08 
  -2   2   1    0.46    0.08 
   1  -2  -1    7.18    0.24 
   1  -2  -1    7.15    0.24 
   1  -2  -1    7.15    0.24 
   1  -2  -1    7.01    0.24 
   1  -2  -1    7.52    0.25 
  -1   2   1    7.00    0.24 
  -1   2   1    7.22    0.24 
  -1   2   1    6.88    0.24 
  -1   2   1    7.35    0.23 
  -1   2   1    7.16    0.24 
   0  -2  -1   26.09    0.69 
   0  -2  -1   27.26    0.71 
   0  -2  -1   28.10    0.69 
   0  -2  -1   27.47    0.69 
   0  -2  -1   26.75    0.69 
   0   2   1   27.03    0.68 
   0   2   1   26.35    0.69 
   0   2   1   27.11    0.71 
   0   2   1   27.15    0.71 
   0   2   1   26.94    0.68 
   1   2   1  153.86    4.24 
  -2  -2  -1   47.04    1.22 
  -2  -2  -1   49.93    1.25 
  -2  -2  -1   49.14    1.22 
   2   2   1   50.81    1.42 
  -3  -2  -1  216.54    5.26 
  -3  -2  -1  204.14    5.21 
  -3  -2  -1  214.52    5.21 
  -3  -2  -1  222.75    5.22 
  -3  -2  -1  187.78    5.29 
   3   2   1  208.17    5.15 
   3   2   1  212.24    5.79 
   3   2   1  204.97    5.15 
   3   2   1  215.26    5.29 
  -4  -2  -1    5.39    0.21 
  -4  -2  -1    6.12    0.21 
  -4  -2  -1    5.44    0.21 
  -4  -2  -1    5.41    0.22 
  -4  -2  -1    5.48    0.22 
   4   2   1    5.63    0.20 
   4   2   1    5.29    0.27 
   4   2   1    5.68    0.18 
   4   2   1    5.27    0.20 
  -5  -2  -1    0.26    0.07 
  -5  -2  -1    0.33    0.06 
  -5  -2  -1    0.24    0.07 
  -5  -2  -1    0.26    0.07 
   5   2   1    0.30    0.05 
   5   2   1    0.28    0.09 
   5   2   1    0.31    0.07 
  -6  -2  -1    1.66    0.15 
  -6  -2  -1    1.53    0.14 
  -6  -2  -1    1.37    0.14 
   6   2   1    1.54    0.17 
   6   2   1    1.53    0.13 
   6   2   1    1.50    0.10 
  -7  -2  -1    7.80    0.36 
  -7  -2  -1    7.90    0.36 
  -7  -2  -1    8.12    0.36 
   7   2   1    8.25    0.43 
   7   2   1    8.15    0.33 
  -8  -2  -1   12.47    0.52 
  -8  -2  -1   13.00    0.52 
   8   2   1   12.67    0.60 
   8   2   1   12.94    0.47 
  -9  -2  -1    0.18    0.10 
  -9  -2  -1    0.02    0.06 
   9   2   1    0.11    0.09 
 -10  -2  -1    0.04    0.09 
  10   2   1    0.06    0.07 
   8  -3  -1    5.04    0.34 
  -8   3   1    5.18    0.35 
   7  -3  -1   10.01    0.48 
  -7   3   1    9.19    0.48 
  -7   3   1    9.97    0.47 
   6  -3  -1    7.60    0.38 
   6  -3  -1    7.20    0.38 
  -6   3   1    7.77    0.39 
  -6   3   1    7.60    0.40 
   5  -3  -1   20.95    0.71 
   5  -3  -1   20.79    0.70 
  -5   3   1   21.73    0.72 
  -5   3   1   20.76    0.69 
  -5   3   1   19.46    0.72 
   4  -3  -1   64.06    1.70 
   4  -3  -1   59.74    1.69 
  -4   3   1   60.84    1.73 
  -4   3   1   62.39    1.69 
  -4   3   1   61.97    1.68 
   3  -3  -1   34.60    0.96 
   3  -3  -1   32.78    0.96 
  -3   3   1   33.34    0.98 
  -3   3   1   33.80    0.95 
  -3   3   1   32.80    0.96 
   2  -3  -1   47.49    1.27 
   2  -3  -1   47.16    1.23 
   2  -3  -1   42.74    1.23 
   2  -3  -1   45.77    1.23 
  -2   3   1   46.05    1.22 
  -2   3   1   45.40    1.23 
  -2   3   1   45.96    1.26 
   1  -3  -1   49.15    1.29 
   1  -3  -1   49.52    1.29 
   1  -3  -1   51.02    1.33 
   1  -3  -1   48.33    1.29 
  -1   3   1   51.18    1.32 
  -1   3   1   50.77    1.28 
  -1   3   1   47.28    1.29 
  -1   3   1   49.55    1.32 
   0  -3  -1    4.58    0.17 
   0  -3  -1    4.55    0.17 
   0  -3  -1    4.69    0.17 
   0  -3  -1    4.87    0.16 
   0  -3  -1    4.23    0.16 
   0   3   1    4.81    0.15 
   0   3   1    4.63    0.16 
   0   3   1    4.57    0.16 
   0   3   1    4.77    0.16 
  -1  -3  -1  121.87    3.03 
  -1  -3  -1  118.55    2.95 
  -1  -3  -1  118.87    2.95 
  -1  -3  -1  118.65    2.95 
  -1  -3  -1  122.31    2.95 
  -2  -3  -1    0.24    0.03 
   2   3   1    0.22    0.06 
  -3  -3  -1   10.17    0.29 
  -3  -3  -1   10.36    0.30 
  -3  -3  -1   10.36    0.30 
  -3  -3  -1   10.47    0.29 
  -3  -3  -1    9.92    0.29 
   3   3   1   10.24    0.39 
  -4  -3  -1   23.78    0.68 
  -4  -3  -1   25.48    0.66 
  -4  -3  -1   23.38    0.66 
  -4  -3  -1   23.58    0.66 
  -4  -3  -1   24.11    0.66 
   4   3   1   23.33    0.62 
   4   3   1   24.03    0.62 
   4   3   1   24.29    0.80 
  -5  -3  -1    7.85    0.30 
  -5  -3  -1    7.99    0.29 
  -5  -3  -1    8.24    0.30 
  -5  -3  -1    7.99    0.30 
  -5  -3  -1    8.40    0.29 
   5   3   1    8.07    0.26 
   5   3   1    7.90    0.37 
   5   3   1    8.18    0.26 
  -6  -3  -1    4.44    0.21 
  -6  -3  -1    3.73    0.20 
  -6  -3  -1    3.91    0.21 
   6   3   1    4.09    0.18 
   6   3   1    3.64    0.26 
  -7  -3  -1    2.49    0.19 
  -7  -3  -1    2.44    0.19 
   7   3   1    2.45    0.16 
   7   3   1    2.34    0.23 
  -8  -3  -1    6.68    0.34 
  -8  -3  -1    7.20    0.36 
   8   3   1    6.98    0.42 
  -9  -3  -1    1.12    0.18 
  -9  -3  -1    1.38    0.16 
   9   3   1    1.23    0.21 
 -10  -3  -1    0.48    0.14 
  10   3   1    0.47    0.14 
   8  -4  -1    9.79    0.51 
   7  -4  -1    1.37    0.20 
  -7   4   1    1.90    0.25 
   6  -4  -1    1.07    0.18 
   6  -4  -1    1.13    0.18 
  -6   4   1    0.64    0.14 
  -6   4   1    1.18    0.20 
   5  -4  -1    1.30    0.17 
   5  -4  -1    1.07    0.17 
  -5   4   1    0.93    0.14 
  -5   4   1    0.88    0.15 
   4  -4  -1    9.86    0.42 
   4  -4  -1    9.99    0.42 
  -4   4   1   11.13    0.41 
  -4   4   1   10.13    0.43 
  -4   4   1   10.46    0.42 
   3  -4  -1    0.91    0.12 
   3  -4  -1    1.14    0.13 
  -3   4   1    1.06    0.12 
  -3   4   1    1.28    0.14 
  -3   4   1    1.19    0.13 
   2  -4  -1   75.86    2.02 
   2  -4  -1   78.92    2.02 
   2  -4  -1   75.87    2.02 
   2  -4  -1   79.11    2.07 
  -2   4   1   76.94    2.05 
  -2   4   1   77.87    2.00 
  -2   4   1   74.51    2.00 
   1  -4  -1   67.21    1.77 
   1  -4  -1   68.70    1.81 
   1  -4  -1   67.33    1.77 
   1  -4  -1   69.86    1.77 
  -1   4   1   69.66    1.80 
  -1   4   1   69.08    1.80 
  -1   4   1   65.51    1.75 
   0  -4  -1    0.17    0.04 
   0  -4  -1    0.12    0.04 
   0  -4  -1    0.16    0.04 
   0  -4  -1    0.17    0.05 
   0  -4  -1    0.09    0.04 
   0   4   1    0.17    0.04 
   0   4   1    0.17    0.04 
   0   4   1    0.17    0.04 
   0   4   1    0.14    0.04 
   0   4   1    0.19    0.03 
  -1  -4  -1   14.83    0.41 
  -1  -4  -1   14.29    0.40 
  -1  -4  -1   13.95    0.40 
  -1  -4  -1   14.80    0.40 
  -1  -4  -1   14.28    0.40 
  -2  -4  -1   18.15    0.48 
  -2  -4  -1   18.32    0.47 
  -2  -4  -1   18.12    0.49 
  -2  -4  -1   18.05    0.48 
  -2  -4  -1   18.48    0.47 
   2   4   1   17.93    0.60 
  -3  -4  -1  109.03    2.66 
  -3  -4  -1  108.25    2.73 
  -3  -4  -1  107.76    2.72 
  -3  -4  -1  108.74    2.66 
  -3  -4  -1  106.02    2.66 
   3   4   1  102.82    3.04 
  -4  -4  -1    6.38    0.22 
  -4  -4  -1    6.64    0.22 
  -4  -4  -1    6.73    0.23 
  -4  -4  -1    6.92    0.22 
  -4  -4  -1    6.21    0.23 
   4   4   1    6.18    0.31 
  -5  -4  -1   16.10    0.48 
  -5  -4  -1   15.23    0.47 
  -5  -4  -1   15.90    0.49 
  -5  -4  -1   15.01    0.48 
   5   4   1   15.56    0.60 
  -6  -4  -1    0.17    0.06 
  -6  -4  -1    0.00    0.04 
   6   4   1   -0.03    0.07 
   6   4   1    0.08    0.03 
  -7  -4  -1    0.19    0.07 
  -7  -4  -1    0.21    0.07 
   7   4   1    0.28    0.12 
  -8  -4  -1    4.38    0.26 
  -8  -4  -1    4.05    0.25 
   8   4   1    4.31    0.32 
  -9  -4  -1    3.37    0.24 
  -9  -4  -1    3.04    0.24 
   9   4   1    2.91    0.28 
 -10  -4  -1    8.53    0.44 
  10   4   1    8.38    0.51 
   7  -5  -1    4.76    0.34 
  -7   5   1    4.72    0.34 
   6  -5  -1    2.33    0.25 
   6  -5  -1    2.28    0.23 
  -6   5   1    2.27    0.24 
   5  -5  -1   11.75    0.50 
   5  -5  -1   11.54    0.51 
  -5   5   1   11.65    0.51 
   4  -5  -1    0.96    0.16 
   4  -5  -1    0.86    0.14 
  -4   5   1    0.94    0.15 
  -4   5   1    0.93    0.16 
  -4   5   1    1.01    0.14 
   3  -5  -1    0.78    0.13 
   3  -5  -1    0.52    0.11 
  -3   5   1    0.70    0.12 
  -3   5   1    0.70    0.12 
  -3   5   1    0.77    0.10 
   2  -5  -1   49.97    1.41 
   2  -5  -1   49.80    1.41 
   2  -5  -1   53.83    1.46 
  -2   5   1   51.94    1.40 
  -2   5   1   51.92    1.43 
  -2   5   1   51.60    1.38 
   1  -5  -1   41.27    1.17 
   1  -5  -1   44.21    1.18 
   1  -5  -1   43.42    1.18 
   1  -5  -1   45.15    1.21 
  -1   5   1   42.43    1.14 
  -1   5   1   42.24    1.18 
  -1   5   1   41.88    1.15 
   0  -5  -1    4.68    0.19 
   0  -5  -1    5.00    0.20 
   0  -5  -1    4.75    0.20 
   0  -5  -1    4.70    0.20 
   0   5   1    4.63    0.18 
   0   5   1    4.76    0.18 
   0   5   1    4.82    0.18 
   0   5   1    4.92    0.16 
  -1  -5  -1    0.61    0.07 
  -1  -5  -1    0.70    0.06 
  -1  -5  -1    0.63    0.06 
  -1  -5  -1    0.61    0.06 
  -1  -5  -1    0.58    0.07 
  -2  -5  -1    1.57    0.08 
  -2  -5  -1    1.46    0.08 
  -2  -5  -1    1.52    0.08 
  -2  -5  -1    1.47    0.08 
  -2  -5  -1    1.64    0.08 
   2   5   1    1.55    0.14 
  -3  -5  -1    0.00    0.01 
  -3  -5  -1    0.01    0.02 
  -3  -5  -1    0.00    0.02 
  -3  -5  -1    0.03    0.02 
  -3  -5  -1    0.00    0.02 
   3   5   1    0.00    0.06 
  -4  -5  -1    3.39    0.13 
  -4  -5  -1    3.09    0.13 
  -4  -5  -1    3.16    0.13 
  -4  -5  -1    3.20    0.13 
  -4  -5  -1    3.18    0.14 
   4   5   1    3.09    0.22 
  -5  -5  -1   13.12    0.40 
  -5  -5  -1   12.03    0.39 
  -5  -5  -1   12.20    0.41 
  -5  -5  -1   13.49    0.41 
   5   5   1   12.33    0.52 
  -6  -5  -1    1.40    0.12 
  -6  -5  -1    1.50    0.12 
   6   5   1    1.58    0.18 
  -7  -5  -1    1.95    0.15 
  -7  -5  -1    2.20    0.16 
   7   5   1    1.99    0.21 
  -8  -5  -1    0.13    0.07 
  -8  -5  -1    0.17    0.07 
   8   5   1    0.14    0.11 
  -9  -5  -1    0.55    0.12 
  -9  -5  -1    0.78    0.13 
   9   5   1    0.95    0.19 
   6  -6  -1    1.34    0.20 
   6  -6  -1    1.46    0.22 
  -6   6   1    1.09    0.17 
   5  -6  -1   10.09    0.47 
   5  -6  -1    9.24    0.47 
  -5   6   1    9.93    0.47 
   4  -6  -1    0.89    0.16 
   4  -6  -1    0.78    0.15 
  -4   6   1    0.88    0.15 
   3  -6  -1    6.97    0.35 
   3  -6  -1    7.71    0.37 
  -3   6   1    7.80    0.34 
  -3   6   1    7.34    0.34 
   2  -6  -1    5.01    0.26 
   2  -6  -1    4.45    0.26 
  -2   6   1    4.89    0.25 
  -2   6   1    4.83    0.24 
   1  -6  -1   14.78    0.51 
   1  -6  -1   14.32    0.50 
   1  -6  -1   15.76    0.52 
  -1   6   1   15.01    0.45 
  -1   6   1   14.82    0.48 
  -1   6   1   15.48    0.49 
   0  -6  -1   28.64    0.83 
   0  -6  -1   28.77    0.82 
   0  -6  -1   28.94    0.83 
   0  -6  -1   29.93    0.85 
   0   6   1   27.92    0.80 
  -1  -6  -1   74.43    1.92 
  -1  -6  -1   73.47    1.92 
  -1  -6  -1   75.98    1.97 
  -1  -6  -1   74.12    1.92 
  -2  -6  -1    0.69    0.06 
  -2  -6  -1    0.62    0.07 
  -2  -6  -1    0.66    0.06 
  -2  -6  -1    0.60    0.06 
  -2  -6  -1    0.56    0.07 
  -3  -6  -1    2.79    0.13 
  -3  -6  -1    2.82    0.13 
  -3  -6  -1    2.76    0.12 
  -3  -6  -1    2.66    0.12 
  -3  -6  -1    2.88    0.12 
  -3  -6  -1    2.90    0.12 
   3   6   1    2.35    0.20 
  -4  -6  -1   11.59    0.36 
  -4  -6  -1   11.34    0.35 
  -4  -6  -1   11.42    0.34 
  -4  -6  -1   10.52    0.35 
   4   6   1   10.78    0.47 
  -5  -6  -1   36.61    0.99 
  -5  -6  -1   35.43    1.00 
  -5  -6  -1   35.41    0.97 
   5   6   1   36.17    1.19 
  -6  -6  -1    0.03    0.05 
  -6  -6  -1    0.05    0.04 
   6   6   1    0.07    0.08 
  -7  -6  -1    0.17    0.06 
  -7  -6  -1    0.11    0.06 
   7   6   1    0.02    0.07 
  -8  -6  -1    2.80    0.19 
  -8  -6  -1    3.07    0.21 
   8   6   1    3.09    0.27 
  -9  -6  -1   -0.03    0.03 
  -9  -6  -1    0.03    0.05 
   9   6   1    0.07    0.08 
   5  -7  -1    0.65    0.16 
   5  -7  -1    0.33    0.10 
   4  -7  -1    1.79    0.24 
   4  -7  -1    1.61    0.17 
   3  -7  -1    4.20    0.28 
   3  -7  -1    3.91    0.26 
   2  -7  -1    6.82    0.33 
   2  -7  -1    6.50    0.33 
  -2   7   1    6.81    0.31 
   1  -7  -1    1.98    0.16 
   1  -7  -1    1.73    0.17 
  -1   7   1    1.89    0.13 
   0  -7  -1    2.22    0.16 
   0  -7  -1    2.35    0.15 
   0   7   1    2.12    0.11 
  -1  -7  -1    3.44    0.18 
  -1  -7  -1    3.44    0.18 
  -2  -7  -1   19.05    0.56 
  -2  -7  -1   18.76    0.56 
  -2  -7  -1   18.24    0.56 
  -3  -7  -1   42.66    1.15 
  -3  -7  -1   43.03    1.15 
  -3  -7  -1   44.37    1.15 
  -3  -7  -1   43.32    1.18 
   3   7   1   42.82    1.37 
  -4  -7  -1    0.07    0.04 
  -4  -7  -1    0.07    0.04 
  -4  -7  -1    0.16    0.05 
   4   7   1    0.05    0.08 
  -5  -7  -1    0.45    0.07 
  -5  -7  -1    0.55    0.08 
  -5  -7  -1    0.52    0.06 
   5   7   1    0.39    0.12 
  -6  -7  -1    0.08    0.05 
  -6  -7  -1    0.13    0.05 
   6   7   1    0.11    0.09 
  -7  -7  -1   11.10    0.41 
  -7  -7  -1   11.40    0.42 
   7   7   1   11.13    0.55 
  -8  -7  -1    0.43    0.09 
  -8  -7  -1    0.41    0.09 
   8   7   1    0.43    0.14 
  -9  -7  -1    2.10    0.18 
   9   7   1    1.89    0.23 
   4  -8  -1    2.65    0.22 
   4  -8  -1    2.66    0.26 
   3  -8  -1    0.71    0.13 
   3  -8  -1    0.74    0.16 
   2  -8  -1    1.47    0.15 
   2  -8  -1    1.58    0.20 
   1  -8  -1    3.21    0.21 
   1  -8  -1    2.98    0.23 
   0  -8  -1   12.09    0.45 
   0  -8  -1   12.30    0.46 
  -1  -8  -1    4.44    0.22 
  -1  -8  -1    4.28    0.23 
  -2  -8  -1    4.99    0.22 
  -2  -8  -1    5.01    0.23 
  -3  -8  -1   10.82    0.39 
  -3  -8  -1   11.03    0.38 
  -3  -8  -1   11.04    0.37 
  -4  -8  -1    3.13    0.15 
  -4  -8  -1    2.95    0.16 
  -4  -8  -1    3.18    0.17 
   4   8   1    2.95    0.24 
  -5  -8  -1    0.24    0.06 
  -5  -8  -1    0.24    0.06 
   5   8   1    0.24    0.10 
  -6  -8  -1    0.15    0.05 
  -6  -8  -1    0.16    0.06 
   6   8   1    0.14    0.08 
  -7  -8  -1    5.32    0.26 
  -7  -8  -1    5.46    0.26 
   7   8   1    5.36    0.36 
  -8  -8  -1    0.34    0.07 
  -8  -8  -1    0.29    0.08 
   8   8   1    0.40    0.12 
   3  -9  -1    0.47    0.14 
   3  -9  -1    0.61    0.12 
   2  -9  -1    3.45    0.28 
   2  -9  -1    3.94    0.26 
   1  -9  -1    5.80    0.34 
   1  -9  -1    6.64    0.33 
   0  -9  -1    0.59    0.12 
   0  -9  -1    0.37    0.08 
  -1  -9  -1   -0.04    0.02 
  -1  -9  -1   -0.06    0.05 
  -2  -9  -1   11.52    0.42 
  -3  -9  -1    4.14    0.20 
  -3  -9  -1    4.11    0.21 
  -3  -9  -1    3.89    0.21 
  -4  -9  -1    6.76    0.28 
  -4  -9  -1    6.30    0.27 
  -5  -9  -1   19.51    0.63 
  -5  -9  -1   20.74    0.65 
   5   9   1   21.12    0.82 
  -6  -9  -1    0.71    0.08 
  -6  -9  -1    0.72    0.10 
   6   9   1    0.63    0.15 
  -7  -9  -1    0.47    0.09 
   7   9   1    0.53    0.14 
   1 -10  -1    1.23    0.13 
   1 -10  -1    1.25    0.19 
   0 -10  -1   -0.01    0.05 
   0 -10  -1    0.12    0.03 
  -1 -10  -1    0.57    0.09 
  -2 -10  -1    3.19    0.21 
  -2 -10  -1    3.66    0.22 
  -2 -10  -1    3.59    0.20 
  -3 -10  -1    0.06    0.05 
  -3 -10  -1    0.00    0.03 
  -4 -10  -1    0.04    0.03 
  -4 -10  -1    0.10    0.06 
  -5 -10  -1    1.31    0.13 
  -6 -10  -1    0.01    0.05 
  -2 -11  -1    0.22    0.08 
  -3 -11  -1    0.59    0.10 
  -3 -11  -1    0.92    0.13 
  -4 -11  -1   11.11    0.44 
  -4 -10   2    0.23    0.08 
  -3 -10   2    0.84    0.12 
  -3 -10   2    0.66    0.13 
  -2 -10   2   -0.03    0.06 
  -2 -10   2    0.05    0.03 
  -1 -10   2    0.11    0.04 
  -1 -10   2    0.14    0.09 
   0 -10   2   -0.09    0.04 
   0 -10   2    0.00    0.08 
  -6  -9   2    1.74    0.17 
  -5  -9   2    1.04    0.16 
  -5  -9   2    1.43    0.12 
  -5  -9   2    1.28    0.13 
  -4  -9   2    2.94    0.19 
  -4  -9   2    3.03    0.21 
  -4  -9   2    2.63    0.21 
  -3  -9   2   28.28    0.94 
  -3  -9   2   29.00    0.92 
  -3  -9   2   28.96    0.91 
  -2  -9   2   12.67    0.51 
  -2  -9   2   13.43    0.53 
  -2  -9   2   13.00    0.50 
  -1  -9   2    3.34    0.26 
  -1  -9   2    3.42    0.24 
  -1  -9   2    3.54    0.23 
   0  -9   2    0.38    0.12 
   0  -9   2    0.46    0.11 
   0  -9   2    0.53    0.10 
   1  -9   2    9.76    0.45 
   1  -9   2    9.37    0.46 
   2  -9   2    7.46    0.39 
   2  -9   2    7.11    0.41 
  -7  -8   2    0.85    0.13 
  -7  -8   2    0.64    0.13 
   6   8  -2    3.56    0.27 
  -6  -8   2    2.73    0.19 
  -6  -8   2    3.03    0.21 
  -6  -8   2    2.62    0.21 
   5   8  -2    1.78    0.19 
  -5  -8   2    1.96    0.14 
  -5  -8   2    1.43    0.16 
  -5  -8   2    2.02    0.17 
  -4  -8   2    6.65    0.32 
  -4  -8   2    5.95    0.29 
  -4  -8   2    6.27    0.31 
  -3  -8   2    2.17    0.18 
  -3  -8   2    2.40    0.17 
  -3  -8   2    2.36    0.18 
  -2  -8   2   -0.01    0.03 
  -2  -8   2    0.00    0.06 
  -2  -8   2    0.07    0.05 
  -1  -8   2   12.37    0.49 
  -1  -8   2   12.90    0.51 
  -1  -8   2   12.71    0.49 
   0  -8   2    8.89    0.41 
   0  -8   2    9.50    0.41 
   0  -8   2    8.53    0.41 
  -1   8  -2    3.66    0.21 
   1  -8   2    3.37    0.24 
   1  -8   2    3.70    0.27 
  -2   8  -2    3.67    0.24 
   2  -8   2    4.04    0.26 
   2  -8   2    3.25    0.28 
  -3   8  -2    0.41    0.10 
   3  -8   2    0.31    0.08 
  -4   8  -2    3.31    0.25 
   4  -8   2    3.45    0.27 
   8   7  -2   10.91    0.54 
  -8  -7   2   11.03    0.49 
   7   7  -2    0.03    0.04 
  -7  -7   2    0.08    0.05 
  -7  -7   2   -0.02    0.06 
  -7  -7   2    0.02    0.03 
   6   7  -2   11.51    0.51 
  -6  -7   2   10.47    0.44 
  -6  -7   2   11.02    0.44 
  -6  -7   2   11.10    0.46 
   5   7  -2   -0.07    0.04 
  -5  -7   2   -0.01    0.06 
  -5  -7   2   -0.02    0.04 
  -5  -7   2    0.01    0.03 
   4   7  -2    0.42    0.10 
  -4  -7   2    0.45    0.09 
  -4  -7   2    0.22    0.08 
  -4  -7   2    0.49    0.10 
  -3  -7   2   11.17    0.43 
  -3  -7   2   11.31    0.42 
  -3  -7   2   10.53    0.41 
   2   7  -2   11.50    0.38 
  -2  -7   2   11.97    0.44 
  -2  -7   2   11.85    0.45 
  -2  -7   2   11.53    0.44 
   1   7  -2    9.62    0.35 
   1   7  -2    9.74    0.38 
  -1  -7   2    9.71    0.39 
  -1  -7   2    9.82    0.41 
  -1  -7   2    9.69    0.40 
   0   7  -2    1.68    0.15 
   0   7  -2    1.81    0.13 
   0  -7   2    1.86    0.17 
   0  -7   2    1.78    0.16 
   0  -7   2    1.98    0.18 
  -1   7  -2    0.76    0.12 
  -1   7  -2    0.66    0.11 
   1  -7   2    0.98    0.14 
   1  -7   2    0.67    0.13 
  -2   7  -2    0.05    0.06 
  -2   7  -2    0.08    0.06 
   2  -7   2   -0.03    0.05 
  -3   7  -2    1.66    0.18 
  -3   7  -2    1.68    0.18 
   3  -7   2    1.15    0.19 
   3  -7   2    1.52    0.17 
  -4   7  -2    4.54    0.30 
   4  -7   2    4.11    0.29 
   4  -7   2    4.02    0.31 
  -5   7  -2    2.12    0.25 
   5  -7   2    1.08    0.18 
   5  -7   2    1.03    0.20 
   8   6  -2    1.06    0.19 
  -8  -6   2    0.87    0.15 
  -8  -6   2    0.65    0.14 
   7   6  -2    0.11    0.07 
  -7  -6   2    0.10    0.07 
  -7  -6   2    0.19    0.07 
   6   6  -2    3.11    0.23 
  -6  -6   2    2.68    0.20 
  -6  -6   2    2.93    0.21 
   5   6  -2    0.09    0.06 
  -5  -6   2    0.04    0.06 
  -5  -6   2    0.01    0.05 
  -5  -6   2    0.04    0.05 
   4   6  -2   67.36    1.76 
   4   6  -2   69.76    2.04 
  -4  -6   2   68.91    1.89 
  -4  -6   2   67.27    1.84 
  -4  -6   2   70.17    1.84 
   3   6  -2    1.68    0.15 
   3   6  -2    1.50    0.09 
   3   6  -2    1.40    0.10 
  -3  -6   2    1.46    0.13 
  -3  -6   2    1.23    0.13 
  -3  -6   2    1.43    0.13 
   2   6  -2    2.80    0.14 
   2   6  -2    2.47    0.14 
  -2  -6   2    2.78    0.17 
  -2  -6   2    2.35    0.17 
  -2  -6   2    2.52    0.17 
  -2  -6   2    2.72    0.16 
   1   6  -2    8.94    0.33 
   1   6  -2    9.02    0.33 
   1   6  -2    9.44    0.31 
  -1  -6   2    8.91    0.35 
  -1  -6   2    9.13    0.36 
  -1  -6   2    9.38    0.37 
  -1  -6   2    8.57    0.35 
   0   6  -2   17.79    0.57 
   0   6  -2   18.12    0.55 
   0   6  -2   18.48    0.58 
   0  -6   2   17.55    0.59 
   0  -6   2   17.80    0.60 
  -1   6  -2   15.55    0.52 
  -1   6  -2   14.60    0.52 
   1  -6   2   15.02    0.54 
  -2   6  -2   34.44    1.03 
  -2   6  -2   34.55    1.05 
   2  -6   2   34.75    1.06 
   2  -6   2   34.86    1.06 
  -3   6  -2    1.71    0.17 
  -3   6  -2    1.34    0.18 
   3  -6   2    1.41    0.16 
   3  -6   2    1.31    0.18 
  -4   6  -2    2.50    0.23 
  -4   6  -2    2.78    0.22 
   4  -6   2    2.30    0.24 
   4  -6   2    2.26    0.21 
  -5   6  -2    2.46    0.23 
  -5   6  -2    2.18    0.23 
   5  -6   2    1.91    0.20 
   5  -6   2    2.36    0.25 
  -6   6  -2    6.51    0.39 
  -6   6  -2    6.98    0.40 
   6  -6   2    7.37    0.42 
   6  -6   2    6.86    0.41 
   9   5  -2    1.14    0.20 
  -9  -5   2    1.00    0.18 
   8   5  -2    1.05    0.18 
  -8  -5   2    0.95    0.17 
  -8  -5   2    1.36    0.19 
   7   5  -2   11.44    0.53 
  -7  -5   2   10.99    0.47 
  -7  -5   2   11.03    0.47 
   6   5  -2    0.40    0.10 
  -6  -5   2    0.39    0.10 
  -6  -5   2    0.43    0.10 
   5   5  -2    1.47    0.15 
   5   5  -2    1.45    0.12 
  -5  -5   2    1.33    0.14 
  -5  -5   2    1.43    0.14 
   4   5  -2   -0.07    0.05 
   4   5  -2   -0.03    0.04 
   4   5  -2    0.07    0.03 
  -4  -5   2   -0.02    0.02 
  -4  -5   2   -0.02    0.04 
  -4  -5   2    0.01    0.04 
  -4  -5   2    0.04    0.05 
   3   5  -2    2.54    0.13 
   3   5  -2    2.34    0.16 
   3   5  -2    2.35    0.13 
  -3  -5   2    2.43    0.14 
  -3  -5   2    2.61    0.16 
  -3  -5   2    2.33    0.16 
  -3  -5   2    2.15    0.15 
  -3  -5   2    2.50    0.14 
   2   5  -2   12.51    0.40 
   2   5  -2   12.35    0.44 
   2   5  -2   12.10    0.40 
   2   5  -2   13.09    0.38 
  -2  -5   2   13.12    0.44 
  -2  -5   2   12.52    0.42 
  -2  -5   2   13.59    0.43 
  -2  -5   2   11.80    0.43 
  -2  -5   2   12.51    0.43 
   1   5  -2   11.40    0.39 
   1   5  -2   11.45    0.39 
   1   5  -2   12.07    0.37 
  -1  -5   2   11.48    0.40 
  -1  -5   2   11.54    0.41 
  -1  -5   2   12.22    0.41 
  -1  -5   2   12.17    0.42 
  -1  -5   2   11.65    0.42 
   0   5  -2    0.08    0.06 
   0   5  -2    0.23    0.06 
   0  -5   2    0.15    0.04 
   0  -5   2    0.22    0.05 
   0  -5   2    0.13    0.06 
   0  -5   2    0.21    0.07 
  -1   5  -2    3.05    0.19 
  -1   5  -2    2.86    0.16 
  -1   5  -2    2.98    0.18 
   1  -5   2    2.85    0.18 
  -2   5  -2   19.74    0.63 
  -2   5  -2   18.36    0.64 
  -2   5  -2   19.63    0.61 
   2  -5   2   18.80    0.64 
   2  -5   2   18.89    0.64 
  -3   5  -2    0.68    0.11 
  -3   5  -2    0.71    0.12 
  -3   5  -2    0.66    0.12 
   3  -5   2    0.56    0.11 
   3  -5   2    0.77    0.13 
  -4   5  -2    2.69    0.20 
  -4   5  -2    2.70    0.23 
  -4   5  -2    3.33    0.24 
   4  -5   2    2.78    0.23 
   4  -5   2    3.36    0.24 
  -5   5  -2   -0.07    0.08 
  -5   5  -2   -0.05    0.07 
   5  -5   2    0.10    0.10 
   5  -5   2   -0.02    0.06 
  -6   5  -2    3.07    0.27 
  -6   5  -2    3.06    0.28 
   6  -5   2    3.39    0.28 
   6  -5   2    3.37    0.27 
  -7   5  -2    2.13    0.22 
  -7   5  -2    2.27    0.24 
   7  -5   2    1.85    0.24 
   9   4  -2   11.00    0.58 
  -9  -4   2   11.22    0.52 
   8   4  -2    6.40    0.40 
  -8  -4   2    6.36    0.36 
  -8  -4   2    6.50    0.36 
   7   4  -2   14.29    0.62 
   7   4  -2   13.31    0.48 
  -7  -4   2   14.30    0.55 
  -7  -4   2   14.33    0.55 
   6   4  -2    0.64    0.10 
   6   4  -2    0.63    0.13 
  -6  -4   2    0.57    0.11 
  -6  -4   2    0.67    0.12 
   5   4  -2    2.87    0.17 
   5   4  -2    2.87    0.21 
  -5  -4   2    3.01    0.19 
  -5  -4   2    2.93    0.17 
  -5  -4   2    3.19    0.20 
   4   4  -2   20.54    0.57 
   4   4  -2   20.07    0.60 
   4   4  -2   19.19    0.68 
   4   4  -2   19.47    0.59 
  -4  -4   2   20.17    0.62 
  -4  -4   2   20.60    0.64 
  -4  -4   2   20.21    0.64 
  -4  -4   2   20.28    0.62 
   3   4  -2    8.37    0.27 
   3   4  -2    8.32    0.29 
   3   4  -2    7.72    0.29 
   3   4  -2    8.27    0.33 
  -3  -4   2    8.07    0.32 
  -3  -4   2    8.28    0.31 
  -3  -4   2    8.16    0.31 
  -3  -4   2    8.75    0.32 
  -3  -4   2    8.73    0.31 
   2   4  -2   62.85    1.60 
   2   4  -2   60.49    1.61 
   2   4  -2   61.78    1.65 
   2   4  -2   59.58    1.78 
  -2  -4   2   61.87    1.64 
  -2  -4   2   64.55    1.64 
  -2  -4   2   63.19    1.68 
  -2  -4   2   64.54    1.68 
  -2  -4   2   64.11    1.64 
   1   4  -2   16.26    0.50 
   1   4  -2   17.20    0.49 
   1   4  -2   16.98    0.52 
  -1  -4   2   17.23    0.52 
  -1  -4   2   16.48    0.51 
  -1  -4   2   17.57    0.54 
  -1  -4   2   17.52    0.53 
  -1  -4   2   16.19    0.52 
   0   4  -2   19.08    0.56 
   0   4  -2   19.01    0.57 
   0   4  -2   18.84    0.58 
   0  -4   2   19.78    0.58 
   0  -4   2   19.18    0.58 
   0  -4   2   19.99    0.60 
   0  -4   2   17.78    0.57 
  -1   4  -2   33.80    0.97 
  -1   4  -2   34.46    0.97 
  -1   4  -2   34.83    1.00 
   1  -4   2   34.92    0.99 
   1  -4   2   36.99    0.99 
  -2   4  -2   49.16    1.37 
  -2   4  -2   49.17    1.32 
  -2   4  -2   48.78    1.33 
   2  -4   2   48.17    1.34 
   2  -4   2   46.41    1.33 
  -3   4  -2   19.43    0.66 
  -3   4  -2   20.13    0.63 
  -3   4  -2   19.11    0.64 
   3  -4   2   19.12    0.64 
   3  -4   2   18.84    0.64 
  -4   4  -2    0.05    0.08 
  -4   4  -2    0.01    0.05 
  -4   4  -2   -0.05    0.06 
   4  -4   2    0.07    0.08 
   4  -4   2   -0.01    0.07 
  -5   4  -2    7.89    0.38 
  -5   4  -2    7.19    0.39 
  -5   4  -2    7.45    0.38 
   5  -4   2    7.80    0.38 
   5  -4   2    7.25    0.37 
  -6   4  -2    0.24    0.10 
  -6   4  -2    0.32    0.13 
  -6   4  -2    0.18    0.10 
   6  -4   2    0.20    0.11 
   6  -4   2    0.35    0.12 
  -7   4  -2    7.15    0.44 
  -7   4  -2    8.87    0.45 
   7  -4   2    7.63    0.43 
  -8   4  -2    2.42    0.26 
   8  -4   2    2.05    0.23 
   9   3  -2    0.74    0.18 
  -9  -3   2    0.59    0.16 
   8   3  -2   -0.01    0.07 
  -8  -3   2   -0.02    0.06 
  -8  -3   2    0.03    0.09 
   7   3  -2   13.58    0.60 
   7   3  -2   13.82    0.50 
  -7  -3   2   14.60    0.56 
  -7  -3   2   12.94    0.53 
   6   3  -2   -0.02    0.07 
   6   3  -2    0.02    0.05 
  -6  -3   2    0.12    0.08 
  -6  -3   2    0.12    0.07 
   5   3  -2   26.30    0.77 
   5   3  -2   25.03    0.89 
   5   3  -2   27.23    0.75 
  -5  -3   2   26.31    0.80 
  -5  -3   2   27.64    0.82 
  -5  -3   2   25.74    0.82 
   4   3  -2   14.03    0.53 
   4   3  -2   14.31    0.44 
   4   3  -2   14.13    0.46 
  -4  -3   2   14.50    0.47 
  -4  -3   2   15.24    0.49 
  -4  -3   2   14.84    0.49 
  -4  -3   2   13.72    0.47 
   3   3  -2    2.81    0.15 
   3   3  -2    2.88    0.17 
   3   3  -2    3.18    0.14 
   3   3  -2    2.95    0.15 
   3   3  -2    2.64    0.15 
  -3  -3   2    2.93    0.15 
  -3  -3   2    3.29    0.17 
  -3  -3   2    3.10    0.16 
  -3  -3   2    3.29    0.16 
   2   3  -2    2.12    0.12 
   2   3  -2    1.96    0.12 
   2   3  -2    2.12    0.12 
   2   3  -2    2.13    0.12 
   2   3  -2    1.90    0.10 
  -2  -3   2    2.17    0.13 
  -2  -3   2    2.28    0.13 
  -2  -3   2    2.27    0.12 
  -2  -3   2    2.28    0.13 
  -2  -3   2    1.82    0.12 
   1   3  -2    2.20    0.11 
   1   3  -2    2.39    0.13 
   1   3  -2    2.44    0.13 
  -1  -3   2    2.48    0.13 
  -1  -3   2    2.46    0.11 
  -1  -3   2    2.37    0.13 
  -1  -3   2    2.17    0.13 
  -1  -3   2    2.43    0.14 
  -1  -3   2    2.20    0.13 
   0   3  -2  124.97    3.28 
   0   3  -2  125.47    3.19 
   0   3  -2  126.49    3.20 
   0  -3   2  128.95    3.50 
   0  -3   2  127.79    3.29 
   0  -3   2  122.18    3.21 
   0  -3   2  130.62    3.22 
   0  -3   2  131.94    3.29 
  -1   3  -2    6.12    0.24 
  -1   3  -2    5.80    0.24 
  -1   3  -2    6.18    0.25 
   1  -3   2    6.21    0.25 
   1  -3   2    6.20    0.25 
  -2   3  -2   -0.01    0.05 
  -2   3  -2    0.01    0.05 
  -2   3  -2   -0.03    0.06 
   2  -3   2   -0.07    0.04 
   2  -3   2    0.03    0.03 
   2  -3   2    0.04    0.05 
  -3   3  -2    5.81    0.27 
  -3   3  -2    5.47    0.26 
  -3   3  -2    5.55    0.27 
   3  -3   2    5.51    0.26 
   3  -3   2    5.57    0.26 
  -4   3  -2   13.12    0.50 
  -4   3  -2   12.37    0.48 
  -4   3  -2   12.80    0.47 
   4  -3   2   13.35    0.48 
   4  -3   2   13.41    0.49 
  -5   3  -2   10.73    0.45 
  -5   3  -2   10.80    0.45 
  -5   3  -2   10.43    0.46 
   5  -3   2   10.59    0.44 
   5  -3   2   10.62    0.45 
  -6   3  -2    1.76    0.20 
  -6   3  -2    1.49    0.19 
  -6   3  -2    1.87    0.21 
   6  -3   2    1.48    0.19 
   6  -3   2    1.94    0.19 
  -7   3  -2    4.20    0.30 
  -7   3  -2    3.88    0.31 
  -7   3  -2    3.44    0.28 
   7  -3   2    3.68    0.27 
  -8   3  -2    4.50    0.35 
  -8   3  -2    5.36    0.35 
  -8   3  -2    5.21    0.36 
   8  -3   2    5.24    0.35 
   9   2  -2    0.31    0.13 
  -9  -2   2    0.22    0.12 
   8   2  -2    3.25    0.22 
  -8  -2   2    2.33    0.24 
  -8  -2   2    2.37    0.23 
   7   2  -2   23.01    0.75 
  -7  -2   2   24.10    0.81 
  -7  -2   2   22.89    0.78 
   6   2  -2    0.73    0.11 
  -6  -2   2    0.61    0.12 
  -6  -2   2    0.40    0.10 
   5   2  -2    5.42    0.23 
   5   2  -2    5.02    0.25 
  -5  -2   2    5.16    0.26 
  -5  -2   2    5.58    0.27 
   4   2  -2   11.13    0.39 
   4   2  -2   10.96    0.38 
  -4  -2   2   11.59    0.41 
  -4  -2   2   11.70    0.40 
  -4  -2   2   12.49    0.42 
  -4  -2   2   11.39    0.40 
   3   2  -2   16.14    0.49 
   3   2  -2   15.85    0.47 
   3   2  -2   15.18    0.48 
   3   2  -2   15.86    0.49 
  -3  -2   2   15.72    0.48 
  -3  -2   2   16.65    0.49 
  -3  -2   2   15.16    0.50 
  -3  -2   2   16.38    0.50 
   2   2  -2   41.43    1.11 
   2   2  -2   40.58    1.08 
   2   2  -2   41.67    1.11 
   2   2  -2   41.21    1.20 
   2   2  -2   39.46    1.08 
  -2  -2   2   41.77    1.09 
  -2  -2   2   39.67    1.12 
  -2  -2   2   42.03    1.10 
  -2  -2   2   43.51    1.13 
   1   2  -2    5.01    0.20 
   1   2  -2    5.49    0.19 
   1   2  -2    5.23    0.20 
   1   2  -2    5.28    0.20 
   1   2  -2    5.19    0.19 
  -1  -2   2    5.57    0.20 
  -1  -2   2    5.38    0.21 
  -1  -2   2    5.53    0.20 
  -1  -2   2    5.35    0.20 
  -1  -2   2    5.04    0.20 
  -1  -2   2    5.43    0.21 
   0   2  -2   17.67    0.53 
   0   2  -2   16.88    0.51 
   0   2  -2   18.17    0.51 
   0   2  -2   17.86    0.53 
   0  -2   2   19.10    0.51 
   0  -2   2   17.25    0.52 
   0  -2   2   18.29    0.53 
   0  -2   2   18.57    0.53 
   0  -2   2   18.70    0.52 
   0  -2   2   17.76    0.51 
   0  -2   2   17.75    0.52 
  -1   2  -2    4.55    0.19 
  -1   2  -2    4.43    0.19 
  -1   2  -2    4.25    0.18 
   1  -2   2    4.61    0.19 
   1  -2   2    4.55    0.18 
   1  -2   2    4.22    0.18 
  -2   2  -2   12.44    0.42 
  -2   2  -2   12.75    0.41 
   2  -2   2   13.01    0.42 
   2  -2   2   13.07    0.42 
   2  -2   2   13.13    0.43 
  -3   2  -2    1.91    0.15 
  -3   2  -2    2.40    0.16 
  -3   2  -2    2.14    0.15 
   3  -2   2    2.12    0.15 
  -4   2  -2   28.00    0.85 
  -4   2  -2   28.83    0.85 
  -4   2  -2   27.19    0.87 
   4  -2   2   28.62    0.85 
   4  -2   2   29.22    0.85 
  -5   2  -2    0.88    0.14 
  -5   2  -2    0.57    0.11 
  -5   2  -2    0.87    0.13 
   5  -2   2    0.79    0.12 
   5  -2   2    0.84    0.12 
  -6   2  -2    4.36    0.28 
  -6   2  -2    4.18    0.29 
  -6   2  -2    4.42    0.28 
   6  -2   2    4.50    0.26 
   6  -2   2    4.80    0.28 
  -7   2  -2    0.32    0.12 
  -7   2  -2    0.48    0.12 
  -7   2  -2    0.18    0.10 
   7  -2   2    0.44    0.12 
  -8   2  -2    1.34    0.19 
  -8   2  -2    1.40    0.22 
  -8   2  -2    1.56    0.22 
   8  -2   2    1.41    0.21 
  -9   2  -2    0.63    0.13 
  -9   2  -2    0.49    0.15 
   9  -2   2    0.48    0.14 
   9   1  -2    3.92    0.27 
  -9  -1   2    3.84    0.31 
   8   1  -2   10.39    0.45 
  -8  -1   2    9.81    0.48 
  -8  -1   2    9.38    0.47 
   7   1  -2    0.84    0.13 
  -7  -1   2    1.12    0.18 
  -7  -1   2    0.98    0.16 
   6   1  -2    0.27    0.09 
   6   1  -2    0.48    0.08 
  -6  -1   2    0.31    0.09 
  -6  -1   2    0.37    0.10 
   5   1  -2   41.27    1.14 
   5   1  -2   40.96    1.15 
  -5  -1   2   41.62    1.20 
  -5  -1   2   40.13    1.16 
   4   1  -2   51.20    1.35 
   4   1  -2   49.57    1.36 
  -4  -1   2   50.47    1.41 
  -4  -1   2   50.82    1.37 
  -4  -1   2   50.65    1.41 
   3   1  -2    1.38    0.11 
   3   1  -2    1.19    0.10 
   3   1  -2    1.48    0.11 
   3   1  -2    1.11    0.11 
  -3  -1   2    1.26    0.10 
  -3  -1   2    1.29    0.11 
  -3  -1   2    1.21    0.10 
   2   1  -2   20.10    0.58 
   2   1  -2   20.36    0.58 
   2   1  -2   20.04    0.60 
   2   1  -2   20.49    0.60 
  -2  -1   2   20.56    0.60 
  -2  -1   2   20.98    0.58 
  -2  -1   2   21.56    0.59 
  -2  -1   2   21.41    0.60 
   1   1  -2    2.31    0.12 
   1   1  -2    2.25    0.11 
   1   1  -2    2.44    0.12 
   1   1  -2    2.32    0.12 
   1   1  -2    2.45    0.12 
  -1  -1   2    2.06    0.11 
  -1  -1   2    2.37    0.12 
  -1  -1   2    2.35    0.12 
  -1  -1   2    2.36    0.12 
  -1  -1   2    2.50    0.12 
   0   1  -2    8.65    0.28 
   0   1  -2    8.73    0.28 
   0   1  -2    8.54    0.27 
   0   1  -2    8.70    0.28 
   0   1  -2    8.81    0.28 
   0   1  -2    9.08    0.28 
   0  -1   2    8.53    0.28 
   0  -1   2    9.87    0.28 
   0  -1   2    9.22    0.28 
   0  -1   2    8.63    0.27 
   0  -1   2    9.03    0.28 
   0  -1   2    8.92    0.28 
  -1   1  -2    0.00    0.04 
  -1   1  -2    0.03    0.04 
  -1   1  -2    0.07    0.05 
  -1   1  -2    0.01    0.04 
  -1   1  -2   -0.02    0.04 
   1  -1   2    0.00    0.04 
   1  -1   2   -0.02    0.03 
   1  -1   2    0.10    0.05 
   1  -1   2    0.01    0.04 
   1  -1   2    0.01    0.04 
   1  -1   2    0.01    0.04 
  -2   1  -2  380.42    9.93 
  -2   1  -2  394.93    9.50 
  -2   1  -2  389.03    9.64 
  -2   1  -2  382.01    9.46 
   2  -1   2  381.79    9.83 
   2  -1   2  379.30    9.54 
  -3   1  -2    9.01    0.32 
  -3   1  -2    8.99    0.34 
  -3   1  -2    8.94    0.33 
   3  -1   2    8.89    0.33 
   3  -1   2    9.89    0.34 
   3  -1   2    9.49    0.32 
  -4   1  -2    3.33    0.20 
  -4   1  -2    3.53    0.20 
  -4   1  -2    3.21    0.19 
   4  -1   2    3.48    0.19 
   4  -1   2    3.52    0.18 
  -5   1  -2    6.28    0.31 
  -5   1  -2    6.42    0.30 
  -5   1  -2    6.25    0.29 
   5  -1   2    6.44    0.29 
   5  -1   2    6.33    0.28 
  -6   1  -2   21.54    0.73 
  -6   1  -2   21.46    0.75 
  -6   1  -2   21.61    0.73 
   6  -1   2   22.72    0.71 
   6  -1   2   21.83    0.72 
  -7   1  -2    6.14    0.34 
  -7   1  -2    7.21    0.37 
  -7   1  -2    6.23    0.36 
   7  -1   2    5.98    0.32 
  -8   1  -2    9.23    0.46 
  -8   1  -2    9.18    0.47 
  -8   1  -2    8.91    0.44 
   8  -1   2    8.49    0.42 
  -9   1  -2    0.71    0.17 
  -9   1  -2    0.92    0.16 
   9  -1   2    0.83    0.16 
   9   0  -2    5.62    0.35 
  -9   0   2    5.68    0.38 
   8   0  -2    0.10    0.08 
  -8   0   2    0.12    0.10 
  -8   0   2    0.02    0.09 
   7   0  -2    0.93    0.15 
  -7   0   2    0.93    0.17 
  -7   0   2    0.66    0.15 
   6   0  -2    9.78    0.40 
   6   0  -2    9.90    0.41 
  -6   0   2    9.48    0.41 
  -6   0   2   10.39    0.45 
   5   0  -2   14.21    0.49 
   5   0  -2   14.87    0.51 
  -5   0   2   14.14    0.51 
  -5   0   2   14.42    0.53 
   4   0  -2    0.27    0.08 
   4   0  -2    0.29    0.07 
  -4   0   2    0.32    0.07 
  -4   0   2    0.29    0.07 
  -4   0   2    0.20    0.07 
   3   0  -2   55.46    1.53 
   3   0  -2   59.33    1.53 
   3   0  -2   56.31    1.56 
  -3   0   2   61.47    1.58 
  -3   0   2   59.02    1.57 
  -3   0   2   56.99    1.53 
   2   0  -2    3.58    0.16 
   2   0  -2    3.28    0.16 
   2   0  -2    3.50    0.16 
  -2   0   2    3.65    0.16 
  -2   0   2    3.28    0.15 
  -2   0   2    3.38    0.16 
  -2   0   2    3.64    0.16 
   1   0  -2   47.27    1.24 
   1   0  -2   48.91    1.24 
   1   0  -2   47.39    1.24 
   1   0  -2   46.67    1.27 
   1   0  -2   50.38    1.27 
  -1   0   2   48.71    1.27 
  -1   0   2   47.51    1.24 
  -1   0   2   49.20    1.27 
  -1   0   2   49.67    1.25 
   0   0  -2   45.32    1.17 
   0   0  -2   46.84    1.18 
   0   0  -2   47.45    1.21 
   0   0  -2   46.33    1.18 
   0   0  -2   45.34    1.18 
   0   0   2   44.43    1.17 
   0   0   2   49.20    1.21 
   0   0   2   46.41    1.18 
   0   0   2   44.90    1.17 
   0   0   2   43.19    1.20 
   0   0   2   48.01    1.18 
  -1   0  -2    1.10    0.08 
  -1   0  -2    1.19    0.07 
  -1   0  -2    1.26    0.08 
  -1   0  -2    1.46    0.08 
  -1   0  -2    1.19    0.08 
  -1   0  -2    1.04    0.08 
  -1   0  -2    1.17    0.08 
   1   0   2    0.90    0.07 
   1   0   2    1.15    0.08 
   1   0   2    1.16    0.08 
   1   0   2    1.22    0.07 
   1   0   2    1.10    0.08 
   1   0   2    1.23    0.07 
  -2   0  -2    3.53    0.15 
  -2   0  -2    3.42    0.15 
  -2   0  -2    3.52    0.15 
  -2   0  -2    3.74    0.15 
   2   0   2    3.55    0.15 
   2   0   2    3.60    0.15 
   2   0   2    3.39    0.14 
   2   0   2    3.62    0.15 
  -3   0  -2    3.60    0.18 
  -3   0  -2    3.88    0.18 
  -3   0  -2    3.99    0.17 
  -3   0  -2    3.66    0.17 
   3   0   2    4.05    0.17 
   3   0   2    3.67    0.17 
   3   0   2    3.77    0.16 
  -4   0  -2   35.71    1.00 
  -4   0  -2   37.30    1.00 
  -4   0  -2   35.71    1.02 
  -4   0  -2   34.75    0.99 
   4   0   2   36.60    0.98 
   4   0   2   34.75    0.98 
  -5   0  -2    0.30    0.08 
  -5   0  -2    0.30    0.08 
  -5   0  -2    0.25    0.07 
   5   0   2    0.26    0.08 
   5   0   2    0.27    0.07 
  -6   0  -2    0.00    0.06 
  -6   0  -2    0.06    0.07 
  -6   0  -2    0.20    0.09 
   6   0   2    0.17    0.07 
   6   0   2    0.09    0.05 
  -7   0  -2   -0.05    0.05 
  -7   0  -2   -0.10    0.07 
  -7   0  -2    0.00    0.06 
   7   0   2    0.07    0.07 
  -8   0  -2    7.84    0.41 
  -8   0  -2    8.63    0.41 
  -8   0  -2    7.90    0.41 
   8   0   2    8.18    0.38 
  -9   0  -2    0.17    0.06 
  -9   0  -2   -0.01    0.08 
   9   0   2    0.14    0.12 
   9   0   2    0.11    0.08 
   9  -1  -2    0.36    0.13 
  -9   1   2    0.17    0.11 
   8  -1  -2   16.08    0.64 
  -8   1   2   14.94    0.65 
  -8   1   2   14.99    0.64 
   7  -1  -2   31.74    1.03 
  -7   1   2   32.43    1.08 
  -7   1   2   32.43    1.04 
   6  -1  -2    1.38    0.15 
   6  -1  -2    1.15    0.15 
  -6   1   2    1.21    0.18 
  -6   1   2    1.08    0.15 
   5  -1  -2    1.87    0.16 
   5  -1  -2    1.97    0.17 
  -5   1   2    1.80    0.17 
  -5   1   2    1.77    0.17 
   4  -1  -2    0.55    0.10 
   4  -1  -2    0.60    0.09 
  -4   1   2    0.59    0.10 
  -4   1   2    0.67    0.10 
   3  -1  -2  110.50    2.83 
   3  -1  -2  104.31    2.83 
   3  -1  -2  115.31    2.91 
  -3   1   2  112.81    2.83 
  -3   1   2  107.18    2.90 
  -3   1   2  115.84    2.91 
   2  -1  -2   34.62    0.94 
   2  -1  -2   34.39    0.91 
   2  -1  -2   32.60    0.91 
   2  -1  -2   31.26    0.94 
  -2   1   2   35.19    0.94 
  -2   1   2   35.06    0.92 
  -2   1   2   33.73    0.94 
   1  -1  -2    0.01    0.04 
   1  -1  -2    0.02    0.03 
   1  -1  -2    0.05    0.04 
   1  -1  -2    0.00    0.04 
   1  -1  -2    0.05    0.04 
  -1   1   2    0.04    0.03 
  -1   1   2   -0.01    0.03 
  -1   1   2   -0.01    0.03 
  -1   1   2   -0.04    0.03 
  -1   1   2    0.01    0.03 
   0  -1  -2   52.96    1.31 
   0  -1  -2   52.95    1.35 
   0  -1  -2   52.69    1.35 
   0  -1  -2   53.51    1.31 
   0  -1  -2   52.37    1.31 
   0   1   2   52.46    1.31 
   0   1   2   49.77    1.34 
   0   1   2   52.16    1.34 
   0   1   2   51.27    1.31 
   0   1   2   51.49    1.31 
  -1  -1  -2   82.59    2.09 
  -1  -1  -2   82.72    2.04 
  -1  -1  -2   85.44    2.09 
  -1  -1  -2   85.37    2.29 
  -1  -1  -2   82.64    2.04 
  -1  -1  -2   85.11    2.04 
  -1  -1  -2   82.48    2.04 
   1   1   2   78.01    2.03 
   1   1   2   82.91    2.08 
   1   1   2   82.04    2.04 
   1   1   2   77.89    2.28 
   1   1   2   78.80    2.03 
   1   1   2   85.01    2.03 
  -2  -1  -2   69.96    1.75 
  -2  -1  -2   70.49    1.80 
  -2  -1  -2   69.39    1.75 
  -2  -1  -2   71.48    1.75 
  -2  -1  -2   68.30    1.75 
   2   1   2   72.56    1.79 
   2   1   2   70.82    1.74 
   2   1   2   69.68    1.74 
   2   1   2   67.41    1.79 
   2   1   2   70.57    1.74 
   2   1   2   67.42    1.97 
   2   1   2   71.41    1.74 
  -3  -1  -2   32.01    0.82 
  -3  -1  -2   28.94    0.81 
  -3  -1  -2   30.24    0.82 
  -3  -1  -2   31.64    0.82 
  -3  -1  -2   30.57    0.84 
   3   1   2   29.63    0.81 
   3   1   2   31.75    0.83 
   3   1   2   31.28    0.94 
   3   1   2   30.42    0.80 
   3   1   2   29.27    0.81 
  -4  -1  -2   11.70    0.37 
  -4  -1  -2   10.74    0.36 
  -4  -1  -2   11.43    0.38 
  -4  -1  -2   11.15    0.36 
   4   1   2   10.37    0.42 
   4   1   2   11.42    0.36 
   4   1   2   10.37    0.35 
  -5  -1  -2   29.70    0.89 
  -5  -1  -2   32.52    0.87 
  -5  -1  -2   29.34    0.86 
  -5  -1  -2   29.99    0.87 
   5   1   2   28.86    0.84 
  -6  -1  -2   18.75    0.62 
  -6  -1  -2   18.47    0.63 
  -6  -1  -2   18.75    0.62 
   6   1   2   18.64    0.59 
  -7  -1  -2    4.48    0.26 
  -7  -1  -2    4.66    0.27 
  -7  -1  -2    4.02    0.26 
   7   1   2    4.66    0.32 
   7   1   2    4.36    0.24 
  -8  -1  -2   18.63    0.68 
  -8  -1  -2   17.69    0.68 
  -8  -1  -2   19.03    0.68 
   8   1   2   18.57    0.78 
   8   1   2   18.76    0.64 
  -9  -1  -2    2.46    0.25 
  -9  -1  -2    2.61    0.23 
  -9  -1  -2    3.08    0.24 
   9   1   2    2.99    0.29 
   8  -2  -2    1.36    0.21 
  -8   2   2    1.82    0.25 
  -8   2   2    1.13    0.18 
   7  -2  -2    7.00    0.38 
  -7   2   2    6.22    0.37 
  -7   2   2    6.24    0.38 
   6  -2  -2   11.62    0.49 
   6  -2  -2   11.80    0.49 
  -6   2   2   12.07    0.51 
  -6   2   2   11.72    0.49 
   5  -2  -2   11.96    0.45 
   5  -2  -2   10.72    0.44 
  -5   2   2   10.92    0.44 
   4  -2  -2   24.71    0.77 
   4  -2  -2   24.90    0.77 
  -4   2   2   25.71    0.77 
  -4   2   2   24.81    0.79 
   3  -2  -2    1.49    0.11 
   3  -2  -2    1.30    0.12 
   3  -2  -2    1.38    0.12 
  -3   2   2    1.46    0.12 
  -3   2   2    1.49    0.13 
   2  -2  -2   26.33    0.77 
   2  -2  -2   27.92    0.77 
   2  -2  -2   28.05    0.79 
   2  -2  -2   26.28    0.77 
  -2   2   2   29.63    0.80 
  -2   2   2   26.64    0.76 
  -2   2   2   27.60    0.79 
   1  -2  -2  153.81    3.78 
   1  -2  -2  141.36    3.69 
   1  -2  -2  148.10    3.68 
   1  -2  -2  145.35    3.78 
   1  -2  -2  147.33    3.68 
   1  -2  -2  147.21    3.69 
  -1   2   2  147.57    3.77 
  -1   2   2  146.43    3.69 
  -1   2   2  152.59    3.68 
  -1   2   2  150.25    3.77 
   0  -2  -2   24.06    0.65 
   0  -2  -2   24.72    0.63 
   0  -2  -2   23.40    0.63 
   0  -2  -2   23.27    0.63 
   0  -2  -2   23.66    0.65 
   0   2   2   24.62    0.62 
   0   2   2   24.21    0.64 
   0   2   2   23.56    0.62 
   0   2   2   24.58    0.62 
   0   2   2   24.77    0.64 
  -1  -2  -2    0.59    0.03 
  -1  -2  -2    0.54    0.03 
   1   2   2    0.56    0.08 
  -2  -2  -2    8.32    0.22 
  -2  -2  -2    7.82    0.22 
   2   2   2    7.89    0.30 
  -3  -2  -2   95.73    2.36 
  -3  -2  -2   91.48    2.35 
  -3  -2  -2   98.68    2.42 
  -3  -2  -2   99.10    2.36 
  -3  -2  -2   95.42    2.36 
   3   2   2   93.58    2.33 
   3   2   2   93.38    2.33 
   3   2   2   88.44    2.67 
  -4  -2  -2    0.47    0.07 
  -4  -2  -2    0.61    0.06 
  -4  -2  -2    0.44    0.07 
  -4  -2  -2    0.48    0.06 
  -4  -2  -2    0.47    0.06 
   4   2   2    0.48    0.04 
   4   2   2    0.51    0.06 
   4   2   2    0.64    0.11 
   4   2   2    0.53    0.05 
   4   2   2    0.53    0.06 
  -5  -2  -2    4.24    0.20 
  -5  -2  -2    4.73    0.20 
  -5  -2  -2    4.24    0.20 
  -5  -2  -2    4.24    0.20 
   5   2   2    4.21    0.26 
   5   2   2    4.00    0.18 
   5   2   2    4.42    0.16 
   5   2   2    3.94    0.17 
  -6  -2  -2   16.97    0.55 
  -6  -2  -2   16.41    0.56 
  -6  -2  -2   16.04    0.54 
   6   2   2   16.80    0.65 
   6   2   2   16.62    0.52 
   6   2   2   16.93    0.49 
  -7  -2  -2   17.75    0.63 
  -7  -2  -2   18.92    0.62 
  -7  -2  -2   17.23    0.61 
   7   2   2   17.82    0.72 
   7   2   2   18.46    0.58 
  -8  -2  -2    0.65    0.12 
  -8  -2  -2    0.37    0.11 
  -8  -2  -2    0.67    0.13 
   8   2   2    0.56    0.09 
   8   2   2    0.62    0.16 
  -9  -2  -2    3.61    0.26 
  -9  -2  -2    3.56    0.28 
   9   2   2    4.35    0.35 
 -10  -2  -2    3.66    0.30 
  10   2   2    3.89    0.37 
   8  -3  -2   15.30    0.65 
  -8   3   2   13.71    0.68 
   7  -3  -2    8.51    0.44 
  -7   3   2    8.63    0.46 
  -7   3   2    8.81    0.44 
   6  -3  -2    0.01    0.07 
   6  -3  -2   -0.04    0.07 
  -6   3   2   -0.01    0.08 
  -6   3   2    0.05    0.08 
   5  -3  -2   20.11    0.72 
   5  -3  -2   21.57    0.73 
  -5   3   2   22.31    0.75 
  -5   3   2   22.05    0.72 
   4  -3  -2    1.23    0.14 
   4  -3  -2    1.42    0.16 
  -4   3   2    1.29    0.15 
  -4   3   2    1.41    0.14 
   3  -3  -2    0.55    0.09 
   3  -3  -2    0.56    0.10 
  -3   3   2    0.34    0.08 
  -3   3   2    0.38    0.08 
   2  -3  -2    4.00    0.18 
   2  -3  -2    4.26    0.19 
   2  -3  -2    3.47    0.19 
   2  -3  -2    3.59    0.19 
  -2   3   2    3.79    0.19 
  -2   3   2    3.73    0.18 
  -2   3   2    4.21    0.20 
   1  -3  -2  118.93    3.00 
   1  -3  -2  116.24    2.99 
   1  -3  -2  121.33    3.07 
   1  -3  -2  121.42    3.00 
  -1   3   2  116.45    3.06 
  -1   3   2  119.93    3.06 
   0  -3  -2   12.10    0.35 
   0  -3  -2   11.66    0.36 
   0  -3  -2   11.50    0.35 
   0  -3  -2   12.45    0.34 
   0  -3  -2   11.72    0.34 
   0  -3  -2   12.73    0.36 
   0   3   2   12.12    0.32 
   0   3   2   12.03    0.34 
   0   3   2   11.81    0.34 
   0   3   2   11.58    0.33 
  -1  -3  -2   64.89    1.60 
   1   3   2   65.02    1.86 
   2   3   2    7.21    0.30 
  -3  -3  -2   18.54    0.49 
  -3  -3  -2   18.88    0.49 
  -3  -3  -2   19.54    0.50 
   3   3   2   18.41    0.63 
  -4  -3  -2   20.39    0.52 
  -4  -3  -2   18.69    0.52 
  -4  -3  -2   18.60    0.52 
  -4  -3  -2   18.66    0.52 
  -4  -3  -2   18.55    0.53 
   4   3   2   16.97    0.64 
  -5  -3  -2    0.42    0.07 
  -5  -3  -2    0.49    0.07 
  -5  -3  -2    0.44    0.07 
  -5  -3  -2    0.54    0.05 
   5   3   2    0.41    0.04 
   5   3   2    0.56    0.12 
   5   3   2    0.48    0.06 
  -6  -3  -2    3.17    0.18 
  -6  -3  -2    3.17    0.17 
  -6  -3  -2    3.04    0.18 
   6   3   2    2.90    0.15 
   6   3   2    3.33    0.24 
  -7  -3  -2    0.02    0.06 
  -7  -3  -2   -0.01    0.04 
  -7  -3  -2   -0.10    0.04 
   7   3   2    0.08    0.09 
   7   3   2    0.07    0.05 
  -8  -3  -2    0.03    0.03 
  -8  -3  -2   -0.08    0.04 
  -8  -3  -2    0.09    0.08 
   8   3   2    0.00    0.07 
  -9  -3  -2    2.23    0.20 
  -9  -3  -2    2.27    0.23 
   9   3   2    2.44    0.27 
 -10  -3  -2    6.49    0.38 
  10   3   2    6.66    0.45 
   7  -4  -2    2.13    0.23 
  -7   4   2    1.97    0.27 
   6  -4  -2   25.61    0.87 
   6  -4  -2   24.16    0.86 
  -6   4   2   24.27    0.88 
   5  -4  -2    0.00    0.08 
   5  -4  -2    0.10    0.07 
  -5   4   2    0.08    0.05 
  -5   4   2    0.06    0.08 
   4  -4  -2   19.26    0.67 
   4  -4  -2   19.23    0.67 
  -4   4   2   21.73    0.67 
  -4   4   2   19.62    0.68 
   3  -4  -2   43.40    1.22 
   3  -4  -2   40.18    1.21 
  -3   4   2   44.24    1.20 
  -3   4   2   44.13    1.24 
   2  -4  -2   21.55    0.68 
   2  -4  -2   21.33    0.67 
   2  -4  -2   22.48    0.67 
   2  -4  -2   23.79    0.70 
  -2   4   2   22.35    0.68 
  -2   4   2   22.70    0.66 
   1  -4  -2    0.19    0.06 
   1  -4  -2    0.15    0.04 
   1  -4  -2    0.18    0.06 
   1  -4  -2    0.22    0.05 
  -1   4   2    0.31    0.06 
  -1   4   2    0.20    0.05 
  -1   4   2    0.23    0.05 
   0  -4  -2    0.51    0.06 
   0  -4  -2    0.49    0.07 
   0  -4  -2    0.58    0.06 
   0  -4  -2    0.75    0.07 
   0  -4  -2    0.59    0.06 
   0   4   2    0.63    0.04 
   0   4   2    0.63    0.06 
   0   4   2    0.61    0.06 
   0   4   2    0.62    0.06 
  -1  -4  -2  103.04    2.56 
  -1  -4  -2   98.61    2.56 
  -1  -4  -2  106.27    2.56 
  -1  -4  -2  101.86    2.56 
  -1  -4  -2  106.42    2.62 
   2   4   2  139.53    3.91 
  -3  -4  -2    4.91    0.14 
   3   4   2    5.19    0.26 
  -4  -4  -2    7.03    0.21 
  -4  -4  -2    6.36    0.20 
  -4  -4  -2    6.44    0.21 
  -4  -4  -2    6.21    0.21 
  -4  -4  -2    6.62    0.21 
  -5  -4  -2   21.50    0.62 
  -5  -4  -2   21.27    0.63 
  -5  -4  -2   23.46    0.62 
  -5  -4  -2   21.21    0.61 
  -5  -4  -2   22.13    0.61 
   5   4   2   20.89    0.77 
  -6  -4  -2   10.20    0.36 
  -6  -4  -2   10.69    0.36 
  -6  -4  -2    9.94    0.37 
   6   4   2   10.31    0.47 
  -7  -4  -2    3.18    0.19 
  -7  -4  -2    2.95    0.19 
   7   4   2    3.29    0.26 
  -8  -4  -2    7.19    0.34 
  -8  -4  -2    6.80    0.33 
   8   4   2    7.33    0.43 
  -9  -4  -2    6.81    0.35 
  -9  -4  -2    6.30    0.35 
   9   4   2    6.69    0.43 
 -10  -4  -2    0.02    0.09 
  10   4   2    0.03    0.09 
  -7   5   2   -0.04    0.07 
   6  -5  -2    0.19    0.11 
   6  -5  -2    0.30    0.12 
  -6   5   2    0.55    0.15 
   5  -5  -2   14.10    0.57 
   5  -5  -2   13.58    0.57 
  -5   5   2   14.46    0.58 
   4  -5  -2   14.47    0.57 
   4  -5  -2   15.09    0.57 
  -4   5   2   15.32    0.57 
   3  -5  -2    1.12    0.14 
   3  -5  -2    0.99    0.14 
  -3   5   2    1.31    0.12 
  -3   5   2    1.29    0.15 
   2  -5  -2    1.59    0.14 
   2  -5  -2    1.62    0.11 
   2  -5  -2    1.73    0.15 
   2  -5  -2    1.65    0.12 
  -2   5   2    1.61    0.11 
  -2   5   2    1.54    0.14 
   1  -5  -2    1.40    0.10 
   1  -5  -2    1.23    0.12 
   1  -5  -2    1.28    0.10 
   1  -5  -2    1.26    0.11 
  -1   5   2    1.17    0.10 
  -1   5   2    1.16    0.09 
   0  -5  -2   73.27    1.84 
   0  -5  -2   73.76    1.84 
   0  -5  -2   71.28    1.84 
   0  -5  -2   72.88    1.89 
   0   5   2   63.75    1.84 
   0   5   2   74.68    1.85 
  -1  -5  -2   13.97    0.39 
  -1  -5  -2   13.04    0.39 
  -1  -5  -2   14.08    0.41 
  -1  -5  -2   14.11    0.40 
  -1  -5  -2   13.11    0.39 
  -2  -5  -2    0.93    0.05 
  -2  -5  -2    0.93    0.05 
  -2  -5  -2    0.92    0.05 
   2   5   2    0.75    0.12 
  -3  -5  -2   38.21    0.95 
   3   5   2   36.85    1.18 
  -4  -5  -2   11.97    0.32 
  -4  -5  -2   11.62    0.32 
  -4  -5  -2   11.79    0.33 
  -4  -5  -2   11.86    0.34 
   4   5   2   11.52    0.48 
  -5  -5  -2    4.49    0.17 
  -5  -5  -2    3.97    0.16 
  -5  -5  -2    4.24    0.17 
  -5  -5  -2    4.08    0.17 
  -5  -5  -2    4.56    0.17 
   5   5   2    3.97    0.26 
  -6  -5  -2   12.35    0.39 
  -6  -5  -2   11.82    0.40 
   6   5   2   11.20    0.52 
  -7  -5  -2    7.86    0.32 
  -7  -5  -2    7.89    0.32 
   7   5   2    8.01    0.43 
  -8  -5  -2    2.75    0.20 
  -8  -5  -2    2.70    0.19 
   8   5   2    2.85    0.27 
  -9  -5  -2    3.02    0.21 
  -9  -5  -2    2.92    0.22 
   9   5   2    3.04    0.29 
   6  -6  -2    2.86    0.24 
   6  -6  -2    2.47    0.26 
   5  -6  -2    1.12    0.17 
   5  -6  -2    0.67    0.15 
  -5   6   2    0.98    0.17 
   4  -6  -2   26.25    0.88 
   4  -6  -2   24.79    0.87 
  -4   6   2   27.24    0.88 
   3  -6  -2   32.00    1.00 
   3  -6  -2   31.64    1.00 
  -3   6   2   33.48    1.00 
   2  -6  -2    0.07    0.05 
   2  -6  -2    0.10    0.08 
  -2   6   2    0.15    0.07 
   1  -6  -2   28.89    0.87 
   1  -6  -2   30.27    0.90 
   1  -6  -2   29.53    0.88 
  -1   6   2   30.56    0.86 
  -1   6   2   30.58    0.82 
   0  -6  -2    0.55    0.06 
   0  -6  -2    0.46    0.07 
   0  -6  -2    0.43    0.08 
   0  -6  -2    0.54    0.08 
   0   6   2    0.43    0.05 
  -1  -6  -2   11.16    0.35 
  -1  -6  -2   10.07    0.34 
  -1  -6  -2   10.22    0.34 
  -1  -6  -2   10.77    0.34 
  -1  -6  -2   10.73    0.34 
  -2  -6  -2    1.22    0.08 
  -2  -6  -2    1.20    0.07 
  -2  -6  -2    1.07    0.07 
  -2  -6  -2    1.05    0.08 
  -2  -6  -2    1.11    0.07 
  -3  -6  -2   73.97    1.86 
  -3  -6  -2   75.57    1.86 
  -3  -6  -2   74.31    1.86 
  -3  -6  -2   73.87    1.86 
   3   6   2   73.57    2.20 
  -4  -6  -2   17.77    0.50 
  -4  -6  -2   18.79    0.49 
  -4  -6  -2   18.52    0.49 
   4   6   2   17.66    0.68 
  -5  -6  -2    0.73    0.07 
  -5  -6  -2    0.86    0.06 
  -5  -6  -2    0.72    0.07 
   5   6   2    0.58    0.13 
  -6  -6  -2    3.02    0.16 
  -6  -6  -2    2.96    0.15 
   6   6   2    2.94    0.25 
  -7  -6  -2    8.20    0.32 
  -7  -6  -2    8.12    0.32 
   7   6   2    8.26    0.45 
  -8  -6  -2   -0.02    0.05 
  -8  -6  -2    0.04    0.04 
   8   6   2    0.03    0.09 
  -9  -6  -2    1.57    0.15 
  -9  -6  -2    1.47    0.14 
   9   6   2    1.31    0.22 
   5  -7  -2    2.19    0.21 
   5  -7  -2    2.63    0.27 
   4  -7  -2    2.42    0.24 
   4  -7  -2    2.82    0.22 
   3  -7  -2   -0.03    0.04 
   3  -7  -2    0.01    0.08 
   2  -7  -2   20.66    0.70 
   2  -7  -2   20.71    0.70 
  -2   7   2   20.56    0.70 
   1  -7  -2    4.94    0.25 
   1  -7  -2    4.48    0.25 
  -1   7   2    4.66    0.21 
   0  -7  -2    7.19    0.30 
   0  -7  -2    7.56    0.30 
  -1  -7  -2   11.14    0.38 
  -1  -7  -2   11.20    0.38 
  -2  -7  -2   18.46    0.54 
  -2  -7  -2   19.15    0.54 
  -2  -7  -2   17.82    0.53 
  -3  -7  -2   27.73    0.74 
  -3  -7  -2   27.44    0.74 
  -3  -7  -2   27.60    0.74 
   3   7   2   26.99    0.95 
  -4  -7  -2    2.52    0.11 
  -4  -7  -2    2.42    0.11 
  -4  -7  -2    2.35    0.11 
  -4  -7  -2    2.49    0.12 
   4   7   2    2.62    0.22 
  -5  -7  -2   28.87    0.79 
  -5  -7  -2   29.53    0.81 
   5   7   2   28.69    1.02 
  -6  -7  -2   23.23    0.68 
  -6  -7  -2   22.84    0.66 
   6   7   2   23.54    0.89 
  -7  -7  -2    3.46    0.19 
  -7  -7  -2    3.89    0.19 
   7   7   2    3.53    0.29 
  -8  -7  -2    1.03    0.13 
  -8  -7  -2    0.95    0.11 
   8   7   2    0.93    0.19 
  -9  -7  -2   19.48    0.68 
  -9  -7  -2   19.46    0.67 
   9   7   2   20.80    0.88 
   4  -8  -2    1.08    0.18 
   4  -8  -2    1.05    0.19 
   3  -8  -2    0.97    0.16 
   3  -8  -2    0.66    0.15 
   2  -8  -2    6.88    0.34 
   2  -8  -2    6.19    0.34 
   1  -8  -2   19.64    0.69 
   1  -8  -2   21.01    0.69 
   0  -8  -2    5.45    0.26 
   0  -8  -2    5.20    0.27 
  -1  -8  -2    0.01    0.05 
  -1  -8  -2   -0.01    0.02 
  -2  -8  -2    0.20    0.05 
  -2  -8  -2    0.36    0.07 
  -3  -8  -2    1.22    0.09 
  -3  -8  -2    1.24    0.10 
  -4  -8  -2    0.76    0.08 
  -4  -8  -2    0.98    0.08 
   4   8   2    1.07    0.18 
  -5  -8  -2    0.44    0.07 
  -5  -8  -2    0.40    0.06 
   5   8   2    0.49    0.13 
  -6  -8  -2    0.30    0.06 
  -6  -8  -2    0.21    0.06 
   6   8   2    0.14    0.10 
  -7  -8  -2    9.29    0.34 
  -7  -8  -2    8.91    0.33 
   7   8   2    8.46    0.48 
  -8  -8  -2    4.89    0.25 
   8   8   2    4.94    0.36 
   3  -9  -2   22.01    0.80 
   3  -9  -2   21.52    0.81 
   2  -9  -2    7.18    0.40 
   2  -9  -2    7.78    0.38 
   1  -9  -2    0.31    0.07 
   1  -9  -2    0.22    0.10 
   0  -9  -2   29.45    0.92 
   0  -9  -2   29.62    0.91 
  -1  -9  -2    9.00    0.37 
  -1  -9  -2    9.50    0.37 
  -2  -9  -2    5.36    0.25 
  -2  -9  -2    5.54    0.24 
  -4  -9  -2    4.65    0.21 
  -4  -9  -2    4.97    0.21 
  -5  -9  -2    6.13    0.26 
  -5  -9  -2    5.98    0.24 
   5   9   2    6.63    0.40 
  -6  -9  -2    1.74    0.12 
   6   9   2    2.05    0.23 
  -7  -9  -2    2.77    0.16 
   7   9   2    2.82    0.27 
  -8  -9  -2    9.20    0.37 
   8   9   2    9.34    0.52 
   2 -10  -2    2.64    0.20 
   2 -10  -2    2.56    0.26 
   1 -10  -2    2.13    0.22 
   1 -10  -2    2.14    0.17 
   0 -10  -2    4.22    0.27 
   0 -10  -2    4.77    0.26 
  -1 -10  -2    2.24    0.18 
  -1 -10  -2    2.59    0.16 
  -2 -10  -2   19.52    0.64 
  -3 -10  -2    3.02    0.19 
  -3 -10  -2    2.93    0.17 
  -4 -10  -2    2.08    0.15 
  -5 -10  -2    0.53    0.08 
  -6 -10  -2    8.83    0.34 
   6  10   2    9.18    0.51 
  -1 -11  -2    1.19    0.16 
  -3 -11  -2   21.04    0.69 
  -4 -11  -2    2.28    0.16 
  -2 -10   3    0.33    0.08 
  -2 -10   3    0.45    0.13 
  -5  -9   3    0.54    0.09 
  -5  -9   3    0.45    0.10 
  -4  -9   3    6.50    0.34 
  -4  -9   3    6.21    0.32 
  -4  -9   3    5.83    0.33 
  -3  -9   3   -0.04    0.03 
  -3  -9   3   -0.05    0.07 
  -3  -9   3    0.10    0.05 
  -2  -9   3    1.78    0.16 
  -2  -9   3    1.72    0.17 
  -2  -9   3    1.55    0.20 
  -1  -9   3    1.04    0.18 
  -1  -9   3    1.01    0.15 
  -1  -9   3    0.80    0.14 
   0  -9   3    3.54    0.24 
   0  -9   3    2.97    0.26 
   1  -9   3    5.18    0.32 
   1  -9   3    4.93    0.33 
   2  -9   3    5.39    0.33 
   2  -9   3    4.85    0.35 
  -7  -8   3    4.49    0.26 
  -6  -8   3    0.03    0.03 
  -6  -8   3    0.13    0.06 
  -6  -8   3    0.08    0.04 
  -5  -8   3    0.12    0.06 
  -5  -8   3    0.16    0.07 
  -5  -8   3    0.09    0.08 
  -4  -8   3   16.81    0.62 
  -4  -8   3   16.91    0.61 
  -4  -8   3   16.76    0.63 
  -3  -8   3    0.71    0.13 
  -3  -8   3    1.12    0.12 
  -3  -8   3    0.82    0.14 
  -2  -8   3    1.67    0.17 
  -2  -8   3    1.59    0.15 
  -2  -8   3    1.09    0.16 
  -1  -8   3    0.64    0.12 
  -1  -8   3    0.64    0.12 
  -1  -8   3    0.74    0.14 
   0  -8   3   15.55    0.62 
   0  -8   3   16.24    0.61 
   0  -8   3   15.78    0.61 
  -1   8  -3    1.12    0.15 
   1  -8   3    1.15    0.16 
   1  -8   3    1.05    0.17 
   1  -8   3    0.76    0.15 
  -2   8  -3    9.63    0.42 
   2  -8   3    8.98    0.46 
   2  -8   3    9.79    0.46 
   2  -8   3    9.80    0.48 
  -3   8  -3   14.11    0.57 
   3  -8   3   14.99    0.62 
   3  -8   3   13.31    0.61 
  -4   8  -3    3.13    0.25 
   4  -8   3    2.71    0.27 
   4  -8   3    2.87    0.25 
  -7  -7   3    0.04    0.04 
  -7  -7   3    0.04    0.08 
  -6  -7   3    1.42    0.18 
  -6  -7   3    1.70    0.15 
  -6  -7   3    1.63    0.17 
  -5  -7   3    1.64    0.15 
  -5  -7   3    1.56    0.17 
  -5  -7   3    1.64    0.17 
  -4  -7   3   14.23    0.53 
  -4  -7   3   13.92    0.52 
  -4  -7   3   14.57    0.55 
  -3  -7   3    1.51    0.14 
  -3  -7   3    1.57    0.17 
  -3  -7   3    2.21    0.18 
   2   7  -3    1.97    0.14 
  -2  -7   3    1.82    0.16 
  -2  -7   3    1.74    0.18 
  -2  -7   3    1.97    0.17 
   1   7  -3   -0.05    0.06 
  -1  -7   3    0.05    0.07 
  -1  -7   3   -0.02    0.04 
  -1  -7   3    0.00    0.04 
   0   7  -3    0.12    0.07 
   0   7  -3    0.04    0.05 
   0  -7   3    0.06    0.08 
   0  -7   3    0.12    0.06 
   0  -7   3    0.10    0.06 
  -1   7  -3    4.89    0.27 
  -1   7  -3    5.23    0.27 
   1  -7   3    4.68    0.30 
   1  -7   3    5.37    0.30 
   1  -7   3    4.91    0.30 
  -2   7  -3    0.21    0.08 
  -2   7  -3    0.28    0.10 
   2  -7   3    0.16    0.07 
   2  -7   3    0.28    0.12 
  -3   7  -3    0.34    0.11 
   3  -7   3    0.37    0.12 
   3  -7   3    0.46    0.11 
  -4   7  -3    2.28    0.22 
   4  -7   3    2.23    0.21 
   4  -7   3    2.16    0.27 
  -5   7  -3    7.64    0.43 
   5  -7   3    7.37    0.44 
   5  -7   3    7.37    0.42 
   8   6  -3    1.69    0.19 
  -8  -6   3    1.58    0.21 
   7   6  -3    6.28    0.36 
  -7  -6   3    6.23    0.34 
  -7  -6   3    6.22    0.35 
   6   6  -3    4.44    0.27 
  -6  -6   3    4.07    0.27 
  -6  -6   3    4.03    0.26 
  -6  -6   3    4.75    0.26 
   5   6  -3    9.49    0.42 
  -5  -6   3   10.19    0.41 
  -5  -6   3    9.20    0.41 
  -5  -6   3    9.02    0.40 
   4   6  -3    1.84    0.13 
   4   6  -3    1.51    0.15 
  -4  -6   3    1.44    0.16 
  -4  -6   3    1.57    0.15 
  -4  -6   3    1.67    0.15 
   3   6  -3    0.12    0.06 
   3   6  -3    0.10    0.06 
   3   6  -3    0.21    0.05 
  -3  -6   3    0.12    0.07 
  -3  -6   3    0.29    0.08 
  -3  -6   3    0.05    0.05 
   2   6  -3   12.74    0.43 
   2   6  -3   12.41    0.43 
  -2  -6   3   12.66    0.46 
  -2  -6   3   11.82    0.47 
  -2  -6   3   12.68    0.47 
   1   6  -3   14.63    0.50 
   1   6  -3   14.43    0.49 
  -1  -6   3   14.15    0.53 
  -1  -6   3   15.07    0.52 
  -1  -6   3   14.46    0.52 
   0   6  -3    8.26    0.35 
   0   6  -3    8.58    0.34 
   0  -6   3    8.02    0.36 
   0  -6   3    8.06    0.36 
   0  -6   3    7.50    0.35 
  -1   6  -3    3.44    0.22 
  -1   6  -3    3.59    0.23 
   1  -6   3    3.26    0.23 
   1  -6   3    2.94    0.22 
   1  -6   3    3.32    0.22 
  -2   6  -3   23.03    0.75 
  -2   6  -3   22.63    0.77 
   2  -6   3   23.17    0.77 
   2  -6   3   22.62    0.77 
  -3   6  -3   16.38    0.62 
  -3   6  -3   15.84    0.60 
   3  -6   3   15.54    0.61 
   3  -6   3   15.77    0.61 
  -4   6  -3    0.32    0.12 
  -4   6  -3    0.39    0.12 
   4  -6   3    0.44    0.13 
   4  -6   3    0.43    0.13 
  -5   6  -3   22.51    0.84 
  -5   6  -3   22.10    0.81 
   5  -6   3   22.27    0.84 
  -6   6  -3    4.20    0.31 
  -6   6  -3    3.48    0.28 
   6  -6   3    4.02    0.31 
   8   5  -3    1.79    0.19 
  -8  -5   3    1.74    0.23 
   7   5  -3    3.39    0.25 
  -7  -5   3    2.70    0.24 
  -7  -5   3    2.98    0.23 
   6   5  -3    0.86    0.14 
  -6  -5   3    0.67    0.13 
  -6  -5   3    0.72    0.14 
   5   5  -3    9.11    0.41 
   5   5  -3    9.23    0.35 
  -5  -5   3   10.10    0.41 
  -5  -5   3    9.97    0.40 
  -5  -5   3    9.39    0.40 
   4   5  -3    0.25    0.08 
   4   5  -3    0.19    0.07 
   4   5  -3    0.37    0.07 
  -4  -5   3    0.17    0.07 
  -4  -5   3    0.23    0.08 
  -4  -5   3    0.22    0.08 
   3   5  -3   27.22    0.81 
   3   5  -3   27.40    0.77 
   3   5  -3   28.50    0.87 
   3   5  -3   26.75    0.79 
  -3  -5   3   28.37    0.85 
  -3  -5   3   27.10    0.85 
  -3  -5   3   27.55    0.83 
  -3  -5   3   27.27    0.83 
   2   5  -3   11.17    0.36 
   2   5  -3   11.06    0.39 
   2   5  -3   10.35    0.38 
   2   5  -3   11.64    0.39 
  -2  -5   3   10.38    0.41 
  -2  -5   3   10.83    0.41 
  -2  -5   3   10.37    0.40 
  -2  -5   3   11.80    0.42 
   1   5  -3    0.32    0.08 
   1   5  -3    0.37    0.08 
   1   5  -3    0.41    0.06 
  -1  -5   3    0.40    0.06 
  -1  -5   3    0.41    0.09 
  -1  -5   3    0.26    0.08 
  -1  -5   3    0.46    0.09 
  -1  -5   3    0.43    0.07 
   0   5  -3   20.88    0.65 
   0   5  -3   20.18    0.66 
   0   5  -3   21.61    0.64 
   0  -5   3   20.51    0.66 
   0  -5   3   20.26    0.68 
   0  -5   3   21.52    0.67 
  -1   5  -3    8.24    0.34 
  -1   5  -3    7.97    0.35 
  -1   5  -3    8.40    0.33 
   1  -5   3    8.12    0.35 
   1  -5   3    8.33    0.35 
   1  -5   3    8.09    0.36 
  -2   5  -3    0.54    0.11 
  -2   5  -3    0.74    0.11 
  -2   5  -3    0.40    0.10 
   2  -5   3    0.35    0.10 
   2  -5   3    0.39    0.10 
  -3   5  -3    0.78    0.12 
  -3   5  -3    0.70    0.14 
  -3   5  -3    0.69    0.13 
   3  -5   3    0.62    0.13 
   3  -5   3    0.99    0.15 
  -4   5  -3   14.39    0.56 
  -4   5  -3   14.02    0.57 
  -4   5  -3   14.03    0.54 
   4  -5   3   14.38    0.57 
  -5   5  -3   16.34    0.66 
  -5   5  -3   16.92    0.65 
   5  -5   3   16.34    0.66 
  -6   5  -3    9.32    0.49 
  -6   5  -3    9.55    0.48 
   6  -5   3    9.79    0.49 
  -7   5  -3   14.59    0.68 
  -7   5  -3   16.19    0.69 
   7  -5   3   15.93    0.68 
   9   4  -3    0.03    0.05 
  -9  -4   3   -0.03    0.08 
   8   4  -3    0.00    0.06 
  -8  -4   3    0.04    0.09 
  -8  -4   3    0.12    0.07 
   7   4  -3    3.43    0.20 
   7   4  -3    3.18    0.25 
  -7  -4   3    2.87    0.24 
  -7  -4   3    3.08    0.23 
   6   4  -3    3.41    0.20 
   6   4  -3    3.32    0.24 
  -6  -4   3    3.56    0.24 
  -6  -4   3    3.35    0.24 
   5   4  -3    0.14    0.07 
   5   4  -3    0.03    0.05 
  -5  -4   3    0.04    0.05 
  -5  -4   3    0.01    0.06 
   4   4  -3   42.23    1.17 
   4   4  -3   41.31    1.28 
   4   4  -3   39.63    1.14 
   4   4  -3   41.29    1.13 
  -4  -4   3   44.36    1.22 
  -4  -4   3   41.26    1.21 
  -4  -4   3   41.83    1.18 
   3   4  -3   -0.02    0.05 
   3   4  -3    0.06    0.04 
   3   4  -3    0.00    0.03 
   3   4  -3    0.00    0.05 
  -3  -4   3    0.15    0.06 
  -3  -4   3    0.05    0.03 
  -3  -4   3    0.06    0.05 
  -3  -4   3    0.01    0.05 
   2   4  -3    1.78    0.13 
   2   4  -3    1.98    0.13 
   2   4  -3    2.01    0.12 
  -2  -4   3    2.24    0.16 
  -2  -4   3    1.96    0.13 
  -2  -4   3    1.86    0.14 
  -2  -4   3    2.10    0.15 
  -2  -4   3    2.18    0.13 
   1   4  -3   14.94    0.50 
   1   4  -3   15.38    0.49 
   1   4  -3   15.55    0.48 
  -1  -4   3   15.29    0.50 
  -1  -4   3   15.99    0.52 
  -1  -4   3   16.04    0.52 
  -1  -4   3   16.09    0.51 
  -1  -4   3   15.94    0.51 
   0   4  -3   87.94    2.31 
   0   4  -3   90.63    2.31 
   0   4  -3   89.13    2.37 
   0  -4   3   89.83    2.38 
   0  -4   3   86.14    2.32 
   0  -4   3   88.02    2.32 
   0  -4   3   90.58    2.39 
   0  -4   3   87.47    2.32 
   0  -4   3   94.09    2.47 
  -1   4  -3    0.54    0.10 
  -1   4  -3    0.44    0.09 
  -1   4  -3    0.53    0.08 
   1  -4   3    0.49    0.09 
   1  -4   3    0.58    0.10 
   1  -4   3    0.47    0.09 
  -2   4  -3   21.68    0.67 
  -2   4  -3   21.26    0.66 
  -2   4  -3   21.06    0.68 
   2  -4   3   20.17    0.67 
   2  -4   3   20.33    0.67 
  -3   4  -3    0.03    0.05 
  -3   4  -3    0.08    0.07 
  -3   4  -3    0.05    0.08 
   3  -4   3    0.17    0.08 
  -4   4  -3    0.75    0.12 
  -4   4  -3    1.03    0.16 
  -4   4  -3    1.02    0.15 
   4  -4   3    0.77    0.13 
  -5   4  -3    7.54    0.39 
  -5   4  -3    7.01    0.39 
  -5   4  -3    7.65    0.38 
   5  -4   3    7.59    0.38 
   5  -4   3    7.69    0.39 
  -6   4  -3   -0.05    0.07 
  -6   4  -3    0.01    0.09 
  -6   4  -3    0.07    0.08 
   6  -4   3   -0.01    0.07 
  -7   4  -3    0.59    0.15 
  -7   4  -3    0.77    0.17 
   7  -4   3    0.68    0.15 
   9   3  -3    5.82    0.39 
  -9  -3   3    4.97    0.36 
   8   3  -3    3.36    0.28 
  -8  -3   3    3.25    0.26 
  -8  -3   3    3.30    0.28 
   7   3  -3   -0.01    0.07 
   7   3  -3    0.12    0.06 
  -7  -3   3   -0.07    0.04 
  -7  -3   3    0.02    0.08 
   6   3  -3    1.85    0.16 
   6   3  -3    2.04    0.19 
  -6  -3   3    1.70    0.17 
  -6  -3   3    1.58    0.19 
   5   3  -3   17.84    0.59 
   5   3  -3   18.96    0.69 
  -5  -3   3   18.73    0.62 
  -5  -3   3   18.75    0.64 
   4   3  -3   10.78    0.40 
   4   3  -3   10.79    0.39 
   4   3  -3   10.80    0.43 
  -4  -3   3   10.94    0.40 
  -4  -3   3   11.03    0.42 
  -4  -3   3   11.41    0.40 
  -4  -3   3   11.74    0.42 
   3   3  -3    9.99    0.36 
   3   3  -3    9.32    0.35 
   3   3  -3    9.80    0.37 
   3   3  -3   10.31    0.34 
  -3  -3   3   10.85    0.38 
  -3  -3   3   10.17    0.38 
  -3  -3   3   10.62    0.36 
  -3  -3   3    9.52    0.36 
   2   3  -3   10.60    0.36 
   2   3  -3   10.66    0.35 
   2   3  -3   10.72    0.36 
   2   3  -3   10.40    0.37 
  -2  -3   3   11.35    0.38 
  -2  -3   3   10.56    0.36 
  -2  -3   3   10.43    0.37 
  -2  -3   3   10.19    0.37 
  -2  -3   3   10.60    0.38 
   1   3  -3   14.27    0.45 
   1   3  -3   14.51    0.47 
   1   3  -3   14.56    0.43 
   1   3  -3   14.51    0.45 
  -1  -3   3   14.44    0.46 
  -1  -3   3   13.49    0.46 
  -1  -3   3   14.66    0.47 
  -1  -3   3   14.37    0.46 
  -1  -3   3   15.08    0.48 
   0   3  -3   32.56    0.91 
   0   3  -3   32.40    0.94 
   0   3  -3   31.48    0.91 
   0  -3   3   34.63    0.95 
   0  -3   3   31.58    0.92 
   0  -3   3   34.21    0.92 
   0  -3   3   33.05    0.94 
   0  -3   3   33.76    0.92 
   0  -3   3   32.28    0.91 
  -1   3  -3    5.12    0.24 
  -1   3  -3    5.47    0.23 
  -1   3  -3    4.96    0.23 
   1  -3   3    5.20    0.24 
   1  -3   3    5.17    0.23 
   1  -3   3    4.70    0.22 
   1  -3   3    5.20    0.24 
  -2   3  -3  113.46    2.93 
  -2   3  -3  116.80    2.94 
  -2   3  -3  112.72    3.01 
   2  -3   3  114.03    2.94 
   2  -3   3  114.79    2.94 
  -3   3  -3    2.35    0.18 
  -3   3  -3    2.48    0.17 
  -3   3  -3    2.65    0.18 
  -4   3  -3   34.06    1.04 
  -4   3  -3   35.53    1.04 
  -4   3  -3   35.17    1.07 
   4  -3   3   35.98    1.04 
   4  -3   3   34.02    1.04 
  -5   3  -3    8.86    0.41 
  -5   3  -3    8.78    0.42 
  -5   3  -3    8.89    0.41 
   5  -3   3    9.51    0.41 
   5  -3   3    8.89    0.40 
  -6   3  -3   37.11    1.20 
  -6   3  -3   37.46    1.16 
  -6   3  -3   37.27    1.17 
   6  -3   3   37.17    1.16 
   6  -3   3   36.86    1.15 
  -7   3  -3   14.22    0.61 
  -7   3  -3   14.31    0.61 
  -7   3  -3   13.50    0.62 
   7  -3   3   15.33    0.61 
  -8   3  -3    7.19    0.43 
  -8   3  -3    6.95    0.42 
   8  -3   3    7.17    0.41 
  -9  -2   3    1.88    0.25 
   8   2  -3    4.23    0.27 
  -8  -2   3    4.42    0.30 
  -8  -2   3    4.26    0.31 
   7   2  -3    0.09    0.07 
  -7  -2   3   -0.01    0.06 
  -7  -2   3    0.10    0.09 
   6   2  -3    9.18    0.38 
  -6  -2   3    8.47    0.39 
  -6  -2   3    8.59    0.40 
   5   2  -3    2.26    0.17 
   5   2  -3    2.33    0.15 
  -5  -2   3    2.25    0.18 
  -5  -2   3    2.21    0.18 
   4   2  -3   19.90    0.66 
   4   2  -3   21.10    0.63 
   4   2  -3   20.31    0.64 
  -4  -2   3   20.57    0.67 
  -4  -2   3   22.50    0.68 
  -4  -2   3   21.08    0.65 
   3   2  -3    1.78    0.12 
   3   2  -3    1.65    0.14 
   3   2  -3    1.66    0.13 
  -3  -2   3    1.88    0.13 
  -3  -2   3    1.53    0.13 
  -3  -2   3    1.67    0.11 
  -3  -2   3    1.88    0.12 
   2   2  -3    0.68    0.09 
   2   2  -3    0.69    0.09 
   2   2  -3    0.64    0.08 
   2   2  -3    0.54    0.08 
  -2  -2   3    0.69    0.09 
  -2  -2   3    0.57    0.09 
  -2  -2   3    0.68    0.09 
  -2  -2   3    0.88    0.09 
  -2  -2   3    0.81    0.08 
   1   2  -3    1.09    0.11 
   1   2  -3    1.06    0.09 
   1   2  -3    0.93    0.07 
   1   2  -3    1.07    0.10 
   1   2  -3    1.09    0.10 
  -1  -2   3    1.10    0.09 
  -1  -2   3    0.98    0.10 
  -1  -2   3    1.09    0.10 
  -1  -2   3    1.01    0.10 
  -1  -2   3    1.25    0.10 
   0   2  -3    6.83    0.26 
   0   2  -3    7.30    0.27 
   0   2  -3    7.15    0.26 
   0  -2   3    7.05    0.27 
   0  -2   3    6.97    0.26 
   0  -2   3    7.25    0.27 
   0  -2   3    7.07    0.26 
  -1   2  -3   26.31    0.74 
  -1   2  -3   25.17    0.76 
  -1   2  -3   25.85    0.74 
   1  -2   3   26.35    0.74 
   1  -2   3   25.23    0.73 
   1  -2   3   26.67    0.76 
   1  -2   3   26.49    0.76 
  -2   2  -3   48.85    1.30 
  -2   2  -3   49.94    1.30 
  -2   2  -3   47.39    1.33 
   2  -2   3   48.36    1.33 
   2  -2   3   46.02    1.30 
   2  -2   3   48.78    1.30 
  -3   2  -3    2.95    0.18 
  -3   2  -3    2.91    0.19 
  -3   2  -3    2.92    0.18 
   3  -2   3    2.92    0.18 
   3  -2   3    2.84    0.18 
  -4   2  -3   32.85    0.97 
  -4   2  -3   32.50    1.00 
  -4   2  -3   33.80    0.98 
   4  -2   3   32.78    0.97 
  -5   2  -3    0.12    0.08 
  -5   2  -3    0.01    0.07 
  -5   2  -3    0.04    0.06 
   5  -2   3    0.14    0.07 
   5  -2   3    0.07    0.06 
  -6   2  -3   19.69    0.71 
  -6   2  -3   19.76    0.70 
  -6   2  -3   20.19    0.73 
   6  -2   3   20.25    0.70 
   6  -2   3   19.12    0.67 
  -7   2  -3    1.97    0.23 
  -7   2  -3    2.24    0.21 
  -7   2  -3    1.92    0.22 
   7  -2   3    1.91    0.19 
  -8   2  -3    3.21    0.29 
  -8   2  -3    4.00    0.30 
  -8   2  -3    4.38    0.29 
   8  -2   3    3.75    0.28 
   9   1  -3    3.23    0.25 
  -9  -1   3    2.97    0.29 
   8   1  -3    0.54    0.13 
  -8  -1   3    0.69    0.16 
  -8  -1   3    0.37    0.13 
   7   1  -3   11.52    0.48 
  -7  -1   3   11.75    0.52 
  -7  -1   3   11.74    0.51 
   6   1  -3   22.37    0.74 
   6   1  -3   23.20    0.73 
  -6  -1   3   22.31    0.78 
  -6  -1   3   22.55    0.75 
   5   1  -3   11.39    0.42 
   5   1  -3   11.56    0.43 
  -5  -1   3   10.80    0.45 
  -5  -1   3   11.70    0.44 
   4   1  -3    2.79    0.17 
   4   1  -3    2.49    0.17 
   4   1  -3    2.55    0.16 
  -4  -1   3    2.38    0.17 
  -4  -1   3    2.65    0.18 
   3   1  -3   83.30    2.21 
   3   1  -3   85.48    2.27 
   3   1  -3   86.28    2.22 
  -3  -1   3   85.08    2.28 
  -3  -1   3   88.18    2.28 
  -3  -1   3   86.91    2.22 
   2   1  -3    9.10    0.33 
   2   1  -3    9.68    0.33 
   2   1  -3    9.53    0.34 
   2   1  -3    9.44    0.33 
  -2  -1   3    9.60    0.34 
  -2  -1   3    9.95    0.33 
  -2  -1   3    9.97    0.33 
  -2  -1   3   10.43    0.35 
   1   1  -3   20.23    0.59 
   1   1  -3   19.55    0.57 
   1   1  -3   19.48    0.58 
   1   1  -3   19.99    0.59 
  -1  -1   3   19.90    0.57 
  -1  -1   3   20.96    0.60 
  -1  -1   3   20.00    0.59 
  -1  -1   3   21.38    0.58 
  -1  -1   3   19.20    0.58 
   0   1  -3   36.18    0.99 
   0   1  -3   35.20    0.98 
   0   1  -3   37.88    1.01 
   0   1  -3   36.90    1.01 
   0  -1   3   37.25    0.98 
   0  -1   3   36.98    0.99 
   0  -1   3   35.07    0.98 
   0  -1   3   37.46    1.01 
   0  -1   3   40.51    1.02 
  -1   1  -3   24.87    0.71 
  -1   1  -3   23.72    0.69 
  -1   1  -3   25.45    0.69 
   1  -1   3   24.42    0.71 
   1  -1   3   26.00    0.70 
   1  -1   3   24.74    0.69 
   1  -1   3   25.51    0.71 
   1  -1   3   23.97    0.69 
  -2   1  -3   47.38    1.21 
  -2   1  -3   45.14    1.21 
  -2   1  -3   45.41    1.21 
   2  -1   3   46.06    1.21 
   2  -1   3   45.94    1.24 
   2  -1   3   44.51    1.21 
   2  -1   3   43.77    1.24 
  -3   1  -3    2.82    0.17 
  -3   1  -3    2.88    0.16 
  -3   1  -3    2.64    0.17 
   3  -1   3    2.98    0.16 
   3  -1   3    2.95    0.16 
  -4   1  -3   52.15    1.40 
  -4   1  -3   50.77    1.43 
  -4   1  -3   49.52    1.40 
   4  -1   3   52.28    1.39 
  -5   1  -3   16.00    0.57 
  -5   1  -3   15.77    0.55 
  -5   1  -3   16.04    0.56 
   5  -1   3   16.32    0.55 
  -6   1  -3    9.95    0.42 
  -6   1  -3    9.81    0.43 
  -6   1  -3    9.50    0.42 
   6  -1   3    9.16    0.39 
  -7   1  -3   11.05    0.51 
  -7   1  -3   11.77    0.50 
  -7   1  -3   11.58    0.50 
   7  -1   3   11.69    0.48 
  -8   1  -3    1.50    0.20 
  -8   1  -3    1.62    0.22 
  -8   1  -3    1.93    0.24 
   8  -1   3    2.17    0.20 
  -9   1  -3    0.39    0.10 
  -9   1  -3    0.19    0.12 
   9  -1   3    0.49    0.13 
   9  -1   3    0.18    0.12 
   9   0  -3    4.25    0.31 
  -9   0   3    4.37    0.35 
   8   0  -3    0.15    0.09 
  -8   0   3    0.14    0.11 
  -8   0   3    0.22    0.12 
   7   0  -3    0.02    0.07 
  -7   0   3    0.03    0.08 
  -7   0   3   -0.06    0.09 
   6   0  -3    0.24    0.10 
   6   0  -3    0.14    0.06 
  -6   0   3    0.16    0.09 
  -6   0   3    0.29    0.10 
   5   0  -3   24.56    0.75 
   5   0  -3   22.59    0.75 
  -5   0   3   24.37    0.76 
  -5   0   3   22.78    0.78 
   4   0  -3   11.95    0.43 
   4   0  -3   11.34    0.41 
  -4   0   3   12.10    0.43 
  -4   0   3   11.10    0.43 
   3   0  -3   20.82    0.68 
   3   0  -3   22.49    0.66 
   3   0  -3   21.69    0.67 
  -3   0   3   22.15    0.66 
  -3   0   3   24.19    0.69 
  -3   0   3   22.51    0.68 
   2   0  -3    8.76    0.33 
   2   0  -3    8.77    0.31 
   2   0  -3    9.62    0.32 
   2   0  -3    8.97    0.32 
  -2   0   3    9.87    0.33 
  -2   0   3    8.71    0.31 
  -2   0   3    8.86    0.32 
   1   0  -3  141.30    3.74 
   1   0  -3  142.62    3.66 
   1   0  -3  151.90    3.75 
   1   0  -3  150.98    3.66 
   1   0  -3  146.63    3.65 
  -1   0   3  149.12    3.66 
  -1   0   3  149.78    3.75 
  -1   0   3  144.20    3.66 
  -1   0   3  140.22    3.74 
   0   0  -3   47.76    1.26 
   0   0  -3   49.21    1.26 
   0   0  -3   45.62    1.29 
   0   0  -3   51.09    1.26 
   0   0  -3   48.18    1.26 
   0   0  -3   48.34    1.29 
   0   0   3   49.68    1.26 
   0   0   3   49.79    1.26 
   0   0   3   47.04    1.26 
   0   0   3   49.58    1.26 
   0   0   3   46.97    1.29 
   0   0   3   49.27    1.29 
  -1   0  -3  190.37    4.99 
  -1   0  -3  205.28    5.00 
  -1   0  -3  191.44    4.88 
  -1   0  -3  205.16    4.87 
  -1   0  -3  190.32    4.87 
  -1   0  -3  200.38    5.41 
  -1   0  -3  198.68    4.89 
   1   0   3  197.57    4.88 
   1   0   3  199.62    4.99 
   1   0   3  191.98    4.99 
   1   0   3  194.20    4.87 
   1   0   3  204.63    5.41 
   1   0   3  189.81    4.86 
  -2   0  -3   19.26    0.56 
  -2   0  -3   17.62    0.54 
  -2   0  -3   18.30    0.54 
  -2   0  -3   17.74    0.54 
  -2   0  -3   19.92    0.55 
   2   0   3   19.11    0.54 
   2   0   3   20.93    0.56 
   2   0   3   18.70    0.54 
   2   0   3   19.11    0.58 
   2   0   3   19.36    0.55 
  -3   0  -3   41.26    1.15 
  -3   0  -3   40.53    1.12 
  -3   0  -3   44.94    1.13 
   3   0   3   39.76    1.11 
   3   0   3   43.08    1.11 
   3   0   3   42.47    1.14 
   3   0   3   40.60    1.23 
  -4   0  -3   12.30    0.44 
  -4   0  -3   12.93    0.43 
  -4   0  -3   13.57    0.43 
  -4   0  -3   11.34    0.42 
   4   0   3   12.84    0.42 
   4   0   3   13.02    0.41 
  -5   0  -3    0.15    0.07 
  -5   0  -3    0.10    0.06 
  -5   0  -3   -0.01    0.05 
   5   0   3    0.11    0.05 
   5   0   3    0.07    0.06 
  -6   0  -3   78.92    2.08 
  -6   0  -3   75.96    2.13 
  -6   0  -3   75.26    2.07 
   6   0   3   77.46    2.05 
  -7   0  -3   14.05    0.55 
  -7   0  -3   13.81    0.56 
  -7   0  -3   15.03    0.56 
   7   0   3   13.94    0.52 
  -8   0  -3    6.46    0.37 
  -8   0  -3    6.13    0.36 
  -8   0  -3    6.48    0.35 
   8   0   3    5.98    0.40 
   8   0   3    6.80    0.34 
  -9   0  -3   17.49    0.73 
  -9   0  -3   19.09    0.74 
   9   0   3   20.11    0.84 
   9   0   3   18.65    0.68 
   8  -1  -3    8.23    0.43 
  -8   1   3    8.09    0.45 
  -8   1   3    7.28    0.43 
   7  -1  -3    0.16    0.08 
  -7   1   3    0.11    0.09 
  -7   1   3    0.01    0.09 
   6  -1  -3    2.87    0.22 
   6  -1  -3    3.02    0.22 
  -6   1   3    3.10    0.25 
  -6   1   3    3.10    0.25 
   5  -1  -3    1.51    0.15 
   5  -1  -3    1.39    0.15 
  -5   1   3    1.20    0.16 
  -5   1   3    1.55    0.18 
   4  -1  -3   74.74    2.04 
   4  -1  -3   75.69    2.05 
  -4   1   3   78.47    2.10 
  -4   1   3   79.84    2.05 
   3  -1  -3    5.07    0.23 
   3  -1  -3    5.03    0.24 
   3  -1  -3    5.25    0.24 
  -3   1   3    5.19    0.23 
  -3   1   3    4.99    0.24 
   2  -1  -3    3.82    0.19 
   2  -1  -3    4.08    0.19 
   2  -1  -3    4.17    0.19 
   2  -1  -3    3.95    0.20 
  -2   1   3    4.40    0.19 
  -2   1   3    4.02    0.18 
  -2   1   3    3.97    0.19 
   1  -1  -3    0.39    0.06 
   1  -1  -3    0.57    0.07 
   1  -1  -3    0.53    0.08 
   1  -1  -3    0.58    0.07 
   1  -1  -3    0.48    0.07 
  -1   1   3    0.66    0.08 
  -1   1   3    0.57    0.07 
  -1   1   3    0.54    0.07 
   0  -1  -3   41.47    1.08 
   0  -1  -3   41.97    1.11 
   0  -1  -3   42.46    1.09 
   0  -1  -3   41.78    1.11 
   0  -1  -3   42.46    1.09 
   0   1   3   40.57    1.11 
   0   1   3   42.14    1.11 
   0   1   3   41.08    1.08 
   0   1   3   42.04    1.08 
   0   1   3   42.59    1.08 
  -1  -1  -3   52.62    1.37 
  -1  -1  -3   53.88    1.34 
  -1  -1  -3   53.51    1.37 
  -1  -1  -3   54.21    1.34 
  -1  -1  -3   51.85    1.34 
  -1  -1  -3   50.05    1.34 
   1   1   3   52.55    1.33 
   1   1   3   52.32    1.49 
   1   1   3   52.38    1.37 
   1   1   3   51.15    1.33 
   1   1   3   53.08    1.33 
   1   1   3   54.77    1.33 
   1   1   3   52.08    1.37 
  -2  -1  -3   82.11    2.08 
  -2  -1  -3   86.61    2.09 
  -2  -1  -3   79.64    2.08 
  -2  -1  -3   85.39    2.14 
  -2  -1  -3   85.15    2.14 
  -2  -1  -3   77.95    2.08 
   2   1   3   82.98    2.08 
   2   1   3   83.80    2.07 
   2   1   3   82.69    2.08 
   2   1   3   86.39    2.13 
   2   1   3   83.53    2.13 
   2   1   3   79.65    2.33 
  -3  -1  -3   21.23    0.59 
  -3  -1  -3   21.40    0.61 
  -3  -1  -3   19.93    0.58 
  -3  -1  -3   21.57    0.59 
  -3  -1  -3   19.68    0.59 
   3   1   3   21.51    0.58 
   3   1   3   21.80    0.57 
   3   1   3   21.35    0.68 
   3   1   3   20.08    0.59 
   3   1   3   20.79    0.59 
  -4  -1  -3   12.83    0.41 
  -4  -1  -3   12.15    0.42 
  -4  -1  -3   13.42    0.41 
  -4  -1  -3   12.30    0.41 
   4   1   3   12.83    0.38 
   4   1   3   12.42    0.39 
   4   1   3   12.93    0.40 
   4   1   3   12.12    0.47 
  -5  -1  -3    7.93    0.31 
  -5  -1  -3    7.80    0.32 
  -5  -1  -3    8.75    0.32 
  -5  -1  -3    8.01    0.33 
   5   1   3    7.79    0.37 
   5   1   3    7.85    0.30 
   5   1   3    8.22    0.28 
  -6  -1  -3    4.99    0.26 
  -6  -1  -3    4.57    0.26 
  -6  -1  -3    5.18    0.26 
   6   1   3    5.32    0.22 
   6   1   3    5.14    0.24 
   6   1   3    4.80    0.30 
  -7  -1  -3    1.18    0.15 
  -7  -1  -3    1.37    0.17 
  -7  -1  -3    1.39    0.17 
   7   1   3    1.10    0.18 
   7   1   3    1.59    0.14 
  -8  -1  -3    1.63    0.16 
  -8  -1  -3    1.75    0.18 
  -8  -1  -3    1.42    0.19 
   8   1   3    1.66    0.15 
   8   1   3    1.36    0.22 
  -9  -1  -3    1.00    0.18 
  -9  -1  -3    0.79    0.14 
  -9  -1  -3    0.95    0.17 
   9   1   3    0.73    0.18 
   8  -2  -3    1.50    0.23 
  -8   2   3    1.75    0.26 
  -8   2   3    1.70    0.24 
   7  -2  -3    0.16    0.11 
  -7   2   3    0.23    0.11 
  -7   2   3    0.24    0.12 
   6  -2  -3   26.56    0.90 
   6  -2  -3   28.69    0.91 
  -6   2   3   26.85    0.93 
  -6   2   3   28.19    0.91 
   5  -2  -3    8.52    0.38 
   5  -2  -3    8.91    0.38 
  -5   2   3    7.99    0.39 
  -5   2   3    8.18    0.37 
   4  -2  -3   12.87    0.46 
   4  -2  -3   12.41    0.47 
  -4   2   3   12.89    0.46 
  -4   2   3   12.10    0.47 
   3  -2  -3   29.25    0.84 
   3  -2  -3   28.13    0.84 
  -3   2   3   29.89    0.87 
  -3   2   3   27.75    0.83 
   2  -2  -3  160.67    4.06 
   2  -2  -3  158.92    4.07 
   2  -2  -3  158.49    4.17 
   2  -2  -3  162.11    4.17 
  -2   2   3  159.79    4.06 
  -2   2   3  167.37    4.17 
  -2   2   3  166.20    4.17 
   1  -2  -3    7.32    0.28 
   1  -2  -3    7.85    0.27 
   1  -2  -3    7.57    0.27 
   1  -2  -3    7.37    0.27 
   1  -2  -3    7.78    0.26 
  -1   2   3    7.64    0.27 
  -1   2   3    7.76    0.27 
  -1   2   3    7.97    0.26 
   0  -2  -3  113.62    3.01 
   0  -2  -3  120.51    3.01 
   0  -2  -3  119.13    2.94 
   0  -2  -3  121.12    2.94 
   0  -2  -3  113.54    2.94 
   0   2   3  118.75    2.93 
   0   2   3  119.08    2.93 
   0   2   3  121.06    3.01 
   0   2   3  121.85    3.00 
   0   2   3  111.17    2.93 
  -1  -2  -3  181.12    4.48 
  -1  -2  -3  187.46    4.59 
  -1  -2  -3  180.45    4.42 
  -1  -2  -3  184.20    4.60 
  -1  -2  -3  180.31    4.43 
  -1  -2  -3  181.27    4.48 
   1   2   3  186.04    4.43 
   1   2   3  180.75    4.43 
   1   2   3  152.53    4.53 
   1   2   3  180.93    4.54 
   1   2   3  181.19    4.96 
  -2  -2  -3   31.28    0.80 
  -2  -2  -3   31.40    0.82 
  -2  -2  -3   31.15    0.82 
  -2  -2  -3   30.97    0.80 
  -2  -2  -3   31.33    0.79 
  -2  -2  -3   31.59    0.79 
   2   2   3   30.03    0.94 
   2   2   3   31.17    0.77 
  -3  -2  -3   25.77    0.69 
  -3  -2  -3   25.98    0.67 
  -3  -2  -3   25.05    0.67 
  -3  -2  -3   26.19    0.67 
  -3  -2  -3   23.93    0.67 
   3   2   3   24.38    0.79 
   3   2   3   25.14    0.66 
   3   2   3   25.26    0.65 
   3   2   3   24.09    0.64 
  -4  -2  -3   15.59    0.44 
  -4  -2  -3   14.14    0.44 
  -4  -2  -3   15.10    0.46 
  -4  -2  -3   14.75    0.44 
  -4  -2  -3   15.43    0.45 
   4   2   3   15.20    0.39 
   4   2   3   14.63    0.42 
   4   2   3   14.65    0.42 
   4   2   3   15.08    0.42 
   4   2   3   14.53    0.42 
   4   2   3   13.22    0.53 
  -5  -2  -3    1.62    0.12 
  -5  -2  -3    1.51    0.12 
  -5  -2  -3    1.68    0.11 
  -5  -2  -3    1.48    0.12 
   5   2   3    1.47    0.09 
   5   2   3    1.47    0.17 
   5   2   3    1.49    0.08 
   5   2   3    1.57    0.11 
  -6  -2  -3   78.81    2.14 
  -6  -2  -3   79.29    2.09 
  -6  -2  -3   79.30    2.09 
   6   2   3   81.67    2.05 
   6   2   3   76.79    2.36 
  -7  -2  -3    2.03    0.17 
  -7  -2  -3    2.36    0.17 
  -7  -2  -3    1.95    0.18 
   7   2   3    1.76    0.21 
   7   2   3    1.56    0.14 
  -8  -2  -3   15.86    0.61 
  -8  -2  -3   16.52    0.60 
  -8  -2  -3   15.99    0.60 
   8   2   3   17.55    0.73 
   8   2   3   15.91    0.54 
  -9  -2  -3    8.48    0.42 
  -9  -2  -3    8.38    0.41 
  -9  -2  -3    8.16    0.42 
   9   2   3    7.87    0.48 
 -10  -2  -3    2.02    0.18 
 -10  -2  -3    1.66    0.23 
  10   2   3    1.54    0.27 
   8  -3  -3    0.14    0.09 
   7  -3  -3    0.08    0.09 
  -7   3   3    0.02    0.10 
   6  -3  -3    0.05    0.10 
   6  -3  -3   -0.05    0.07 
  -6   3   3   -0.04    0.07 
  -6   3   3    0.02    0.09 
   5  -3  -3    0.38    0.12 
   5  -3  -3    0.32    0.10 
  -5   3   3    0.31    0.10 
  -5   3   3    0.46    0.10 
   4  -3  -3    0.10    0.06 
   4  -3  -3   -0.01    0.07 
  -4   3   3    0.01    0.06 
  -4   3   3    0.07    0.06 
   3  -3  -3    0.96    0.12 
   3  -3  -3    1.01    0.13 
  -3   3   3    0.92    0.10 
  -3   3   3    0.58    0.10 
   2  -3  -3    7.16    0.29 
   2  -3  -3    7.56    0.30 
   2  -3  -3    7.73    0.28 
   2  -3  -3    7.52    0.30 
  -2   3   3    7.46    0.28 
  -2   3   3    7.34    0.29 
   1  -3  -3    1.07    0.10 
   1  -3  -3    0.98    0.09 
   1  -3  -3    1.03    0.10 
   1  -3  -3    0.87    0.10 
   1  -3  -3    1.00    0.08 
  -1   3   3    0.92    0.09 
  -1   3   3    1.14    0.09 
   0  -3  -3  228.64    5.55 
   0  -3  -3  216.78    5.60 
   0  -3  -3  229.59    5.68 
   0  -3  -3  225.88    5.53 
   0  -3  -3  213.77    5.68 
   0   3   3  228.14    5.53 
   0   3   3  228.49    5.66 
   0   3   3  222.80    5.52 
   0   3   3  223.67    5.66 
  -1  -3  -3   21.07    0.55 
  -1  -3  -3   21.19    0.55 
  -1  -3  -3   20.32    0.55 
  -1  -3  -3   21.86    0.57 
  -1  -3  -3   22.14    0.57 
  -2  -3  -3    6.21    0.17 
  -2  -3  -3    6.18    0.17 
   2   3   3    6.22    0.27 
  -3  -3  -3   41.31    1.03 
  -3  -3  -3   40.93    1.04 
  -3  -3  -3   40.78    1.04 
  -3  -3  -3   41.47    1.07 
  -3  -3  -3   41.88    1.03 
   3   3   3   41.14    1.25 
  -4  -3  -3    8.96    0.29 
  -4  -3  -3    9.31    0.29 
  -4  -3  -3    9.39    0.28 
  -4  -3  -3    9.68    0.29 
  -4  -3  -3    8.92    0.29 
   4   3   3    9.32    0.39 
  -5  -3  -3   19.80    0.55 
  -5  -3  -3   18.18    0.56 
  -5  -3  -3   18.61    0.55 
  -5  -3  -3   18.67    0.55 
   5   3   3   17.86    0.49 
   5   3   3   19.03    0.69 
   5   3   3   18.93    0.50 
  -6  -3  -3   10.10    0.37 
  -6  -3  -3   10.20    0.38 
  -6  -3  -3   10.20    0.37 
   6   3   3   10.13    0.31 
   6   3   3   10.50    0.31 
   6   3   3   10.27    0.32 
   6   3   3   10.26    0.47 
  -7  -3  -3    0.91    0.13 
  -7  -3  -3    0.78    0.12 
  -7  -3  -3    1.16    0.12 
   7   3   3    1.05    0.18 
   7   3   3    0.92    0.10 
  -8  -3  -3    7.57    0.36 
  -8  -3  -3    6.92    0.35 
  -8  -3  -3    7.80    0.35 
   8   3   3    7.58    0.44 
  -9  -3  -3    0.82    0.14 
  -9  -3  -3    0.49    0.13 
  -9  -3  -3    0.66    0.13 
   9   3   3    0.80    0.18 
 -10  -3  -3   15.90    0.67 
  10   3   3   18.00    0.82 
   7  -4  -3    8.13    0.45 
  -7   4   3    8.51    0.46 
   6  -4  -3   10.99    0.50 
   6  -4  -3   10.22    0.49 
  -6   4   3   10.24    0.50 
   5  -4  -3    4.37    0.30 
   5  -4  -3    4.79    0.29 
  -5   4   3    4.36    0.26 
  -5   4   3    4.66    0.30 
   4  -4  -3   17.11    0.63 
   4  -4  -3   19.10    0.65 
  -4   4   3   19.55    0.62 
  -4   4   3   17.20    0.64 
   3  -4  -3   29.16    0.87 
   3  -4  -3   29.20    0.87 
  -3   4   3   27.67    0.84 
  -3   4   3   28.16    0.87 
   2  -4  -3   25.82    0.73 
   2  -4  -3   25.04    0.74 
   2  -4  -3   22.42    0.72 
   2  -4  -3   25.54    0.76 
  -2   4   3   24.24    0.74 
  -2   4   3   23.79    0.71 
   1  -4  -3    5.88    0.23 
   1  -4  -3    5.77    0.24 
   1  -4  -3    5.55    0.24 
   1  -4  -3    6.33    0.25 
  -1   4   3    6.37    0.24 
  -1   4   3    6.09    0.23 
  -1   4   3    6.08    0.22 
   0  -4  -3   50.72    1.35 
   0  -4  -3   52.96    1.39 
   0  -4  -3   52.35    1.35 
   0  -4  -3   47.53    1.34 
   0  -4  -3   55.07    1.39 
   0  -4  -3   53.28    1.35 
   0   4   3   51.96    1.32 
   0   4   3   51.67    1.35 
   0   4   3   51.48    1.35 
   0   4   3   53.39    1.30 
  -1  -4  -3   58.76    1.48 
  -1  -4  -3   59.67    1.48 
  -1  -4  -3   54.95    1.44 
  -1  -4  -3   55.71    1.44 
  -1  -4  -3   57.29    1.44 
   2   4   3   10.84    0.42 
   3   4   3   25.77    0.85 
  -4  -4  -3    1.57    0.07 
  -4  -4  -3    1.54    0.08 
  -4  -4  -3    1.46    0.08 
  -4  -4  -3    1.67    0.07 
  -4  -4  -3    1.61    0.08 
   4   4   3    1.56    0.16 
  -5  -4  -3   11.88    0.37 
  -5  -4  -3   11.45    0.36 
  -5  -4  -3   11.85    0.37 
  -5  -4  -3   12.36    0.36 
  -5  -4  -3   11.84    0.36 
   5   4   3   11.60    0.49 
  -6  -4  -3   13.41    0.44 
  -6  -4  -3   13.23    0.42 
  -6  -4  -3   12.96    0.43 
   6   4   3   12.48    0.55 
  -7  -4  -3    0.13    0.04 
  -7  -4  -3   -0.03    0.04 
  -7  -4  -3    0.00    0.05 
   7   4   3   -0.06    0.06 
  -8  -4  -3    0.77    0.12 
  -8  -4  -3    0.62    0.12 
  -8  -4  -3    0.61    0.10 
   8   4   3    0.88    0.18 
  -9  -4  -3    2.79    0.22 
  -9  -4  -3    2.65    0.21 
   9   4   3    2.84    0.29 
 -10  -4  -3    0.61    0.13 
  10   4   3    0.76    0.18 
   7  -5  -3    0.14    0.09 
  -7   5   3    0.04    0.05 
   6  -5  -3    2.42    0.26 
   6  -5  -3    2.77    0.25 
  -6   5   3    1.86    0.24 
   5  -5  -3   28.40    0.94 
   5  -5  -3   26.22    0.92 
  -5   5   3   27.59    0.94 
   4  -5  -3    2.04    0.21 
   4  -5  -3    2.24    0.19 
  -4   5   3    1.82    0.19 
   3  -5  -3    9.46    0.40 
   3  -5  -3    9.55    0.41 
  -3   5   3   10.13    0.37 
  -3   5   3    9.26    0.39 
   2  -5  -3   15.62    0.53 
   2  -5  -3   13.68    0.49 
   2  -5  -3   13.69    0.50 
  -2   5   3   14.66    0.49 
   1  -5  -3   19.55    0.59 
   1  -5  -3   19.42    0.59 
   1  -5  -3   19.88    0.61 
   1  -5  -3   17.66    0.58 
  -1   5   3   19.28    0.55 
  -1   5   3   19.20    0.58 
   0  -5  -3  112.33    2.89 
   0  -5  -3  116.83    2.90 
   0  -5  -3  115.36    2.96 
   0  -5  -3  114.71    2.89 
   0   5   3  113.18    2.92 
  -1  -5  -3   46.78    1.25 
  -1  -5  -3   50.29    1.25 
  -1  -5  -3   47.62    1.25 
  -1  -5  -3   47.72    1.25 
  -1  -5  -3   50.61    1.28 
  -2  -5  -3   54.82    1.36 
   2   5   3   54.29    1.64 
   3   5   3   43.72    1.36 
  -4  -5  -3    0.78    0.04 
  -4  -5  -3    0.85    0.05 
   4   5   3    0.75    0.13 
  -5  -5  -3   32.51    0.89 
  -5  -5  -3   33.15    0.88 
  -5  -5  -3   35.10    0.88 
  -5  -5  -3   33.59    0.87 
  -5  -5  -3   33.30    0.90 
   5   5   3   31.98    1.11 
  -6  -5  -3    6.50    0.25 
  -6  -5  -3    6.33    0.24 
  -6  -5  -3    6.34    0.25 
   6   5   3    6.19    0.36 
  -7  -5  -3    4.02    0.19 
  -7  -5  -3    3.46    0.20 
  -7  -5  -3    3.89    0.20 
   7   5   3    4.10    0.31 
  -8  -5  -3    6.78    0.31 
  -8  -5  -3    7.02    0.31 
   8   5   3    6.71    0.42 
  -9  -5  -3    0.66    0.11 
  -9  -5  -3    0.48    0.11 
   9   5   3    0.85    0.20 
 -10  -5  -3    4.49    0.28 
  10   5   3    4.95    0.38 
   6  -6  -3    4.50    0.34 
   6  -6  -3    4.83    0.32 
   5  -6  -3    0.17    0.11 
   5  -6  -3    0.06    0.06 
  -5   6   3    0.07    0.06 
   4  -6  -3    8.38    0.41 
   4  -6  -3    8.18    0.41 
  -4   6   3    8.20    0.39 
   3  -6  -3    0.03    0.08 
   3  -6  -3    0.12    0.07 
  -3   6   3    0.15    0.08 
   2  -6  -3    8.17    0.35 
   2  -6  -3    8.21    0.36 
  -2   6   3    8.09    0.33 
   1  -6  -3    9.45    0.36 
   1  -6  -3    9.95    0.37 
   1  -6  -3    9.14    0.36 
  -1   6   3    9.71    0.33 
   0  -6  -3   12.11    0.39 
   0  -6  -3   10.81    0.39 
   0  -6  -3   11.47    0.40 
   0  -6  -3   12.07    0.40 
   0   6   3   12.09    0.34 
  -1  -6  -3    3.31    0.14 
  -1  -6  -3    3.02    0.13 
  -1  -6  -3    3.06    0.15 
  -1  -6  -3    3.03    0.15 
  -1  -6  -3    3.24    0.14 
  -2  -6  -3   11.29    0.31 
  -2  -6  -3   11.23    0.32 
  -2  -6  -3   10.43    0.32 
  -2  -6  -3   10.50    0.31 
  -2  -6  -3   10.80    0.31 
  -3  -6  -3    0.02    0.01 
   3   6   3    0.05    0.07 
   4   6   3   34.10    1.13 
  -5  -6  -3   26.17    0.66 
  -5  -6  -3   24.28    0.66 
   5   6   3   24.29    0.90 
  -6  -6  -3    0.17    0.05 
  -6  -6  -3    0.21    0.05 
   6   6   3    0.08    0.09 
  -7  -6  -3   15.19    0.48 
  -7  -6  -3   15.22    0.49 
   7   6   3   14.83    0.66 
  -8  -6  -3    0.05    0.05 
  -8  -6  -3    0.14    0.05 
   8   6   3    0.10    0.10 
  -9  -6  -3    0.23    0.07 
  -9  -6  -3    0.21    0.07 
   9   6   3    0.11    0.11 
   5  -7  -3    1.51    0.24 
   5  -7  -3    1.57    0.22 
   4  -7  -3   12.65    0.54 
   4  -7  -3   12.43    0.56 
   3  -7  -3   14.07    0.56 
   3  -7  -3   14.08    0.57 
   2  -7  -3   26.71    0.84 
   2  -7  -3   25.56    0.84 
   1  -7  -3    0.23    0.08 
   1  -7  -3    0.09    0.05 
   0  -7  -3   86.72    2.25 
   0  -7  -3   85.89    2.25 
  -1  -7  -3    5.04    0.21 
  -1  -7  -3    4.65    0.21 
  -2  -7  -3   63.89    1.68 
  -2  -7  -3   65.71    1.68 
  -2  -7  -3   67.01    1.68 
  -3  -7  -3    5.26    0.17 
  -3  -7  -3    5.22    0.17 
  -3  -7  -3    5.11    0.17 
  -4  -7  -3    0.76    0.05 
   4   7   3    0.58    0.14 
  -5  -7  -3    1.49    0.08 
  -5  -7  -3    1.63    0.07 
   5   7   3    1.58    0.20 
  -6  -7  -3    0.82    0.07 
  -6  -7  -3    0.70    0.07 
   6   7   3    0.83    0.17 
  -7  -7  -3    0.42    0.07 
  -7  -7  -3    0.39    0.06 
   7   7   3    0.27    0.12 
  -8  -7  -3    0.30    0.07 
  -8  -7  -3    0.43    0.08 
   8   7   3    0.49    0.14 
  -9  -7  -3    1.30    0.14 
  -9  -7  -3    1.26    0.11 
   9   7   3    1.58    0.26 
   4  -8  -3    4.33    0.29 
   4  -8  -3    4.49    0.33 
   3  -8  -3    0.15    0.06 
   3  -8  -3    0.03    0.08 
   2  -8  -3    2.94    0.20 
   2  -8  -3    2.50    0.23 
   1  -8  -3   11.55    0.47 
   1  -8  -3   12.63    0.47 
   0  -8  -3    9.20    0.37 
   0  -8  -3    9.40    0.37 
  -1  -8  -3   10.32    0.37 
  -1  -8  -3   10.29    0.38 
  -2  -8  -3   37.40    1.03 
  -2  -8  -3   38.46    1.03 
  -3  -8  -3    0.18    0.04 
  -3  -8  -3    0.10    0.03 
  -4  -8  -3   69.79    1.75 
   4   8   3   67.56    2.13 
  -5  -8  -3    9.77    0.30 
   5   8   3   10.09    0.51 
  -6  -8  -3   10.41    0.33 
   6   8   3   10.89    0.54 
  -7  -8  -3    8.83    0.32 
   7   8   3    9.37    0.50 
  -8  -8  -3    1.39    0.12 
   8   8   3    1.39    0.23 
   3  -9  -3    3.49    0.29 
   3  -9  -3    3.46    0.24 
   2  -9  -3    0.30    0.11 
   2  -9  -3    0.43    0.09 
   1  -9  -3    0.44    0.10 
   1  -9  -3    0.36    0.11 
   0  -9  -3   10.08    0.42 
   0  -9  -3   10.49    0.41 
  -1  -9  -3    0.00    0.05 
  -1  -9  -3    0.08    0.03 
  -2  -9  -3    7.38    0.28 
  -2  -9  -3    7.04    0.29 
  -3  -9  -3    0.49    0.08 
  -4  -9  -3    4.65    0.19 
  -5  -9  -3    0.07    0.03 
   5   9   3    0.07    0.10 
  -6  -9  -3   10.55    0.35 
   6   9   3   10.94    0.56 
  -7  -9  -3    0.14    0.05 
   7   9   3    0.06    0.10 
  -8  -9  -3    0.96    0.10 
   8   9   3    0.87    0.20 
   2 -10  -3    4.54    0.32 
   1 -10  -3    9.60    0.45 
   1 -10  -3    9.43    0.42 
   0 -10  -3    1.43    0.13 
   0 -10  -3    1.44    0.16 
  -1 -10  -3   20.27    0.67 
  -1 -10  -3   20.63    0.69 
  -2 -10  -3   17.14    0.57 
  -3 -10  -3    0.79    0.11 
  -4 -10  -3   27.92    0.80 
  -5 -10  -3    1.84    0.12 
  -6 -10  -3    4.47    0.20 
   6  10   3    4.77    0.37 
  -7 -10  -3    7.68    0.29 
   7  10   3    8.18    0.49 
  -1 -11  -3   10.71    0.45 
  -2 -11  -3    1.49    0.15 
  -4 -11  -3    3.45    0.19 
  -5 -11  -3    4.85    0.22 
  -4  -9   4    0.21    0.05 
  -4  -9   4    0.23    0.10 
  -3  -9   4    2.41    0.19 
  -3  -9   4    2.15    0.23 
  -2  -9   4    2.01    0.22 
  -2  -9   4    2.02    0.18 
  -1  -9   4    0.03    0.09 
  -1  -9   4    0.31    0.07 
   0  -9   4    0.42    0.14 
   0  -9   4    0.53    0.11 
   1  -9   4    5.46    0.33 
   1  -9   4    5.17    0.35 
  -6  -8   4    8.71    0.41 
  -6  -8   4    7.89    0.42 
  -5  -8   4    5.01    0.32 
  -5  -8   4    5.54    0.30 
  -4  -8   4    3.33    0.22 
  -4  -8   4    3.03    0.23 
  -4  -8   4    2.91    0.25 
  -3  -8   4   12.57    0.51 
  -3  -8   4   11.87    0.52 
  -3  -8   4   12.59    0.53 
  -2  -8   4    6.26    0.35 
  -2  -8   4    6.42    0.34 
  -2  -8   4    6.57    0.36 
  -1  -8   4   20.62    0.74 
  -1  -8   4   19.72    0.74 
  -1  -8   4   21.71    0.77 
   0  -8   4   12.23    0.52 
   0  -8   4   12.20    0.54 
   0  -8   4   11.67    0.52 
  -1   8  -4    7.15    0.35 
   1  -8   4    6.60    0.38 
   1  -8   4    5.90    0.37 
   1  -8   4    6.74    0.37 
  -2   8  -4    0.56    0.11 
   2  -8   4    0.59    0.13 
   2  -8   4    0.58    0.15 
  -3   8  -4    0.84    0.16 
   3  -8   4    0.48    0.12 
   3  -8   4    0.48    0.14 
  -7  -7   4    1.01    0.15 
  -7  -7   4    0.46    0.13 
  -6  -7   4    0.89    0.14 
  -6  -7   4    0.93    0.16 
  -6  -7   4    0.92    0.15 
  -5  -7   4   -0.01    0.08 
  -5  -7   4    0.16    0.05 
  -5  -7   4   -0.10    0.04 
  -4  -7   4    0.25    0.10 
  -4  -7   4    0.38    0.10 
  -4  -7   4    0.30    0.10 
  -3  -7   4    0.51    0.12 
  -3  -7   4    0.47    0.10 
  -3  -7   4    0.91    0.16 
   2   7  -4   13.98    0.48 
  -2  -7   4   13.50    0.53 
  -2  -7   4   12.88    0.52 
  -2  -7   4   13.18    0.54 
   1   7  -4   10.89    0.41 
  -1  -7   4   10.74    0.47 
  -1  -7   4   10.09    0.44 
  -1  -7   4   10.47    0.46 
   0   7  -4    5.98    0.29 
   0  -7   4    5.57    0.32 
   0  -7   4    5.60    0.32 
   0  -7   4    5.31    0.31 
  -1   7  -4   20.89    0.71 
   1  -7   4   21.35    0.76 
   1  -7   4   20.47    0.77 
   1  -7   4   21.59    0.76 
  -2   7  -4   15.33    0.56 
   2  -7   4   13.32    0.59 
   2  -7   4   13.07    0.56 
   2  -7   4   12.92    0.56 
  -3   7  -4   13.23    0.55 
   3  -7   4   12.60    0.58 
   3  -7   4   12.59    0.57 
   3  -7   4   13.09    0.57 
  -4   7  -4   17.97    0.70 
   4  -7   4   17.87    0.72 
   4  -7   4   17.00    0.72 
  -7  -6   4    1.36    0.19 
  -7  -6   4    1.86    0.17 
  -6  -6   4    3.41    0.26 
  -6  -6   4    3.30    0.23 
  -6  -6   4    3.71    0.26 
  -5  -6   4    1.56    0.19 
  -5  -6   4    1.37    0.15 
  -5  -6   4    1.37    0.16 
   4   6  -4    9.36    0.37 
  -4  -6   4   10.10    0.43 
  -4  -6   4    9.34    0.42 
  -4  -6   4    9.81    0.42 
   3   6  -4   11.63    0.42 
  -3  -6   4   11.52    0.46 
  -3  -6   4   10.66    0.46 
  -3  -6   4   11.30    0.46 
   2   6  -4    0.76    0.11 
   2   6  -4    0.85    0.12 
  -2  -6   4    0.90    0.13 
  -2  -6   4    0.86    0.14 
  -2  -6   4    0.69    0.13 
   1   6  -4   16.58    0.56 
   1   6  -4   16.42    0.57 
  -1  -6   4   16.25    0.59 
  -1  -6   4   17.10    0.61 
  -1  -6   4   16.68    0.59 
   0   6  -4    6.19    0.29 
   0   6  -4    5.45    0.29 
   0  -6   4    5.12    0.30 
   0  -6   4    5.72    0.30 
   0  -6   4    5.69    0.31 
  -1   6  -4    0.07    0.07 
  -1   6  -4   -0.05    0.07 
   1  -6   4   -0.07    0.04 
   1  -6   4    0.04    0.05 
   1  -6   4   -0.02    0.08 
  -2   6  -4   -0.06    0.07 
  -2   6  -4    0.13    0.07 
   2  -6   4    0.00    0.05 
   2  -6   4   -0.03    0.08 
   2  -6   4    0.07    0.07 
  -3   6  -4    0.52    0.12 
  -3   6  -4    1.01    0.16 
   3  -6   4    0.39    0.12 
   3  -6   4    0.65    0.14 
   3  -6   4    0.56    0.15 
  -4   6  -4    8.53    0.42 
  -4   6  -4    8.53    0.44 
   4  -6   4    6.89    0.40 
   4  -6   4    8.77    0.44 
  -5   6  -4    0.29    0.12 
  -5   6  -4    0.11    0.08 
   5  -6   4    0.18    0.12 
   5  -6   4    0.22    0.10 
  -6   6  -4    1.56    0.17 
  -6   6  -4    1.70    0.24 
   6  -6   4    1.54    0.24 
   8   5  -4    2.71    0.24 
  -8  -5   4    2.82    0.26 
   7   5  -4    4.50    0.29 
  -7  -5   4    4.26    0.29 
  -7  -5   4    3.85    0.29 
   6   5  -4    4.19    0.26 
  -6  -5   4    3.43    0.24 
  -6  -5   4    3.65    0.27 
  -6  -5   4    3.32    0.25 
   5   5  -4    8.79    0.39 
   5   5  -4    9.13    0.36 
  -5  -5   4    8.42    0.40 
  -5  -5   4    8.74    0.39 
  -5  -5   4    8.52    0.39 
   4   5  -4    0.06    0.05 
   4   5  -4    0.14    0.06 
   4   5  -4    0.06    0.05 
  -4  -5   4   -0.04    0.04 
  -4  -5   4    0.05    0.06 
  -4  -5   4   -0.02    0.06 
   3   5  -4    5.01    0.24 
   3   5  -4    5.15    0.26 
   3   5  -4    5.42    0.25 
  -3  -5   4    5.18    0.27 
  -3  -5   4    5.06    0.28 
  -3  -5   4    5.21    0.27 
   2   5  -4   41.61    1.16 
   2   5  -4   41.31    1.20 
   2   5  -4   41.24    1.19 
  -2  -5   4   41.24    1.22 
  -2  -5   4   41.51    1.19 
  -2  -5   4   41.14    1.19 
   1   5  -4   29.37    0.85 
   1   5  -4   30.19    0.87 
   1   5  -4   29.31    0.89 
  -1  -5   4   28.78    0.89 
  -1  -5   4   29.04    0.91 
  -1  -5   4   28.89    0.89 
   0   5  -4   17.00    0.59 
   0   5  -4   17.64    0.56 
   0   5  -4   16.96    0.57 
   0  -5   4   17.08    0.59 
   0  -5   4   16.83    0.59 
   0  -5   4   17.19    0.61 
  -1   5  -4   84.26    2.26 
  -1   5  -4   85.95    2.25 
  -1   5  -4   87.49    2.32 
   1  -5   4   83.81    2.28 
   1  -5   4   83.94    2.28 
   1  -5   4   84.89    2.34 
  -2   5  -4   10.56    0.42 
  -2   5  -4   11.11    0.44 
  -2   5  -4   10.34    0.44 
   2  -5   4   10.14    0.44 
   2  -5   4    9.95    0.45 
   2  -5   4   10.74    0.44 
  -3   5  -4   13.67    0.53 
  -3   5  -4   13.61    0.56 
  -3   5  -4   14.26    0.55 
   3  -5   4   15.51    0.58 
   3  -5   4   14.68    0.56 
  -4   5  -4   35.87    1.14 
  -4   5  -4   35.10    1.11 
   4  -5   4   36.15    1.13 
   4  -5   4   34.07    1.11 
  -5   5  -4    5.56    0.34 
  -5   5  -4    5.61    0.36 
   5  -5   4    5.25    0.34 
   5  -5   4    5.08    0.34 
  -6   5  -4    0.76    0.16 
  -6   5  -4    0.67    0.17 
   6  -5   4    0.51    0.14 
   8   4  -4    2.55    0.23 
  -8  -4   4    2.57    0.25 
   7   4  -4    0.02    0.05 
   7   4  -4   -0.02    0.04 
  -7  -4   4    0.05    0.05 
  -7  -4   4    0.11    0.09 
   6   4  -4    0.09    0.06 
   6   4  -4    0.16    0.07 
  -6  -4   4    0.03    0.06 
  -6  -4   4    0.05    0.08 
   5   4  -4    0.32    0.08 
   5   4  -4    0.24    0.07 
   5   4  -4    0.24    0.08 
  -5  -4   4    0.11    0.08 
  -5  -4   4    0.15    0.07 
   4   4  -4    0.53    0.10 
   4   4  -4    0.59    0.10 
   4   4  -4    0.49    0.09 
  -4  -4   4    0.46    0.10 
  -4  -4   4    0.80    0.13 
  -4  -4   4    0.41    0.10 
   3   4  -4    0.26    0.06 
   3   4  -4    0.27    0.08 
   3   4  -4    0.29    0.08 
   3   4  -4    0.52    0.08 
  -3  -4   4    0.24    0.08 
  -3  -4   4    0.19    0.07 
  -3  -4   4    0.35    0.08 
   2   4  -4    0.75    0.10 
   2   4  -4    0.65    0.10 
   2   4  -4    0.62    0.10 
   2   4  -4    0.60    0.07 
  -2  -4   4    0.73    0.12 
  -2  -4   4    0.49    0.09 
  -2  -4   4    0.51    0.10 
   1   4  -4    0.34    0.07 
   1   4  -4    0.27    0.08 
   1   4  -4    0.32    0.08 
  -1  -4   4    0.37    0.09 
  -1  -4   4    0.27    0.07 
  -1  -4   4    0.36    0.09 
   0   4  -4    3.18    0.20 
   0   4  -4    3.32    0.19 
   0   4  -4    3.28    0.18 
   0  -4   4    3.21    0.20 
   0  -4   4    3.27    0.20 
   0  -4   4    3.45    0.21 
  -1   4  -4    5.87    0.29 
  -1   4  -4    6.53    0.28 
  -1   4  -4    6.36    0.29 
   1  -4   4    6.03    0.29 
   1  -4   4    5.91    0.30 
   1  -4   4    6.10    0.29 
   1  -4   4    6.56    0.21 
  -2   4  -4    2.57    0.18 
  -2   4  -4    2.56    0.20 
  -2   4  -4    2.89    0.20 
   2  -4   4    2.68    0.21 
   2  -4   4    2.55    0.19 
   2  -4   4    2.67    0.19 
  -3   4  -4   74.58    2.03 
  -3   4  -4   75.47    2.02 
  -3   4  -4   72.21    2.08 
   3  -4   4   74.74    2.04 
   3  -4   4   75.72    2.03 
  -4   4  -4   20.84    0.72 
  -4   4  -4   20.54    0.75 
  -4   4  -4   22.23    0.74 
   4  -4   4   21.11    0.73 
   4  -4   4   21.74    0.74 
  -5   4  -4    8.91    0.42 
  -5   4  -4    8.08    0.42 
  -5   4  -4    8.09    0.41 
   5  -4   4    8.16    0.41 
   5  -4   4    8.64    0.42 
  -6   4  -4   14.31    0.60 
  -6   4  -4   14.31    0.63 
  -6   4  -4   15.02    0.63 
   6  -4   4   14.88    0.61 
  -7   4  -4    8.26    0.46 
  -7   4  -4    8.95    0.48 
   7  -4   4    8.54    0.45 
   8   3  -4    0.72    0.16 
  -8  -3   4    0.67    0.15 
   7   3  -4   13.69    0.61 
   7   3  -4   13.83    0.53 
  -7  -3   4   12.96    0.57 
  -7  -3   4   13.25    0.56 
   6   3  -4    2.54    0.19 
  -6  -3   4    2.32    0.21 
  -6  -3   4    2.56    0.22 
   5   3  -4   22.07    0.71 
   5   3  -4   21.55    0.73 
  -5  -3   4   22.94    0.74 
  -5  -3   4   22.19    0.75 
   4   3  -4    0.23    0.08 
   4   3  -4    0.28    0.09 
   4   3  -4    0.16    0.07 
   4   3  -4    0.37    0.07 
  -4  -3   4    0.13    0.07 
  -4  -3   4    0.17    0.08 
   3   3  -4    4.66    0.23 
   3   3  -4    4.09    0.22 
   3   3  -4    4.50    0.21 
   3   3  -4    4.65    0.22 
  -3  -3   4    4.40    0.24 
  -3  -3   4    4.33    0.23 
  -3  -3   4    4.37    0.23 
   2   3  -4   14.81    0.48 
   2   3  -4   14.45    0.49 
   2   3  -4   14.82    0.50 
   2   3  -4   15.76    0.49 
  -2  -3   4   14.97    0.50 
  -2  -3   4   14.65    0.51 
  -2  -3   4   15.28    0.50 
  -2  -3   4   15.34    0.51 
   1   3  -4   44.35    1.25 
   1   3  -4   45.48    1.22 
   1   3  -4   42.79    1.24 
   1   3  -4   44.45    1.22 
  -1  -3   4   43.76    1.23 
  -1  -3   4   45.12    1.23 
  -1  -3   4   45.11    1.26 
  -1  -3   4   45.69    1.26 
   0   3  -4   44.06    1.22 
   0   3  -4   45.30    1.26 
   0   3  -4   43.17    1.23 
   0  -3   4   44.43    1.23 
   0  -3   4   45.44    1.27 
   0  -3   4   46.63    1.27 
   0  -3   4   45.09    1.24 
  -1   3  -4   55.74    1.55 
  -1   3  -4   56.68    1.52 
  -1   3  -4   55.89    1.51 
   1  -3   4   55.58    1.56 
   1  -3   4   56.48    1.52 
   1  -3   4   56.49    1.52 
  -2   3  -4    0.07    0.06 
  -2   3  -4    0.17    0.08 
  -2   3  -4    0.04    0.06 
   2  -3   4    0.03    0.05 
   2  -3   4    0.00    0.06 
   2  -3   4    0.06    0.06 
  -3   3  -4   17.25    0.60 
  -3   3  -4   16.55    0.58 
  -3   3  -4   17.51    0.58 
   3  -3   4   17.09    0.58 
   3  -3   4   16.25    0.57 
  -4   3  -4   26.31    0.83 
  -4   3  -4   25.27    0.83 
  -4   3  -4   25.56    0.85 
   4  -3   4   26.86    0.83 
   4  -3   4   25.48    0.83 
  -5   3  -4   12.32    0.51 
  -5   3  -4   11.56    0.49 
  -5   3  -4   12.21    0.52 
   5  -3   4   12.42    0.49 
   5  -3   4   12.30    0.50 
  -6   3  -4    0.91    0.17 
  -6   3  -4    1.11    0.18 
  -6   3  -4    1.05    0.17 
   6  -3   4    0.96    0.14 
   6  -3   4    1.09    0.17 
  -7   3  -4    0.02    0.08 
  -7   3  -4    0.06    0.08 
  -7   3  -4    0.01    0.10 
   7  -3   4    0.05    0.09 
  -8   3  -4    8.04    0.45 
  -8   3  -4    7.82    0.45 
   8  -3   4    7.82    0.44 
   8   2  -4   14.68    0.58 
  -8  -2   4   14.16    0.62 
   7   2  -4    4.75    0.29 
  -7  -2   4    4.64    0.32 
  -7  -2   4    4.75    0.32 
   6   2  -4    6.64    0.33 
  -6  -2   4    7.31    0.36 
  -6  -2   4    7.09    0.37 
   5   2  -4   23.65    0.77 
   5   2  -4   25.08    0.75 
   5   2  -4   23.99    0.78 
  -5  -2   4   23.14    0.78 
  -5  -2   4   25.24    0.81 
   4   2  -4    0.12    0.07 
   4   2  -4    0.20    0.06 
   4   2  -4    0.20    0.08 
  -4  -2   4    0.22    0.08 
  -4  -2   4    0.24    0.08 
   3   2  -4   16.95    0.58 
   3   2  -4   19.27    0.58 
   3   2  -4   18.49    0.60 
  -3  -2   4   18.97    0.61 
  -3  -2   4   18.01    0.58 
   2   2  -4   26.07    0.79 
   2   2  -4   25.15    0.76 
   2   2  -4   26.17    0.76 
  -2  -2   4   26.56    0.77 
  -2  -2   4   27.61    0.80 
  -2  -2   4   27.68    0.80 
  -2  -2   4   24.07    0.76 
   1   2  -4   10.79    0.31 
   1   2  -4    9.52    0.36 
   1   2  -4    9.51    0.35 
   1   2  -4    9.62    0.34 
   1   2  -4    9.43    0.35 
  -1  -2   4   10.12    0.36 
  -1  -2   4    9.43    0.36 
  -1  -2   4    9.09    0.34 
  -1  -2   4    9.51    0.35 
   0   2  -4    6.30    0.27 
   0   2  -4    6.15    0.26 
   0   2  -4    6.59    0.26 
   0   2  -4    6.14    0.25 
   0  -2   4    6.56    0.26 
   0  -2   4    6.11    0.25 
   0  -2   4    6.18    0.26 
  -1   2  -4   98.81    2.57 
  -1   2  -4   99.63    2.57 
  -1   2  -4   99.39    2.63 
   1  -2   4  104.36    2.64 
   1  -2   4  103.00    2.64 
   1  -2   4   99.00    2.57 
   1  -2   4   96.30    2.57 
  -2   2  -4   28.31    0.83 
  -2   2  -4   28.78    0.86 
  -2   2  -4   27.93    0.83 
   2  -2   4   29.70    0.84 
   2  -2   4   28.60    0.83 
   2  -2   4   28.34    0.85 
   2  -2   4   28.11    0.83 
  -3   2  -4   89.15    2.45 
  -3   2  -4   93.04    2.46 
  -3   2  -4   95.72    2.53 
   3  -2   4   96.28    2.52 
   3  -2   4   96.80    2.46 
   3  -2   4   93.76    2.46 
  -4   2  -4   32.41    0.98 
  -4   2  -4   32.57    0.98 
  -4   2  -4   32.41    1.00 
   4  -2   4   34.02    0.97 
   4  -2   4   32.22    0.97 
  -5   2  -4   58.52    1.68 
  -5   2  -4   59.41    1.64 
  -5   2  -4   57.03    1.64 
   5  -2   4   57.59    1.63 
   5  -2   4   59.17    1.62 
  -6   2  -4   33.81    1.06 
  -6   2  -4   34.23    1.07 
  -6   2  -4   34.25    1.10 
   6  -2   4   33.01    1.05 
   6  -2   4   33.61    1.03 
  -7   2  -4    0.08    0.07 
  -7   2  -4    0.22    0.12 
  -7   2  -4    0.03    0.09 
   7  -2   4    0.14    0.09 
  -8   2  -4    4.92    0.35 
  -8   2  -4    4.30    0.33 
  -8   2  -4    4.62    0.31 
   8  -2   4    4.50    0.31 
   8   1  -4    0.76    0.15 
  -8  -1   4    0.69    0.17 
  -8  -1   4    0.68    0.16 
   7   1  -4    1.63    0.18 
  -7  -1   4    1.65    0.23 
  -7  -1   4    1.63    0.21 
   6   1  -4    0.28    0.10 
  -6  -1   4    0.24    0.10 
  -6  -1   4    0.18    0.10 
   5   1  -4   13.26    0.49 
   5   1  -4   12.69    0.47 
  -5  -1   4   12.67    0.51 
  -5  -1   4   13.19    0.50 
   4   1  -4    6.76    0.30 
   4   1  -4    7.40    0.32 
   4   1  -4    7.25    0.32 
  -4  -1   4    6.67    0.31 
   3   1  -4    2.36    0.15 
   3   1  -4    2.26    0.16 
   3   1  -4    2.18    0.17 
  -3  -1   4    2.18    0.15 
  -3  -1   4    2.26    0.17 
   2   1  -4    2.58    0.16 
   2   1  -4    2.37    0.15 
   2   1  -4    2.08    0.15 
   2   1  -4    2.26    0.16 
  -2  -1   4    2.31    0.16 
  -2  -1   4    2.07    0.14 
  -2  -1   4    2.20    0.15 
   1   1  -4    3.40    0.19 
   1   1  -4    3.51    0.18 
   1   1  -4    3.49    0.18 
  -1  -1   4    3.40    0.18 
  -1  -1   4    3.61    0.19 
  -1  -1   4    3.70    0.18 
  -1  -1   4    3.66    0.18 
   0   1  -4    4.33    0.20 
   0   1  -4    4.19    0.20 
   0   1  -4    4.45    0.15 
   0   1  -4    4.56    0.20 
   0  -1   4    4.69    0.20 
   0  -1   4    4.42    0.20 
   0  -1   4    4.23    0.20 
  -1   1  -4   67.67    1.73 
  -1   1  -4   68.75    1.77 
  -1   1  -4   66.47    1.77 
  -1   1  -4   63.60    1.72 
   1  -1   4   67.36    1.77 
   1  -1   4   66.54    1.77 
   1  -1   4   65.45    1.82 
   1  -1   4   64.94    1.72 
   1  -1   4   64.68    1.72 
  -2   1  -4    1.81    0.14 
  -2   1  -4    1.79    0.14 
  -2   1  -4    1.74    0.14 
   2  -1   4    1.66    0.11 
   2  -1   4    1.93    0.13 
   2  -1   4    1.80    0.14 
   2  -1   4    1.86    0.12 
  -3   1  -4    7.05    0.29 
  -3   1  -4    6.91    0.30 
  -3   1  -4    6.97    0.29 
   3  -1   4    6.92    0.29 
   3  -1   4    6.65    0.29 
   3  -1   4    7.00    0.28 
  -4   1  -4    3.41    0.21 
  -4   1  -4    3.43    0.21 
  -4   1  -4    3.36    0.20 
   4  -1   4    3.45    0.20 
   4  -1   4    3.49    0.19 
  -5   1  -4   21.65    0.74 
  -5   1  -4   21.81    0.72 
  -5   1  -4   21.97    0.72 
   5  -1   4   21.77    0.70 
   5  -1   4   22.79    0.69 
  -6   1  -4    0.35    0.10 
  -6   1  -4    0.40    0.12 
  -6   1  -4    0.25    0.10 
   6  -1   4    0.40    0.10 
   6  -1   4    0.51    0.10 
  -7   1  -4   30.25    0.99 
  -7   1  -4   29.96    0.98 
  -7   1  -4   30.00    1.01 
   7  -1   4   30.15    0.95 
   7  -1   4   28.70    1.06 
  -8   1  -4   29.76    1.04 
  -8   1  -4   29.97    1.01 
  -8   1  -4   28.87    1.00 
   8  -1   4   29.31    1.09 
   8  -1   4   28.95    0.96 
  -9   1  -4    0.16    0.11 
   9  -1   4    0.29    0.11 
   9  -1   4    0.18    0.09 
   8   0  -4   17.28    0.68 
  -8   0   4   16.09    0.69 
   7   0  -4   12.57    0.53 
  -7   0   4   12.89    0.57 
  -7   0   4   12.45    0.55 
   6   0  -4   24.62    0.80 
   6   0  -4   24.83    0.82 
  -6   0   4   25.15    0.83 
  -6   0   4   23.07    0.84 
   5   0  -4   39.83    1.17 
   5   0  -4   39.45    1.18 
  -5   0   4   42.50    1.20 
  -5   0   4   40.08    1.23 
   4   0  -4    0.16    0.07 
   4   0  -4    0.05    0.06 
   4   0  -4    0.23    0.09 
  -4   0   4    0.21    0.07 
  -4   0   4    0.19    0.08 
   3   0  -4   49.66    1.40 
   3   0  -4   50.46    1.37 
   3   0  -4   50.49    1.37 
  -3   0   4   49.89    1.36 
   2   0  -4    1.40    0.11 
   2   0  -4    1.14    0.12 
   2   0  -4    1.18    0.12 
   2   0  -4    1.32    0.12 
  -2   0   4    1.41    0.11 
  -2   0   4    1.36    0.12 
  -2   0   4    1.25    0.12 
   1   0  -4   16.17    0.49 
   1   0  -4   16.06    0.50 
   1   0  -4   16.58    0.50 
   1   0  -4   16.30    0.51 
  -1   0   4   15.11    0.49 
  -1   0   4   15.75    0.48 
  -1   0   4   15.67    0.50 
  -1   0   4   16.31    0.51 
   0   0  -4   92.91    2.38 
   0   0  -4   91.39    2.38 
   0   0  -4   92.46    2.38 
   0   0  -4   97.98    2.44 
   0   0   4   97.28    2.44 
   0   0   4   90.33    2.43 
   0   0   4   87.97    2.37 
   0   0   4   98.16    2.38 
  -1   0  -4   80.15    2.02 
  -1   0  -4   75.94    2.14 
  -1   0  -4   76.49    1.98 
  -1   0  -4   78.25    1.97 
  -1   0  -4   77.14    1.97 
  -1   0  -4   77.04    2.02 
   1   0   4   76.59    2.02 
   1   0   4   77.88    1.97 
   1   0   4   77.04    1.97 
   1   0   4   73.57    2.14 
  -2   0  -4    6.18    0.25 
  -2   0  -4    6.77    0.25 
  -2   0  -4    6.47    0.25 
  -2   0  -4    6.84    0.25 
   2   0   4    6.82    0.25 
   2   0   4    6.44    0.25 
   2   0   4    6.61    0.25 
   2   0   4    6.50    0.25 
   2   0   4    6.94    0.24 
  -3   0  -4  239.81    6.00 
  -3   0  -4  232.25    5.98 
  -3   0  -4  233.86    6.13 
  -3   0  -4  230.75    5.99 
   3   0   4  251.24    6.13 
   3   0   4  250.61    5.99 
   3   0   4  228.38    5.96 
   3   0   4  252.40    6.63 
   3   0   4  244.07    6.12 
  -4   0  -4   34.42    1.03 
  -4   0  -4   36.10    1.01 
  -4   0  -4   34.77    1.01 
  -4   0  -4   34.72    1.00 
   4   0   4   36.26    0.98 
   4   0   4   36.10    0.99 
   4   0   4   36.72    1.11 
   4   0   4   35.54    1.02 
  -5   0  -4   31.23    0.92 
  -5   0  -4   30.63    0.91 
  -5   0  -4   31.23    0.94 
   5   0   4   31.44    0.90 
   5   0   4   28.80    1.00 
   5   0   4   30.54    0.88 
  -6   0  -4    4.90    0.28 
  -6   0  -4    5.26    0.28 
  -6   0  -4    4.63    0.27 
   6   0   4    5.18    0.26 
   6   0   4    5.33    0.24 
   6   0   4    5.42    0.31 
  -7   0  -4    2.59    0.21 
  -7   0  -4    2.45    0.22 
  -7   0  -4    2.85    0.21 
   7   0   4    2.65    0.20 
   7   0   4    2.39    0.24 
  -8   0  -4    2.34    0.21 
  -8   0  -4    2.78    0.22 
  -8   0  -4    1.90    0.24 
   8   0   4    2.55    0.25 
   8   0   4    2.29    0.20 
  -9   0  -4    2.82    0.27 
  -9   0  -4    3.02    0.24 
   9   0   4    2.79    0.29 
   9   0   4    2.51    0.21 
   8  -1  -4    2.61    0.25 
  -8   1   4    2.67    0.26 
   7  -1  -4    0.14    0.09 
  -7   1   4    0.30    0.14 
  -7   1   4    0.24    0.12 
   6  -1  -4   11.44    0.47 
   6  -1  -4   11.74    0.49 
  -6   1   4   10.72    0.50 
  -6   1   4   11.26    0.49 
   5  -1  -4    1.40    0.15 
   5  -1  -4    1.22    0.16 
  -5   1   4    1.54    0.19 
  -5   1   4    1.29    0.17 
   4  -1  -4   31.50    0.95 
   4  -1  -4   31.72    0.94 
  -4   1   4   32.32    0.94 
  -4   1   4   30.53    0.97 
   3  -1  -4   10.98    0.40 
   3  -1  -4   11.09    0.40 
  -3   1   4   10.49    0.41 
  -3   1   4   10.68    0.39 
   2  -1  -4   32.78    0.94 
   2  -1  -4   34.67    0.97 
   2  -1  -4   33.99    0.98 
   2  -1  -4   32.75    0.95 
  -2   1   4   34.12    0.97 
  -2   1   4   34.57    0.97 
  -2   1   4   33.43    0.94 
   1  -1  -4  171.77    4.20 
   1  -1  -4  171.08    4.30 
   1  -1  -4  171.53    4.19 
   1  -1  -4  155.36    4.19 
   1  -1  -4  166.70    4.30 
  -1   1   4  173.15    4.29 
  -1   1   4  161.00    4.29 
  -1   1   4  169.09    4.19 
   0  -1  -4    8.75    0.30 
   0  -1  -4    9.39    0.30 
   0  -1  -4    9.23    0.31 
   0  -1  -4    9.29    0.30 
   0  -1  -4    9.03    0.31 
   0   1   4    9.63    0.30 
   0   1   4    8.92    0.30 
   0   1   4    9.68    0.31 
   0   1   4    8.63    0.30 
  -1  -1  -4    0.23    0.05 
  -1  -1  -4    0.21    0.05 
  -1  -1  -4    0.11    0.05 
  -1  -1  -4    0.18    0.05 
  -1  -1  -4    0.19    0.05 
  -1  -1  -4    0.14    0.05 
   1   1   4    0.18    0.05 
   1   1   4    0.29    0.05 
   1   1   4    0.10    0.03 
   1   1   4    0.20    0.05 
   1   1   4    0.27    0.05 
  -2  -1  -4   67.67    1.80 
  -2  -1  -4   71.95    1.80 
  -2  -1  -4   70.15    1.80 
  -2  -1  -4   70.36    1.84 
  -2  -1  -4   69.54    1.84 
  -2  -1  -4   74.28    1.80 
   2   1   4   70.38    1.78 
   2   1   4   70.69    1.83 
   2   1   4   64.91    1.99 
   2   1   4   72.37    1.83 
   2   1   4   71.17    1.79 
  -3  -1  -4   22.00    0.63 
  -3  -1  -4   20.94    0.61 
  -3  -1  -4   21.93    0.61 
  -3  -1  -4   21.18    0.61 
   3   1   4   21.36    0.59 
   3   1   4   20.82    0.60 
   3   1   4   21.56    0.61 
   3   1   4   20.53    0.61 
   3   1   4   21.73    0.69 
  -4  -1  -4    3.91    0.18 
  -4  -1  -4    3.65    0.19 
  -4  -1  -4    3.82    0.19 
  -4  -1  -4    3.96    0.19 
   4   1   4    3.97    0.22 
   4   1   4    3.90    0.16 
   4   1   4    3.62    0.18 
   4   1   4    3.85    0.18 
  -5  -1  -4  147.97    3.81 
  -5  -1  -4  150.63    3.72 
  -5  -1  -4  144.85    3.72 
  -5  -1  -4  140.90    3.71 
   5   1   4  144.32    3.77 
   5   1   4  143.02    3.68 
   5   1   4  150.95    3.67 
   5   1   4  145.03    4.14 
  -6  -1  -4    2.34    0.18 
  -6  -1  -4    2.41    0.18 
  -6  -1  -4    2.52    0.18 
   6   1   4    2.47    0.22 
   6   1   4    2.28    0.17 
  -7  -1  -4   32.71    1.04 
  -7  -1  -4   34.27    1.07 
  -7  -1  -4   35.25    1.05 
   7   1   4   34.95    1.00 
   7   1   4   34.11    1.18 
  -8  -1  -4   10.80    0.47 
  -8  -1  -4   10.71    0.48 
  -8  -1  -4   11.06    0.48 
   8   1   4   10.80    0.54 
   8   1   4   10.47    0.42 
  -9  -1  -4   13.46    0.60 
  -9  -1  -4   14.63    0.60 
   9   1   4   14.89    0.70 
   8  -2  -4   10.43    0.52 
   7  -2  -4    3.92    0.30 
  -7   2   4    3.93    0.31 
  -7   2   4    4.25    0.31 
   6  -2  -4   13.79    0.57 
   6  -2  -4   13.29    0.55 
  -6   2   4   13.29    0.57 
  -6   2   4   14.00    0.56 
   5  -2  -4   41.60    1.24 
   5  -2  -4   40.84    1.23 
  -5   2   4   40.55    1.26 
  -5   2   4   42.79    1.23 
   4  -2  -4    3.93    0.24 
   4  -2  -4    3.91    0.24 
  -4   2   4    4.10    0.23 
  -4   2   4    3.51    0.24 
   3  -2  -4    7.89    0.34 
   3  -2  -4    8.46    0.34 
   3  -2  -4    7.79    0.33 
  -3   2   4    7.73    0.33 
  -3   2   4    7.87    0.32 
   2  -2  -4    2.94    0.17 
   2  -2  -4    3.35    0.17 
   2  -2  -4    3.07    0.18 
   2  -2  -4    2.61    0.17 
  -2   2   4    3.18    0.17 
  -2   2   4    3.06    0.18 
   1  -2  -4    4.16    0.18 
   1  -2  -4    4.06    0.19 
   1  -2  -4    4.16    0.19 
   1  -2  -4    4.90    0.20 
   1  -2  -4    3.88    0.19 
  -1   2   4    4.24    0.19 
  -1   2   4    4.11    0.18 
  -1   2   4    3.88    0.18 
   0  -2  -4    3.01    0.13 
   0  -2  -4    2.82    0.15 
   0  -2  -4    2.84    0.14 
   0  -2  -4    2.92    0.14 
   0  -2  -4    2.63    0.14 
   0   2   4    2.72    0.13 
   0   2   4    2.91    0.13 
   0   2   4    2.78    0.14 
  -1  -2  -4    0.21    0.06 
  -1  -2  -4    0.18    0.05 
  -1  -2  -4    0.18    0.05 
  -1  -2  -4    0.20    0.05 
  -1  -2  -4    0.17    0.05 
  -1  -2  -4    0.19    0.05 
   1   2   4    0.19    0.05 
   1   2   4    0.25    0.04 
   1   2   4    0.23    0.05 
   1   2   4    0.17    0.04 
   1   2   4    0.12    0.04 
  -2  -2  -4    0.28    0.05 
  -2  -2  -4    0.34    0.05 
  -2  -2  -4    0.25    0.05 
  -2  -2  -4    0.20    0.04 
  -2  -2  -4    0.25    0.05 
  -2  -2  -4    0.29    0.05 
   2   2   4    0.30    0.03 
   2   2   4    0.36    0.04 
   2   2   4    0.26    0.07 
   2   2   4    0.25    0.04 
   2   2   4    0.25    0.04 
  -3  -2  -4   36.32    0.98 
  -3  -2  -4   37.98    0.99 
  -3  -2  -4   37.05    1.01 
  -3  -2  -4   36.58    0.98 
  -3  -2  -4   38.74    0.98 
   3   2   4   38.28    0.98 
   3   2   4   36.49    0.96 
   3   2   4   36.34    1.13 
   3   2   4   37.80    0.96 
  -4  -2  -4    2.56    0.14 
  -4  -2  -4    2.57    0.14 
  -4  -2  -4    2.91    0.13 
  -4  -2  -4    2.57    0.14 
   4   2   4    2.46    0.18 
   4   2   4    2.61    0.12 
   4   2   4    2.64    0.10 
   4   2   4    2.64    0.12 
   4   2   4    2.76    0.12 
  -5  -2  -4    5.35    0.24 
  -5  -2  -4    5.54    0.23 
  -5  -2  -4    5.32    0.23 
  -5  -2  -4    5.34    0.23 
   5   2   4    5.24    0.18 
   5   2   4    4.99    0.29 
   5   2   4    5.36    0.21 
   5   2   4    5.28    0.21 
  -6  -2  -4   10.85    0.40 
  -6  -2  -4   10.67    0.41 
  -6  -2  -4   10.98    0.41 
   6   2   4   10.89    0.37 
   6   2   4   11.04    0.37 
   6   2   4   10.50    0.48 
  -7  -2  -4    9.56    0.41 
  -7  -2  -4   10.08    0.40 
  -7  -2  -4    9.39    0.40 
   7   2   4    9.95    0.36 
   7   2   4    9.08    0.47 
  -8  -2  -4    1.84    0.20 
  -8  -2  -4    2.33    0.18 
  -8  -2  -4    2.01    0.19 
   8   2   4    2.19    0.24 
  -9  -2  -4    8.78    0.43 
  -9  -2  -4    8.72    0.44 
  -9  -2  -4    9.27    0.43 
   9   2   4    8.72    0.51 
 -10  -2  -4   -0.02    0.05 
 -10  -2  -4   -0.19    0.07 
  10   2   4    0.16    0.13 
   7  -3  -4   14.27    0.62 
  -7   3   4   14.15    0.64 
   6  -3  -4   18.58    0.72 
   6  -3  -4   21.05    0.75 
  -6   3   4   19.47    0.75 
  -6   3   4   19.55    0.71 
   5  -3  -4   10.06    0.45 
   5  -3  -4    9.87    0.44 
  -5   3   4    9.79    0.45 
  -5   3   4   10.26    0.43 
   4  -3  -4   49.90    1.47 
   4  -3  -4   52.24    1.48 
  -4   3   4   52.90    1.50 
  -4   3   4   52.49    1.46 
   3  -3  -4   48.65    1.37 
   3  -3  -4   48.48    1.37 
  -3   3   4   49.31    1.35 
  -3   3   4   49.63    1.39 
   2  -3  -4    8.59    0.33 
   2  -3  -4    8.72    0.35 
   2  -3  -4    9.26    0.34 
   2  -3  -4    8.73    0.34 
  -2   3   4    8.34    0.33 
  -2   3   4    8.38    0.31 
   1  -3  -4  110.78    2.72 
   1  -3  -4  102.04    2.71 
   1  -3  -4  109.89    2.78 
   1  -3  -4  103.07    2.78 
   1  -3  -4  102.87    2.72 
  -1   3   4  110.83    2.77 
  -1   3   4  106.48    2.76 
   0  -3  -4    6.22    0.22 
   0  -3  -4    6.29    0.24 
   0  -3  -4    6.03    0.22 
   0  -3  -4    6.58    0.23 
   0  -3  -4    6.28    0.23 
   0   3   4    6.34    0.22 
   0   3   4    6.15    0.20 
   0   3   4    6.06    0.21 
   0   3   4    6.12    0.22 
  -1  -3  -4   30.21    0.81 
  -1  -3  -4   30.79    0.81 
  -1  -3  -4   29.69    0.79 
  -1  -3  -4   29.64    0.79 
  -1  -3  -4   30.56    0.79 
   1   3   4   29.38    0.76 
   1   3   4   29.40    0.76 
  -2  -3  -4    1.29    0.07 
  -2  -3  -4    1.34    0.08 
  -2  -3  -4    1.28    0.06 
  -2  -3  -4    1.22    0.07 
  -2  -3  -4    1.19    0.07 
  -2  -3  -4    1.21    0.07 
   2   3   4    1.16    0.13 
  -3  -3  -4    3.37    0.12 
  -3  -3  -4    3.11    0.13 
  -3  -3  -4    3.38    0.13 
  -3  -3  -4    3.34    0.12 
  -3  -3  -4    3.45    0.13 
  -3  -3  -4    3.40    0.13 
   3   3   4    3.12    0.20 
  -4  -3  -4   42.02    1.13 
  -4  -3  -4   43.94    1.11 
  -4  -3  -4   41.72    1.10 
  -4  -3  -4   43.84    1.11 
  -4  -3  -4   40.99    1.10 
   4   3   4   41.00    1.31 
  -5  -3  -4  115.97    2.86 
  -5  -3  -4  111.40    2.85 
  -5  -3  -4  111.15    2.86 
  -5  -3  -4  114.03    2.93 
   5   3   4  113.00    2.78 
   5   3   4  115.07    3.26 
   5   3   4  108.61    2.78 
  -6  -3  -4    0.21    0.07 
  -6  -3  -4    0.11    0.06 
  -6  -3  -4    0.16    0.05 
   6   3   4    0.13    0.04 
   6   3   4    0.18    0.09 
  -7  -3  -4   28.48    0.89 
  -7  -3  -4   28.76    0.87 
  -7  -3  -4   30.31    0.88 
   7   3   4   27.56    1.02 
  -8  -3  -4   10.28    0.44 
  -8  -3  -4   10.36    0.44 
  -8  -3  -4   10.90    0.43 
   8   3   4   10.94    0.55 
  -9  -3  -4    0.47    0.10 
  -9  -3  -4    0.63    0.14 
  -9  -3  -4    0.45    0.10 
   9   3   4    1.03    0.21 
 -10  -3  -4    4.54    0.32 
 -10  -3  -4    5.26    0.30 
  10   3   4    4.73    0.40 
   7  -4  -4    0.05    0.10 
  -7   4   4    0.32    0.12 
   6  -4  -4    4.44    0.31 
   6  -4  -4    4.48    0.33 
  -6   4   4    4.48    0.31 
   5  -4  -4    0.56    0.13 
   5  -4  -4    0.69    0.14 
  -5   4   4    0.49    0.13 
   4  -4  -4    7.87    0.37 
   4  -4  -4    7.84    0.37 
  -4   4   4    8.23    0.35 
  -4   4   4    7.56    0.37 
   3  -4  -4    0.47    0.10 
   3  -4  -4    0.50    0.11 
  -3   4   4    0.51    0.10 
  -3   4   4    0.53    0.09 
   2  -4  -4   44.35    1.21 
   2  -4  -4   40.58    1.20 
   2  -4  -4   43.63    1.20 
   2  -4  -4   42.53    1.23 
  -2   4   4   42.25    1.21 
  -2   4   4   44.48    1.17 
   1  -4  -4   68.18    1.78 
   1  -4  -4   68.00    1.73 
   1  -4  -4   64.70    1.73 
   1  -4  -4   66.76    1.73 
   1  -4  -4   65.09    1.78 
  -1   4   4   62.76    1.74 
  -1   4   4   65.68    1.70 
   0  -4  -4    0.39    0.07 
   0  -4  -4    0.27    0.05 
   0  -4  -4    0.39    0.06 
   0  -4  -4    0.28    0.06 
   0  -4  -4    0.34    0.06 
   0   4   4    0.39    0.05 
   0   4   4    0.39    0.04 
   0   4   4    0.37    0.05 
  -1  -4  -4    6.33    0.22 
  -1  -4  -4    7.22    0.23 
  -1  -4  -4    6.67    0.22 
  -1  -4  -4    7.12    0.22 
  -1  -4  -4    6.99    0.23 
  -2  -4  -4   30.34    0.78 
  -2  -4  -4   30.51    0.78 
  -2  -4  -4   31.69    0.80 
   2   4   4   29.22    0.97 
  -3  -4  -4   11.83    0.32 
  -3  -4  -4   11.84    0.32 
   3   4   4   11.38    0.46 
  -4  -4  -4    5.40    0.18 
  -4  -4  -4    5.54    0.17 
  -4  -4  -4    5.31    0.18 
  -4  -4  -4    5.39    0.18 
  -4  -4  -4    5.23    0.17 
   4   4   4    5.68    0.30 
  -5  -4  -4    2.18    0.12 
  -5  -4  -4    2.24    0.12 
  -5  -4  -4    2.42    0.13 
  -5  -4  -4    2.36    0.11 
  -5  -4  -4    2.58    0.12 
   5   4   4    2.27    0.20 
  -6  -4  -4    1.61    0.12 
  -6  -4  -4    1.65    0.11 
  -6  -4  -4    1.49    0.12 
   6   4   4    1.54    0.18 
  -7  -4  -4   16.80    0.54 
  -7  -4  -4   16.21    0.54 
  -7  -4  -4   16.35    0.55 
   7   4   4   15.37    0.67 
  -8  -4  -4    1.67    0.16 
  -8  -4  -4    2.00    0.16 
  -8  -4  -4    2.21    0.15 
   8   4   4    2.11    0.24 
  -9  -4  -4   19.53    0.70 
  -9  -4  -4   20.72    0.70 
  -9  -4  -4   19.94    0.71 
   9   4   4   19.87    0.86 
 -10  -4  -4    3.96    0.28 
  10   4   4    3.54    0.36 
   6  -5  -4   10.78    0.53 
   6  -5  -4   10.49    0.52 
  -6   5   4   10.38    0.51 
   5  -5  -4   15.70    0.63 
   5  -5  -4   15.29    0.63 
  -5   5   4   16.55    0.64 
   4  -5  -4   34.81    1.11 
   4  -5  -4   35.77    1.12 
  -4   5   4   37.05    1.12 
   3  -5  -4    3.74    0.25 
   3  -5  -4    4.16    0.25 
  -3   5   4    3.90    0.23 
   2  -5  -4   13.71    0.49 
   2  -5  -4   13.27    0.48 
  -2   5   4   13.59    0.47 
   1  -5  -4   72.14    1.92 
   1  -5  -4   71.96    1.88 
   1  -5  -4   70.96    1.87 
   1  -5  -4   68.20    1.87 
  -1   5   4   71.30    1.88 
  -1   5   4   71.27    1.82 
   0  -5  -4    3.79    0.18 
   0  -5  -4    4.39    0.19 
   0  -5  -4    4.05    0.19 
   0  -5  -4    4.08    0.20 
   0  -5  -4    4.45    0.18 
   0   5   4    4.21    0.16 
  -1  -5  -4    1.72    0.10 
  -1  -5  -4    1.69    0.10 
  -1  -5  -4    1.72    0.10 
  -1  -5  -4    1.79    0.09 
  -1  -5  -4    1.55    0.09 
  -2  -5  -4    4.05    0.14 
   3   5   4    0.60    0.11 
  -4  -5  -4    0.04    0.02 
  -4  -5  -4    0.08    0.02 
   4   5   4    0.03    0.07 
  -5  -5  -4    5.67    0.19 
  -5  -5  -4    5.71    0.20 
  -5  -5  -4    5.75    0.20 
  -5  -5  -4    5.94    0.19 
  -6  -5  -4    0.01    0.03 
  -6  -5  -4   -0.01    0.03 
  -6  -5  -4    0.03    0.04 
   6   5   4    0.06    0.08 
  -7  -5  -4   29.00    0.85 
  -7  -5  -4   29.27    0.83 
  -7  -5  -4   28.38    0.83 
   7   5   4   28.17    1.05 
  -8  -5  -4    0.01    0.05 
  -8  -5  -4    0.14    0.07 
   8   5   4    0.15    0.11 
  -9  -5  -4    0.75    0.12 
  -9  -5  -4    0.75    0.12 
  -9  -5  -4    0.88    0.10 
   9   5   4    0.78    0.19 
  10   5   4    2.19    0.32 
   6  -6  -4    0.25    0.08 
   6  -6  -4    0.25    0.12 
   5  -6  -4    2.49    0.22 
   5  -6  -4    2.39    0.26 
   4  -6  -4    8.46    0.41 
   4  -6  -4    8.31    0.42 
  -4   6   4    7.85    0.38 
   3  -6  -4    8.07    0.39 
   3  -6  -4    7.82    0.37 
  -3   6   4    7.59    0.35 
   2  -6  -4   54.84    1.54 
   2  -6  -4   56.70    1.54 
  -2   6   4   53.98    1.52 
   1  -6  -4   36.95    1.07 
   1  -6  -4   39.10    1.10 
   1  -6  -4   37.06    1.07 
  -1   6   4   38.10    1.05 
   0  -6  -4   15.44    0.49 
   0  -6  -4   14.69    0.48 
   0  -6  -4   15.68    0.48 
   0  -6  -4   14.53    0.48 
  -1  -6  -4   60.74    1.54 
  -1  -6  -4   58.41    1.54 
  -1  -6  -4   58.00    1.54 
  -1  -6  -4   61.30    1.58 
  -1  -6  -4   58.23    1.53 
  -2  -6  -4    0.71    0.06 
  -2  -6  -4    0.77    0.06 
  -2  -6  -4    0.82    0.05 
  -2  -6  -4    0.80    0.05 
  -2  -6  -4    0.78    0.06 
  -2  -6  -4    0.87    0.05 
   3   6   4    0.73    0.13 
   4   6   4   21.03    0.78 
  -5  -6  -4   10.37    0.29 
   5   6   4    9.94    0.48 
  -6  -6  -4    0.30    0.05 
  -6  -6  -4    0.28    0.05 
  -6  -6  -4    0.34    0.05 
   6   6   4    0.34    0.12 
  -7  -6  -4    1.37    0.11 
  -7  -6  -4    1.14    0.11 
  -7  -6  -4    1.23    0.09 
   7   6   4    1.30    0.21 
  -8  -6  -4    1.27    0.13 
  -8  -6  -4    1.31    0.12 
   8   6   4    1.51    0.25 
  -9  -6  -4   22.02    0.74 
  -9  -6  -4   23.52    0.76 
   9   6   4   22.70    0.96 
   5  -7  -4    2.58    0.23 
   5  -7  -4    2.45    0.26 
   4  -7  -4    3.74    0.26 
   4  -7  -4    3.58    0.29 
   3  -7  -4    0.54    0.12 
   3  -7  -4    0.57    0.13 
   2  -7  -4    1.25    0.17 
   2  -7  -4    1.24    0.14 
   1  -7  -4    0.49    0.10 
   1  -7  -4    0.53    0.10 
   0  -7  -4   10.74    0.40 
   0  -7  -4   11.52    0.40 
  -1  -7  -4    0.08    0.04 
  -1  -7  -4    0.05    0.04 
  -2  -7  -4    5.60    0.20 
  -2  -7  -4    5.58    0.20 
  -2  -7  -4    5.59    0.20 
  -3  -7  -4   47.55    1.20 
   4   7   4    0.30    0.12 
   5   7   4    0.97    0.18 
  -6  -7  -4    3.20    0.13 
   6   7   4    3.24    0.27 
  -7  -7  -4    0.43    0.07 
  -7  -7  -4    0.51    0.06 
   7   7   4    0.60    0.16 
  -8  -7  -4    0.00    0.02 
  -8  -7  -4   -0.02    0.04 
   8   7   4   -0.04    0.08 
  -9  -7  -4    0.61    0.09 
  -9  -7  -4    0.25    0.08 
   9   7   4    0.36    0.14 
   4  -8  -4    7.03    0.39 
   4  -8  -4    6.85    0.41 
   3  -8  -4    2.76    0.25 
   3  -8  -4    2.51    0.21 
   2  -8  -4   12.87    0.54 
   2  -8  -4   13.95    0.53 
   1  -8  -4   41.02    1.18 
   1  -8  -4   39.17    1.18 
   0  -8  -4   11.94    0.45 
   0  -8  -4   12.31    0.44 
  -1  -8  -4   19.92    0.60 
  -1  -8  -4   18.59    0.60 
  -2  -8  -4    0.02    0.04 
  -2  -8  -4    0.03    0.03 
  -3  -8  -4    0.92    0.06 
  -3  -8  -4    0.98    0.07 
   4   8   4    3.17    0.28 
   5   8   4    0.22    0.12 
  -6  -8  -4    2.21    0.10 
   6   8   4    2.01    0.24 
  -7  -8  -4    1.03    0.09 
   7   8   4    1.05    0.20 
  -8  -8  -4    0.23    0.06 
   8   8   4   -0.08    0.08 
   3  -9  -4    7.59    0.42 
   3  -9  -4    7.15    0.38 
   2  -9  -4    2.22    0.18 
   2  -9  -4    1.47    0.20 
   1  -9  -4    2.26    0.17 
   1  -9  -4    2.19    0.20 
   0  -9  -4    5.17    0.26 
   0  -9  -4    4.95    0.28 
  -1  -9  -4    7.86    0.34 
  -1  -9  -4    8.27    0.32 
  -2  -9  -4   10.97    0.39 
  -3  -9  -4   31.79    0.87 
  -4  -9  -4    0.75    0.07 
   5   9   4    5.49    0.38 
  -6  -9  -4    0.44    0.05 
   6   9   4    0.40    0.14 
  -7  -9  -4    2.63    0.13 
   7   9   4    2.91    0.29 
  -8  -9  -4    2.79    0.15 
   8   9   4    2.72    0.29 
   1 -10  -4    2.04    0.16 
   1 -10  -4    2.01    0.20 
   0 -10  -4   -0.03    0.03 
   0 -10  -4    0.01    0.05 
  -1 -10  -4   10.46    0.42 
  -2 -10  -4    0.15    0.06 
  -3 -10  -4    2.49    0.15 
  -4 -10  -4    0.68    0.08 
  -5 -10  -4    2.83    0.13 
  -6 -10  -4    0.09    0.03 
   6  10   4    0.12    0.11 
  -7 -10  -4    0.14    0.04 
   7  10   4    0.25    0.12 
  -1 -11  -4    2.23    0.18 
  -2 -11  -4    0.47    0.10 
  -3 -11  -4   21.36    0.67 
  -5 -11  -4    7.34    0.27 
  -2  -9   5   21.90    0.82 
  -2  -9   5   21.86    0.81 
  -1  -9   5    0.78    0.17 
  -1  -9   5    0.67    0.13 
  -5  -8   5    1.00    0.18 
  -5  -8   5    1.30    0.14 
  -4  -8   5    4.46    0.28 
  -4  -8   5    3.83    0.30 
  -3  -8   5    5.57    0.32 
  -3  -8   5    5.95    0.36 
  -2  -8   5    0.28    0.08 
  -2  -8   5    0.21    0.08 
  -2  -8   5    0.33    0.12 
  -1  -8   5    0.64    0.14 
  -1  -8   5    0.59    0.15 
  -1  -8   5    0.58    0.12 
   0  -8   5    6.66    0.39 
   0  -8   5    7.09    0.38 
   1  -8   5    0.04    0.09 
   1  -8   5    0.01    0.05 
  -2   8  -5    6.18    0.34 
   2  -8   5    6.45    0.38 
   2  -8   5    5.87    0.38 
  -6  -7   5    3.46    0.28 
  -6  -7   5    3.49    0.25 
  -5  -7   5   17.33    0.68 
  -5  -7   5   17.11    0.66 
  -4  -7   5    4.84    0.32 
  -4  -7   5    5.15    0.31 
  -4  -7   5    4.92    0.29 
  -3  -7   5   18.21    0.67 
  -3  -7   5   17.35    0.67 
  -3  -7   5   18.39    0.70 
   2   7  -5   55.19    1.56 
  -2  -7   5   54.83    1.63 
  -2  -7   5   57.70    1.69 
  -2  -7   5   57.15    1.63 
   1   7  -5    0.12    0.07 
  -1  -7   5    0.01    0.06 
  -1  -7   5   -0.01    0.09 
  -1  -7   5   -0.07    0.05 
   0   7  -5    1.39    0.17 
   0  -7   5    1.41    0.20 
   0  -7   5    1.27    0.19 
   0  -7   5    1.44    0.16 
  -1   7  -5   10.05    0.44 
   1  -7   5    9.80    0.46 
   1  -7   5    9.87    0.48 
   1  -7   5    9.86    0.47 
  -2   7  -5    1.69    0.19 
   2  -7   5    1.36    0.20 
   2  -7   5    1.61    0.18 
   2  -7   5    2.17    0.23 
  -3   7  -5    1.86    0.21 
   3  -7   5    1.77    0.19 
   3  -7   5    1.88    0.26 
  -4   7  -5    2.82    0.26 
   4  -7   5    3.28    0.26 
   4  -7   5    3.22    0.30 
  -7  -6   5    0.04    0.05 
  -7  -6   5   -0.02    0.07 
  -6  -6   5    2.35    0.23 
  -6  -6   5    2.92    0.22 
  -5  -6   5    1.09    0.18 
  -5  -6   5    1.50    0.16 
  -5  -6   5    1.22    0.18 
   4   6  -5    3.85    0.22 
  -4  -6   5    3.62    0.25 
  -4  -6   5    3.53    0.26 
  -4  -6   5    3.15    0.26 
   3   6  -5   23.58    0.75 
  -3  -6   5   24.23    0.80 
  -3  -6   5   23.40    0.80 
  -3  -6   5   23.52    0.82 
   2   6  -5    0.44    0.10 
   2   6  -5    0.49    0.10 
  -2  -6   5    0.35    0.10 
  -2  -6   5    0.39    0.10 
  -2  -6   5    0.28    0.11 
   1   6  -5   31.75    0.97 
   1   6  -5   29.65    0.94 
  -1  -6   5   30.77    0.98 
  -1  -6   5   31.64    0.98 
  -1  -6   5   31.10    1.01 
   0   6  -5   39.11    1.20 
   0   6  -5   40.83    1.24 
   0  -6   5   42.19    1.24 
   0  -6   5   42.44    1.28 
   0  -6   5   40.91    1.24 
  -1   6  -5    0.71    0.14 
  -1   6  -5    0.78    0.14 
   1  -6   5    0.85    0.16 
   1  -6   5    0.63    0.12 
   1  -6   5    0.51    0.13 
  -2   6  -5   13.90    0.57 
  -2   6  -5   14.19    0.56 
   2  -6   5   13.86    0.57 
   2  -6   5   13.71    0.57 
   2  -6   5   13.41    0.58 
  -3   6  -5   11.30    0.51 
  -3   6  -5   10.96    0.49 
   3  -6   5   10.91    0.51 
   3  -6   5   11.19    0.51 
   3  -6   5   11.35    0.53 
  -4   6  -5    1.25    0.19 
  -4   6  -5    1.22    0.20 
   4  -6   5    0.94    0.18 
   4  -6   5    1.04    0.19 
   4  -6   5    1.00    0.19 
  -5   6  -5    2.22    0.23 
  -5   6  -5    1.58    0.21 
   5  -6   5    2.23    0.24 
   5  -6   5    2.09    0.22 
  -7  -5   5    4.63    0.30 
  -7  -5   5    4.73    0.34 
  -6  -5   5    1.07    0.17 
  -6  -5   5    1.04    0.17 
  -6  -5   5    1.38    0.20 
   5   5  -5    9.80    0.40 
  -5  -5   5   10.07    0.45 
  -5  -5   5    9.24    0.44 
  -5  -5   5    9.89    0.45 
   4   5  -5   14.54    0.52 
   4   5  -5   13.80    0.52 
  -4  -5   5   14.00    0.55 
  -4  -5   5   14.92    0.57 
  -4  -5   5   14.94    0.56 
   3   5  -5    3.60    0.23 
   3   5  -5    3.81    0.22 
  -3  -5   5    3.61    0.24 
  -3  -5   5    3.38    0.24 
  -3  -5   5    3.64    0.24 
   2   5  -5   24.01    0.75 
   2   5  -5   23.42    0.77 
  -2  -5   5   23.76    0.80 
  -2  -5   5   23.78    0.78 
  -2  -5   5   23.00    0.77 
   1   5  -5    0.82    0.12 
   1   5  -5    0.85    0.13 
  -1  -5   5    1.04    0.15 
  -1  -5   5    0.82    0.13 
  -1  -5   5    0.76    0.12 
   0   5  -5   18.45    0.62 
   0   5  -5   18.43    0.61 
   0   5  -5   18.78    0.64 
   0  -5   5   18.03    0.64 
   0  -5   5   18.20    0.64 
   0  -5   5   18.20    0.66 
  -1   5  -5    9.81    0.41 
  -1   5  -5    9.59    0.39 
  -1   5  -5    9.76    0.43 
   1  -5   5    9.69    0.42 
   1  -5   5    9.40    0.42 
   1  -5   5    9.80    0.44 
  -2   5  -5    7.66    0.38 
  -2   5  -5    7.03    0.34 
  -2   5  -5    7.20    0.35 
   2  -5   5    7.18    0.38 
   2  -5   5    7.19    0.37 
   2  -5   5    7.44    0.37 
  -3   5  -5    0.18    0.09 
  -3   5  -5   -0.03    0.05 
  -3   5  -5    0.10    0.08 
   3  -5   5    0.15    0.08 
   3  -5   5    0.04    0.09 
   3  -5   5    0.07    0.08 
  -4   5  -5    4.21    0.30 
  -4   5  -5    4.15    0.30 
   4  -5   5    3.60    0.29 
   4  -5   5    4.72    0.30 
   4  -5   5    3.86    0.29 
  -5   5  -5    2.73    0.27 
  -5   5  -5    3.13    0.27 
   5  -5   5    3.00    0.27 
   5  -5   5    3.05    0.26 
   5  -5   5    3.06    0.26 
  -6   5  -5    0.12    0.09 
  -6   5  -5    0.11    0.10 
   6  -5   5    0.00    0.07 
   6  -5   5    0.17    0.10 
   8   4  -5    2.33    0.21 
  -8  -4   5    2.03    0.26 
   7   4  -5    0.79    0.14 
  -7  -4   5    0.62    0.15 
  -7  -4   5    0.87    0.16 
   6   4  -5    6.70    0.33 
   6   4  -5    6.30    0.34 
  -6  -4   5    6.37    0.37 
  -6  -4   5    6.59    0.37 
   5   4  -5    1.81    0.17 
   5   4  -5    1.68    0.15 
   5   4  -5    2.03    0.17 
  -5  -4   5    1.88    0.18 
  -5  -4   5    1.76    0.18 
  -5  -4   5    1.66    0.19 
   4   4  -5   10.55    0.41 
   4   4  -5   10.59    0.43 
   4   4  -5   10.95    0.42 
  -4  -4   5    9.93    0.44 
  -4  -4   5   10.38    0.45 
  -4  -4   5   10.11    0.43 
   3   4  -5   35.47    1.03 
   3   4  -5   34.47    1.05 
   3   4  -5   36.27    1.02 
   3   4  -5   35.68    1.06 
  -3  -4   5   34.37    1.05 
  -3  -4   5   34.30    1.05 
  -3  -4   5   34.51    1.08 
   2   4  -5   40.68    1.15 
   2   4  -5   39.79    1.19 
   2   4  -5   41.92    1.17 
   2   4  -5   39.96    1.16 
  -2  -4   5   41.44    1.19 
  -2  -4   5   40.51    1.22 
  -2  -4   5   41.86    1.19 
   1   4  -5   30.46    0.89 
   1   4  -5   29.55    0.90 
   1   4  -5   29.88    0.93 
  -1  -4   5   30.34    0.92 
  -1  -4   5   31.35    0.95 
  -1  -4   5   29.67    0.91 
   0   4  -5   31.41    0.99 
   0   4  -5   34.00    0.96 
   0   4  -5   32.53    0.97 
   0  -4   5   34.21    0.98 
   0  -4   5   31.80    1.00 
   0  -4   5   32.08    0.98 
  -1   4  -5    4.72    0.25 
  -1   4  -5    4.80    0.25 
  -1   4  -5    4.55    0.26 
   1  -4   5    4.49    0.26 
   1  -4   5    4.12    0.26 
   1  -4   5    4.38    0.25 
  -2   4  -5  118.65    3.06 
  -2   4  -5  116.31    3.14 
  -2   4  -5  115.00    3.06 
   2  -4   5  118.70    3.07 
   2  -4   5  115.70    3.07 
   2  -4   5  117.82    3.16 
  -3   4  -5    0.17    0.07 
  -3   4  -5    0.11    0.08 
  -3   4  -5    0.08    0.08 
   3  -4   5    0.03    0.06 
   3  -4   5    0.03    0.07 
   3  -4   5    0.00    0.07 
  -4   4  -5    0.33    0.11 
  -4   4  -5    0.52    0.13 
  -4   4  -5    0.62    0.13 
   4  -4   5    0.58    0.13 
   4  -4   5    0.43    0.11 
   4  -4   5    0.33    0.11 
  -5   4  -5    3.24    0.26 
  -5   4  -5    3.29    0.28 
  -5   4  -5    3.54    0.27 
   5  -4   5    2.96    0.25 
   5  -4   5    3.23    0.27 
   5  -4   5    3.48    0.26 
  -6   4  -5    9.15    0.45 
  -6   4  -5    8.68    0.47 
  -6   4  -5    9.56    0.48 
   6  -4   5    8.92    0.46 
  -7   4  -5   -0.01    0.08 
   7  -4   5    0.06    0.10 
   8   3  -5    0.48    0.11 
  -8  -3   5    0.34    0.14 
   7   3  -5    0.93    0.15 
   7   3  -5    1.18    0.19 
  -7  -3   5    0.50    0.13 
  -7  -3   5    0.94    0.17 
   6   3  -5    0.09    0.07 
  -6  -3   5    0.01    0.08 
  -6  -3   5    0.01    0.05 
   5   3  -5   24.16    0.77 
   5   3  -5   23.67    0.79 
  -5  -3   5   23.61    0.79 
  -5  -3   5   23.00    0.81 
   4   3  -5   10.74    0.41 
   4   3  -5   10.86    0.43 
   4   3  -5   11.05    0.44 
   4   3  -5   11.19    0.44 
  -4  -3   5   10.87    0.45 
  -4  -3   5   11.39    0.46 
  -4  -3   5   11.08    0.45 
   3   3  -5    0.47    0.08 
   3   3  -5    0.31    0.09 
   3   3  -5    0.42    0.08 
   3   3  -5    0.39    0.09 
  -3  -3   5    0.30    0.09 
  -3  -3   5    0.30    0.08 
  -3  -3   5    0.31    0.09 
   2   3  -5    6.85    0.31 
   2   3  -5    6.91    0.25 
   2   3  -5    7.33    0.30 
   2   3  -5    6.52    0.30 
  -2  -3   5    7.16    0.32 
  -2  -3   5    7.12    0.33 
  -2  -3   5    6.63    0.31 
   1   3  -5    8.75    0.36 
   1   3  -5    9.62    0.36 
   1   3  -5    8.70    0.37 
  -1  -3   5    9.15    0.37 
  -1  -3   5    8.91    0.38 
  -1  -3   5    9.18    0.36 
   0   3  -5   16.90    0.55 
   0   3  -5   16.80    0.57 
   0   3  -5   17.13    0.56 
   0  -3   5   16.22    0.57 
   0  -3   5   15.22    0.54 
   0  -3   5   17.19    0.57 
  -1   3  -5    8.22    0.35 
  -1   3  -5    7.95    0.33 
   1  -3   5    7.47    0.34 
   1  -3   5    8.15    0.33 
   1  -3   5    7.93    0.34 
  -2   3  -5   30.20    0.92 
  -2   3  -5   31.00    0.92 
  -2   3  -5   31.01    0.95 
   2  -3   5   31.10    0.95 
   2  -3   5   29.59    0.92 
   2  -3   5   30.30    0.92 
   2  -3   5   31.62    0.88 
  -3   3  -5    5.00    0.29 
  -3   3  -5    4.75    0.27 
  -3   3  -5    5.01    0.27 
   3  -3   5    5.54    0.23 
   3  -3   5    5.20    0.29 
   3  -3   5    4.77    0.27 
   3  -3   5    4.91    0.27 
  -4   3  -5   32.79    1.02 
  -4   3  -5   32.27    1.05 
  -4   3  -5   32.52    1.01 
   4  -3   5   33.03    1.02 
   4  -3   5   32.86    1.04 
   4  -3   5   33.24    1.01 
  -5   3  -5    0.35    0.11 
  -5   3  -5    0.31    0.11 
  -5   3  -5    0.45    0.13 
   5  -3   5    0.49    0.12 
   5  -3   5    0.22    0.10 
   5  -3   5    0.70    0.14 
  -6   3  -5    0.81    0.16 
  -6   3  -5    0.73    0.16 
  -6   3  -5    0.98    0.18 
   6  -3   5    0.99    0.17 
  -7   3  -5    0.92    0.18 
  -7   3  -5    0.79    0.18 
  -7   3  -5    0.31    0.14 
   7  -3   5    0.65    0.15 
   7  -3   5    0.67    0.15 
  -8   3  -5   10.25    0.52 
  -8   3  -5   10.07    0.53 
   8  -3   5    9.17    0.51 
   8  -3   5    9.65    0.50 
   8   2  -5    6.28    0.36 
  -8  -2   5    6.13    0.40 
   7   2  -5    4.23    0.27 
  -7  -2   5    3.84    0.30 
  -7  -2   5    4.16    0.31 
   6   2  -5    3.57    0.24 
  -6  -2   5    3.10    0.25 
  -6  -2   5    2.94    0.25 
   5   2  -5    3.18    0.22 
   5   2  -5    3.12    0.22 
   5   2  -5    3.18    0.24 
  -5  -2   5    3.16    0.24 
  -5  -2   5    3.09    0.24 
   4   2  -5    7.03    0.31 
   4   2  -5    7.07    0.32 
   4   2  -5    7.13    0.34 
  -4  -2   5    6.72    0.34 
  -4  -2   5    6.76    0.33 
   3   2  -5   88.45    2.38 
   3   2  -5   85.85    2.31 
   3   2  -5   87.55    2.32 
  -3  -2   5   87.20    2.32 
  -3  -2   5   88.12    2.32 
  -3  -2   5   89.84    2.39 
   2   2  -5    5.49    0.27 
   2   2  -5    5.60    0.25 
   2   2  -5    5.73    0.27 
  -2  -2   5    5.51    0.27 
  -2  -2   5    5.75    0.27 
  -2  -2   5    5.93    0.29 
   1   2  -5   74.40    1.91 
   1   2  -5   75.70    1.97 
   1   2  -5   71.64    1.91 
  -1  -2   5   69.71    1.91 
  -1  -2   5   68.81    1.90 
   0   2  -5   28.91    0.89 
   0   2  -5   29.70    0.87 
   0   2  -5   30.10    0.87 
   0  -2   5   29.81    0.87 
   0  -2   5   31.48    0.88 
   0  -2   5   29.61    0.90 
  -1   2  -5    2.76    0.19 
  -1   2  -5    3.17    0.19 
  -1   2  -5    3.04    0.18 
   1  -2   5    2.84    0.18 
   1  -2   5    2.69    0.18 
   1  -2   5    2.96    0.18 
  -2   2  -5   12.50    0.45 
  -2   2  -5   12.69    0.45 
  -2   2  -5   12.39    0.46 
   2  -2   5   12.63    0.39 
   2  -2   5   12.58    0.45 
   2  -2   5   12.45    0.46 
   2  -2   5   12.71    0.44 
  -3   2  -5    5.97    0.30 
  -3   2  -5    6.35    0.30 
  -3   2  -5    6.57    0.30 
   3  -2   5    6.24    0.30 
   3  -2   5    6.55    0.26 
   3  -2   5    6.36    0.30 
   3  -2   5    6.19    0.28 
  -4   2  -5    1.09    0.14 
  -4   2  -5    1.09    0.15 
  -4   2  -5    1.36    0.15 
   4  -2   5    1.13    0.13 
   4  -2   5    1.20    0.14 
   4  -2   5    1.04    0.14 
   4  -2   5    0.89    0.13 
  -5   2  -5    1.44    0.19 
  -5   2  -5    1.22    0.16 
  -5   2  -5    1.15    0.17 
   5  -2   5    1.16    0.14 
   5  -2   5    1.20    0.16 
   5  -2   5    1.05    0.15 
   5  -2   5    1.26    0.16 
  -6   2  -5   16.49    0.67 
  -6   2  -5   16.52    0.65 
  -6   2  -5   17.62    0.66 
   6  -2   5   17.66    0.67 
   6  -2   5   17.13    0.64 
  -7   2  -5    0.12    0.11 
  -7   2  -5    0.26    0.09 
  -7   2  -5    0.26    0.13 
   7  -2   5    0.20    0.09 
   7  -2   5    0.31    0.11 
  -8   2  -5    6.84    0.42 
  -8   2  -5    6.06    0.37 
   8  -2   5    5.93    0.39 
   8  -2   5    6.74    0.38 
   8   1  -5    0.77    0.15 
  -8  -1   5    0.64    0.17 
   7   1  -5    4.41    0.29 
  -7  -1   5    3.65    0.30 
  -7  -1   5    4.34    0.32 
   6   1  -5    2.43    0.21 
  -6  -1   5    2.42    0.23 
  -6  -1   5    2.06    0.22 
   5   1  -5    0.30    0.08 
   5   1  -5    0.14    0.08 
   5   1  -5    0.26    0.09 
  -5  -1   5    0.19    0.09 
  -5  -1   5    0.20    0.09 
   4   1  -5   22.29    0.73 
   4   1  -5   23.53    0.76 
   4   1  -5   23.31    0.73 
  -4  -1   5   22.97    0.74 
  -4  -1   5   21.91    0.76 
   3   1  -5    5.29    0.27 
   3   1  -5    5.77    0.27 
   3   1  -5    5.74    0.28 
  -3  -1   5    5.68    0.27 
  -3  -1   5    5.34    0.28 
   2   1  -5    3.67    0.22 
   2   1  -5    4.18    0.22 
   2   1  -5    3.67    0.20 
  -2  -1   5    3.98    0.22 
  -2  -1   5    3.83    0.21 
  -2  -1   5    3.97    0.21 
   1   1  -5  102.97    2.70 
   1   1  -5  105.86    2.69 
   1   1  -5  104.77    2.77 
  -1  -1   5  105.79    2.70 
  -1  -1   5  105.73    2.77 
  -1  -1   5  103.20    2.69 
   0   1  -5    0.90    0.12 
   0   1  -5    0.74    0.11 
   0   1  -5    0.77    0.05 
   0   1  -5    0.84    0.11 
   0  -1   5    0.80    0.09 
   0  -1   5    0.87    0.10 
   0  -1   5    0.62    0.10 
   0  -1   5    0.71    0.10 
  -1   1  -5   91.97    2.39 
  -1   1  -5   94.64    2.46 
  -1   1  -5   91.72    2.39 
  -1   1  -5   93.96    2.45 
   1  -1   5   90.23    2.38 
   1  -1   5   88.39    2.44 
   1  -1   5   96.59    2.39 
  -2   1  -5  112.97    2.94 
  -2   1  -5  111.42    2.87 
  -2   1  -5  107.18    2.86 
   2  -1   5  112.08    3.08 
   2  -1   5  110.44    2.93 
   2  -1   5  113.76    2.86 
   2  -1   5  112.36    2.86 
  -3   1  -5   25.32    0.78 
  -3   1  -5   26.05    0.81 
  -3   1  -5   26.45    0.78 
   3  -1   5   25.01    0.76 
   3  -1   5   25.81    0.77 
   3  -1   5   25.23    0.79 
   3  -1   5   27.27    0.80 
  -4   1  -5    7.26    0.33 
  -4   1  -5    7.16    0.32 
  -4   1  -5    7.89    0.35 
   4  -1   5    7.42    0.32 
   4  -1   5    7.80    0.31 
   4  -1   5    6.94    0.31 
   4  -1   5    7.28    0.33 
  -5   1  -5   15.69    0.58 
  -5   1  -5   15.94    0.58 
  -5   1  -5   16.74    0.61 
   5  -1   5   16.01    0.58 
   5  -1   5   15.88    0.56 
   5  -1   5   15.99    0.60 
   5  -1   5   17.25    0.56 
  -6   1  -5    8.34    0.40 
  -6   1  -5    8.77    0.41 
  -6   1  -5    7.72    0.41 
   6  -1   5    9.16    0.41 
   6  -1   5    8.80    0.42 
   6  -1   5    8.71    0.38 
  -7   1  -5    4.23    0.28 
  -7   1  -5    3.73    0.29 
  -7   1  -5    3.89    0.30 
   7  -1   5    4.01    0.26 
   7  -1   5    4.30    0.30 
  -8   1  -5    0.22    0.09 
  -8   1  -5    0.01    0.11 
  -8   1  -5    0.07    0.09 
   8  -1   5    0.15    0.10 
   8  -1   5    0.13    0.08 
  -9   1  -5    1.15    0.22 
  -9   1  -5    1.42    0.20 
   9  -1   5    0.86    0.19 
   9  -1   5    0.88    0.14 
   8   0  -5    2.60    0.25 
  -8   0   5    2.90    0.28 
   7   0  -5    1.80    0.23 
  -7   0   5    1.65    0.23 
  -7   0   5    1.65    0.23 
   6   0  -5    4.06    0.28 
  -6   0   5    4.18    0.29 
  -6   0   5    3.97    0.30 
   5   0  -5    3.41    0.24 
   5   0  -5    3.07    0.22 
  -5   0   5    3.00    0.24 
  -5   0   5    2.81    0.23 
   4   0  -5    1.36    0.14 
   4   0  -5    1.61    0.16 
   4   0  -5    1.34    0.16 
  -4   0   5    1.53    0.16 
  -4   0   5    1.70    0.17 
   3   0  -5    1.71    0.15 
   3   0  -5    1.58    0.16 
   3   0  -5    1.51    0.15 
  -3   0   5    1.79    0.16 
  -3   0   5    1.64    0.14 
   2   0  -5    0.11    0.07 
   2   0  -5    0.07    0.05 
   2   0  -5    0.21    0.07 
  -2   0   5    0.30    0.07 
  -2   0   5    0.05    0.05 
   1   0  -5  151.92    3.96 
   1   0  -5  158.48    4.07 
   1   0  -5  156.88    4.07 
   1   0  -5  159.45    3.98 
  -1   0   5  160.93    3.97 
  -1   0   5  154.43    3.96 
  -1   0   5  160.78    4.12 
  -1   0   5  154.74    4.06 
   0   0  -5    1.52    0.11 
   0   0  -5    1.45    0.12 
   0   0  -5    1.37    0.12 
   0   0  -5    1.42    0.13 
   0   0   5    1.64    0.11 
   0   0   5    1.49    0.11 
   0   0   5    1.52    0.13 
   0   0   5    1.31    0.12 
  -1   0  -5   17.03    0.51 
  -1   0  -5   16.08    0.51 
  -1   0  -5   16.96    0.53 
  -1   0  -5   16.51    0.52 
  -1   0  -5   17.20    0.53 
   1   0   5   16.02    0.52 
   1   0   5   16.56    0.51 
   1   0   5   16.62    0.52 
   1   0   5   17.12    0.51 
  -2   0  -5    3.89    0.21 
  -2   0  -5    3.86    0.20 
  -2   0  -5    4.19    0.20 
  -2   0  -5    4.61    0.20 
  -2   0  -5    4.27    0.20 
   2   0   5    4.30    0.19 
   2   0   5    4.04    0.20 
   2   0   5    4.08    0.20 
   2   0   5    4.03    0.18 
   2   0   5    4.31    0.20 
  -3   0  -5   17.16    0.56 
  -3   0  -5   18.83    0.56 
  -3   0  -5   16.72    0.57 
  -3   0  -5   18.08    0.56 
   3   0   5   18.04    0.58 
   3   0   5   17.62    0.56 
   3   0   5   17.45    0.54 
   3   0   5   17.27    0.55 
  -4   0  -5    2.04    0.16 
  -4   0  -5    2.19    0.16 
  -4   0  -5    2.16    0.16 
   4   0   5    1.95    0.15 
   4   0   5    2.28    0.16 
   4   0   5    2.33    0.14 
   4   0   5    2.18    0.16 
  -5   0  -5    0.99    0.13 
  -5   0  -5    0.92    0.13 
  -5   0  -5    0.82    0.13 
   5   0   5    0.83    0.14 
   5   0   5    0.83    0.11 
   5   0   5    1.09    0.11 
   5   0   5    0.95    0.13 
  -6   0  -5   11.24    0.46 
  -6   0  -5   11.51    0.46 
  -6   0  -5   11.30    0.47 
   6   0   5   10.96    0.48 
   6   0   5   10.97    0.43 
   6   0   5   10.45    0.42 
  -7   0  -5    5.88    0.33 
  -7   0  -5    5.17    0.31 
  -7   0  -5    5.53    0.31 
   7   0   5    5.26    0.29 
   7   0   5    4.88    0.33 
   7   0   5    5.58    0.29 
  -8   0  -5    1.15    0.18 
  -8   0  -5    1.61    0.18 
  -8   0  -5    1.49    0.21 
   8   0   5    1.48    0.16 
   8   0   5    1.19    0.20 
  -9   0  -5    1.46    0.23 
  -9   0  -5    1.52    0.17 
   9   0   5    1.44    0.24 
   8  -1  -5    6.12    0.39 
   7  -1  -5   13.85    0.59 
  -7   1   5   13.47    0.62 
  -7   1   5   14.51    0.61 
   6  -1  -5    7.67    0.39 
   6  -1  -5    7.79    0.39 
  -6   1   5    7.55    0.41 
  -6   1   5    7.50    0.39 
   5  -1  -5    8.82    0.41 
   5  -1  -5    8.62    0.40 
  -5   1   5    9.25    0.41 
  -5   1   5    9.16    0.43 
   4  -1  -5   52.64    1.43 
   4  -1  -5   49.55    1.46 
   4  -1  -5   49.11    1.42 
  -4   1   5   49.63    1.46 
  -4   1   5   50.04    1.41 
   3  -1  -5   -0.04    0.05 
   3  -1  -5    0.03    0.06 
   3  -1  -5    0.06    0.06 
  -3   1   5    0.05    0.06 
  -3   1   5    0.03    0.05 
   2  -1  -5   30.78    0.90 
   2  -1  -5   31.76    0.90 
   2  -1  -5   29.61    0.92 
  -2   1   5   31.19    0.91 
  -2   1   5   31.33    0.89 
   1  -1  -5    0.53    0.09 
   1  -1  -5    0.40    0.08 
   1  -1  -5    0.60    0.09 
   1  -1  -5    0.43    0.09 
  -1   1   5    0.58    0.08 
  -1   1   5    0.61    0.10 
  -1   1   5    0.52    0.09 
   0  -1  -5    2.31    0.15 
   0  -1  -5    2.24    0.15 
   0  -1  -5    2.37    0.13 
   0  -1  -5    2.43    0.14 
   0  -1  -5    2.05    0.14 
   0   1   5    2.27    0.14 
   0   1   5    2.16    0.14 
   0   1   5    2.17    0.13 
   0   1   5    2.02    0.13 
  -1  -1  -5  104.87    2.75 
  -1  -1  -5  111.82    2.82 
  -1  -1  -5  110.69    2.75 
  -1  -1  -5  108.50    2.81 
  -1  -1  -5  105.20    2.74 
   1   1   5  108.01    2.74 
   1   1   5  111.16    2.73 
   1   1   5  105.56    2.80 
   1   1   5  108.85    2.81 
  -2  -1  -5  146.01    3.85 
  -2  -1  -5  150.05    3.85 
  -2  -1  -5  150.37    3.77 
  -2  -1  -5  154.83    3.76 
  -2  -1  -5  146.80    3.77 
   2   1   5  149.29    4.16 
   2   1   5  152.14    3.84 
   2   1   5  147.21    3.74 
   2   1   5  151.08    3.84 
  -3  -1  -5    6.30    0.27 
  -3  -1  -5    6.80    0.27 
  -3  -1  -5    7.11    0.27 
  -3  -1  -5    6.91    0.26 
   3   1   5    6.57    0.25 
   3   1   5    6.62    0.25 
   3   1   5    6.42    0.25 
   3   1   5    6.36    0.28 
   3   1   5    6.85    0.24 
  -4  -1  -5   29.64    0.86 
  -4  -1  -5   28.76    0.83 
  -4  -1  -5   28.60    0.83 
  -4  -1  -5   31.34    0.84 
   4   1   5   28.65    0.80 
   4   1   5   27.11    0.92 
   4   1   5   28.42    0.83 
   4   1   5   28.31    0.81 
  -5  -1  -5    2.27    0.16 
  -5  -1  -5    1.97    0.16 
  -5  -1  -5    2.22    0.17 
   5   1   5    1.93    0.18 
   5   1   5    2.13    0.15 
   5   1   5    2.41    0.15 
   5   1   5    2.57    0.14 
  -6  -1  -5    1.18    0.15 
  -6  -1  -5    0.80    0.12 
  -6  -1  -5    0.90    0.13 
   6   1   5    0.80    0.11 
   6   1   5    0.86    0.12 
   6   1   5    0.86    0.15 
  -7  -1  -5    0.79    0.14 
  -7  -1  -5    1.24    0.16 
  -7  -1  -5    0.86    0.15 
   7   1   5    1.14    0.18 
   7   1   5    1.12    0.14 
   7   1   5    1.07    0.12 
  -8  -1  -5    4.79    0.29 
  -8  -1  -5    3.77    0.27 
  -8  -1  -5    4.63    0.31 
   8   1   5    4.41    0.33 
   8   1   5    4.55    0.25 
  -9  -1  -5    0.08    0.10 
  -9  -1  -5    0.16    0.06 
   9   1   5    0.03    0.10 
   7  -2  -5    2.95    0.27 
  -7   2   5    3.06    0.28 
   6  -2  -5    1.45    0.20 
   6  -2  -5    0.68    0.15 
  -6   2   5    0.70    0.15 
  -6   2   5    0.85    0.15 
   5  -2  -5   13.35    0.55 
   5  -2  -5   14.26    0.55 
  -5   2   5   13.84    0.54 
  -5   2   5   13.24    0.56 
   4  -2  -5    3.83    0.25 
   4  -2  -5    3.65    0.25 
  -4   2   5    3.86    0.23 
  -4   2   5    3.77    0.25 
   3  -2  -5    0.71    0.12 
   3  -2  -5    0.66    0.11 
   3  -2  -5    0.85    0.13 
  -3   2   5    0.78    0.11 
  -3   2   5    0.71    0.12 
   2  -2  -5   26.32    0.82 
   2  -2  -5   26.88    0.80 
   2  -2  -5   26.25    0.80 
  -2   2   5   26.99    0.81 
  -2   2   5   26.88    0.78 
   1  -2  -5   38.57    1.02 
   1  -2  -5   36.64    1.05 
   1  -2  -5   34.59    1.05 
   1  -2  -5   36.64    1.03 
   1  -2  -5   37.03    1.03 
  -1   2   5   37.51    1.04 
  -1   2   5   37.92    1.01 
   0  -2  -5   33.04    0.91 
   0  -2  -5   33.70    0.93 
   0  -2  -5   34.17    0.90 
   0  -2  -5   30.49    0.90 
   0  -2  -5   33.65    0.92 
   0   2   5   31.57    0.91 
   0   2   5   32.90    0.91 
   0   2   5   32.82    0.89 
  -1  -2  -5   33.33    0.90 
  -1  -2  -5   33.64    0.93 
  -1  -2  -5   32.99    0.90 
  -1  -2  -5   33.96    0.92 
  -1  -2  -5   32.93    0.90 
   1   2   5   33.89    0.91 
   1   2   5   32.01    0.89 
   1   2   5   34.07    0.87 
   1   2   5   32.15    0.90 
  -2  -2  -5    9.77    0.32 
  -2  -2  -5    9.83    0.33 
  -2  -2  -5   10.07    0.33 
  -2  -2  -5    9.93    0.32 
  -2  -2  -5    9.33    0.32 
  -2  -2  -5   10.17    0.32 
   2   2   5   10.37    0.31 
   2   2   5   10.04    0.29 
   2   2   5    9.44    0.30 
   2   2   5   10.27    0.31 
   2   2   5    9.72    0.38 
  -3  -2  -5   55.51    1.50 
  -3  -2  -5   57.12    1.47 
  -3  -2  -5   55.70    1.47 
  -3  -2  -5   58.58    1.51 
  -3  -2  -5   58.35    1.47 
   3   2   5   56.26    1.66 
   3   2   5   56.61    1.47 
   3   2   5   55.49    1.42 
   3   2   5   56.12    1.47 
   3   2   5   53.81    1.44 
  -4  -2  -5   43.60    1.21 
  -4  -2  -5   43.35    1.18 
  -4  -2  -5   45.33    1.18 
  -4  -2  -5   43.95    1.18 
   4   2   5   44.71    1.17 
   4   2   5   43.01    1.15 
   4   2   5   44.56    1.12 
   4   2   5   43.23    1.34 
   4   2   5   42.89    1.17 
  -5  -2  -5    0.02    0.05 
  -5  -2  -5    0.23    0.07 
  -5  -2  -5    0.23    0.06 
  -5  -2  -5    0.09    0.03 
   5   2   5    0.04    0.05 
   5   2   5    0.18    0.04 
   5   2   5    0.22    0.09 
  -6  -2  -5   32.48    0.94 
  -6  -2  -5   31.30    0.95 
  -6  -2  -5   31.76    0.93 
   6   2   5   31.66    0.90 
   6   2   5   31.71    0.89 
   6   2   5   31.02    1.07 
  -7  -2  -5    1.23    0.16 
  -7  -2  -5    1.34    0.13 
  -7  -2  -5    1.35    0.15 
   7   2   5    1.51    0.22 
   7   2   5    1.36    0.13 
  -8  -2  -5   10.58    0.47 
  -8  -2  -5   11.04    0.46 
  -8  -2  -5   10.40    0.46 
   8   2   5   10.52    0.54 
  -9  -2  -5    3.03    0.22 
  -9  -2  -5    2.97    0.23 
  -9  -2  -5    2.51    0.25 
   9   2   5    3.25    0.31 
   7  -3  -5   16.54    0.70 
  -7   3   5   16.82    0.71 
   6  -3  -5    0.12    0.10 
   6  -3  -5    0.18    0.10 
  -6   3   5    0.21    0.11 
   5  -3  -5    1.85    0.19 
   5  -3  -5    1.58    0.20 
  -5   3   5    1.80    0.20 
  -5   3   5    1.83    0.17 
   4  -3  -5   11.88    0.48 
   4  -3  -5   10.76    0.47 
  -4   3   5   11.97    0.49 
  -4   3   5   12.46    0.46 
   3  -3  -5   12.18    0.47 
   3  -3  -5   12.13    0.47 
   3  -3  -5   12.39    0.48 
  -3   3   5   12.07    0.46 
  -3   3   5   12.42    0.44 
   2  -3  -5   10.95    0.43 
   2  -3  -5   12.03    0.43 
   2  -3  -5   11.00    0.42 
  -2   3   5   11.81    0.42 
  -2   3   5   11.69    0.40 
   1  -3  -5   28.85    0.87 
   1  -3  -5   29.82    0.84 
   1  -3  -5   28.91    0.84 
   1  -3  -5   29.07    0.84 
   1  -3  -5   30.41    0.86 
  -1   3   5   30.05    0.81 
  -1   3   5   28.33    0.84 
   0  -3  -5    2.93    0.16 
   0  -3  -5    3.30    0.16 
   0  -3  -5    3.22    0.17 
   0  -3  -5    3.04    0.16 
   0  -3  -5    3.07    0.15 
   0   3   5    2.91    0.14 
   0   3   5    3.11    0.13 
   0   3   5    2.82    0.15 
   0   3   5    3.02    0.14 
  -1  -3  -5   15.53    0.45 
  -1  -3  -5   15.40    0.47 
  -1  -3  -5   15.45    0.46 
  -1  -3  -5   14.61    0.45 
  -1  -3  -5   15.96    0.45 
   1   3   5   15.26    0.43 
   1   3   5   15.17    0.43 
   1   3   5   15.26    0.43 
   1   3   5   15.40    0.44 
   1   3   5   15.39    0.41 
  -2  -3  -5    2.39    0.11 
  -2  -3  -5    2.35    0.12 
  -2  -3  -5    2.22    0.12 
  -2  -3  -5    2.42    0.12 
  -2  -3  -5    2.39    0.12 
  -2  -3  -5    2.45    0.12 
   2   3   5    2.28    0.09 
   2   3   5    2.51    0.09 
  -3  -3  -5   69.73    1.75 
  -3  -3  -5   66.96    1.75 
  -3  -3  -5   68.44    1.79 
  -3  -3  -5   70.87    1.75 
  -3  -3  -5   67.65    1.75 
  -3  -3  -5   69.33    1.79 
   3   3   5   67.81    2.01 
  -4  -3  -5   18.06    0.51 
  -4  -3  -5   16.98    0.52 
  -4  -3  -5   17.62    0.51 
  -4  -3  -5   17.77    0.51 
  -4  -3  -5   17.68    0.53 
   4   3   5   17.38    0.64 
  -5  -3  -5    2.29    0.12 
  -5  -3  -5    2.21    0.14 
  -5  -3  -5    2.34    0.14 
  -5  -3  -5    2.14    0.14 
   5   3   5    2.17    0.09 
   5   3   5    2.32    0.20 
   5   3   5    2.22    0.09 
  -6  -3  -5   20.20    0.62 
  -6  -3  -5   20.41    0.63 
  -6  -3  -5   19.03    0.63 
   6   3   5   19.68    0.55 
   6   3   5   20.49    0.76 
  -7  -3  -5    0.16    0.05 
  -7  -3  -5   -0.01    0.05 
  -7  -3  -5    0.11    0.07 
   7   3   5    0.18    0.10 
  -8  -3  -5    0.03    0.06 
  -8  -3  -5    0.06    0.04 
  -8  -3  -5   -0.01    0.05 
   8   3   5    0.10    0.09 
  -9  -3  -5    2.50    0.21 
  -9  -3  -5    2.48    0.18 
  -9  -3  -5    2.22    0.23 
   9   3   5    2.60    0.28 
 -10  -3  -5    2.39    0.19 
  10   3   5    3.10    0.33 
   7  -4  -5    6.70    0.42 
  -7   4   5    6.41    0.38 
   6  -4  -5    8.58    0.46 
   6  -4  -5    8.38    0.45 
  -6   4   5    8.49    0.45 
   5  -4  -5   22.41    0.82 
   5  -4  -5   24.43    0.84 
  -5   4   5   24.21    0.84 
   4  -4  -5    2.51    0.21 
   4  -4  -5    2.21    0.21 
  -4   4   5    2.56    0.21 
   3  -4  -5   12.40    0.48 
   3  -4  -5   12.70    0.48 
  -3   4   5   12.26    0.44 
  -3   4   5   12.17    0.47 
   2  -4  -5   13.08    0.46 
   2  -4  -5   13.17    0.46 
   2  -4  -5   11.75    0.47 
  -2   4   5   12.56    0.42 
  -2   4   5   12.08    0.44 
   1  -4  -5   18.63    0.59 
   1  -4  -5   19.37    0.61 
   1  -4  -5   19.48    0.59 
   1  -4  -5   18.31    0.59 
   1  -4  -5   18.05    0.61 
  -1   4   5   19.44    0.55 
  -1   4   5   19.03    0.58 
   0  -4  -5   28.62    0.82 
   0  -4  -5   29.77    0.82 
   0  -4  -5   30.20    0.84 
   0  -4  -5   27.69    0.84 
   0  -4  -5   30.59    0.83 
   0   4   5   29.82    0.81 
   0   4   5   29.45    0.77 
   0   4   5   27.67    0.79 
   0   4   5   29.11    0.81 
  -1  -4  -5    1.65    0.11 
  -1  -4  -5    1.49    0.11 
  -1  -4  -5    1.55    0.10 
  -1  -4  -5    1.65    0.10 
  -1  -4  -5    1.69    0.09 
   1   4   5    1.55    0.07 
   1   4   5    1.74    0.07 
  -2  -4  -5    7.57    0.23 
  -2  -4  -5    7.52    0.24 
  -2  -4  -5    7.50    0.25 
  -2  -4  -5    7.58    0.25 
  -2  -4  -5    7.21    0.24 
  -2  -4  -5    7.90    0.24 
  -3  -4  -5   25.99    0.69 
  -3  -4  -5   26.96    0.68 
  -3  -4  -5   26.13    0.68 
  -3  -4  -5   25.05    0.69 
  -3  -4  -5   26.50    0.71 
  -3  -4  -5   26.47    0.71 
   3   4   5   25.32    0.87 
  -4  -4  -5    5.21    0.19 
  -4  -4  -5    5.13    0.18 
  -4  -4  -5    5.06    0.17 
  -4  -4  -5    5.06    0.19 
  -4  -4  -5    4.91    0.18 
  -4  -4  -5    5.01    0.18 
   4   4   5    4.26    0.27 
  -5  -4  -5   26.02    0.73 
  -5  -4  -5   26.75    0.75 
  -5  -4  -5   26.17    0.73 
   5   4   5   26.68    0.92 
  -6  -4  -5   31.65    0.89 
  -6  -4  -5   31.66    0.89 
  -6  -4  -5   32.16    0.92 
   6   4   5   30.96    1.09 
  -7  -4  -5    5.96    0.28 
  -7  -4  -5    6.13    0.28 
  -7  -4  -5    6.24    0.27 
   7   4   5    6.19    0.38 
  -8  -4  -5    0.19    0.05 
  -8  -4  -5    0.15    0.08 
  -8  -4  -5    0.34    0.09 
   8   4   5    0.04    0.10 
  -9  -4  -5    5.66    0.31 
  -9  -4  -5    5.44    0.28 
  -9  -4  -5    5.84    0.31 
   9   4   5    5.52    0.41 
 -10  -4  -5    0.45    0.12 
  10   4   5    0.53    0.19 
   6  -5  -5    0.49    0.16 
   6  -5  -5    0.46    0.12 
   5  -5  -5    2.45    0.25 
   5  -5  -5    2.17    0.21 
  -5   5   5    2.50    0.23 
   4  -5  -5    0.04    0.06 
   4  -5  -5    0.26    0.12 
  -4   5   5    0.23    0.10 
   3  -5  -5   44.86    1.30 
   3  -5  -5   44.57    1.29 
  -3   5   5   42.62    1.28 
   2  -5  -5    2.92    0.21 
   2  -5  -5    3.12    0.20 
  -2   5   5    3.17    0.19 
   1  -5  -5    0.02    0.02 
   1  -5  -5    0.13    0.07 
   1  -5  -5    0.02    0.04 
   1  -5  -5    0.04    0.05 
  -1   5   5    0.01    0.02 
  -1   5   5    0.02    0.04 
   0  -5  -5   -0.04    0.03 
   0  -5  -5   -0.01    0.02 
   0  -5  -5    0.06    0.02 
   0  -5  -5    0.00    0.04 
   0  -5  -5    0.03    0.04 
   0   5   5    0.00    0.02 
   0   5   5    0.02    0.04 
   0   5   5   -0.01    0.02 
  -1  -5  -5    2.50    0.12 
  -1  -5  -5    2.42    0.13 
  -1  -5  -5    2.36    0.12 
  -1  -5  -5    2.40    0.13 
  -1  -5  -5    2.26    0.13 
  -2  -5  -5    0.78    0.07 
  -2  -5  -5    0.69    0.06 
  -2  -5  -5    0.77    0.05 
  -2  -5  -5    0.75    0.06 
  -2  -5  -5    0.81    0.05 
  -3  -5  -5    0.40    0.04 
  -3  -5  -5    0.44    0.04 
   3   5   5    0.44    0.11 
  -4  -5  -5    2.25    0.10 
  -4  -5  -5    2.28    0.09 
  -4  -5  -5    2.45    0.09 
  -4  -5  -5    2.36    0.09 
   4   5   5    2.39    0.20 
  -5  -5  -5    4.31    0.16 
  -5  -5  -5    4.33    0.16 
  -5  -5  -5    4.22    0.17 
  -5  -5  -5    4.49    0.17 
   5   5   5    4.58    0.30 
  -6  -5  -5    2.98    0.15 
  -6  -5  -5    2.79    0.15 
  -6  -5  -5    2.86    0.15 
   6   5   5    2.67    0.24 
  -7  -5  -5    5.58    0.23 
  -7  -5  -5    5.21    0.24 
  -7  -5  -5    5.13    0.24 
   7   5   5    4.65    0.33 
  -8  -5  -5   11.56    0.44 
  -8  -5  -5   10.71    0.41 
  -8  -5  -5   11.13    0.42 
   8   5   5   11.56    0.58 
  -9  -5  -5    1.90    0.17 
  -9  -5  -5    2.02    0.16 
  -9  -5  -5    1.86    0.13 
   9   5   5    2.36    0.28 
   5  -6  -5    6.63    0.38 
   5  -6  -5    6.09    0.39 
   4  -6  -5    9.50    0.47 
   4  -6  -5   10.10    0.46 
   3  -6  -5    9.51    0.44 
   3  -6  -5    9.55    0.43 
  -3   6   5    9.95    0.41 
   2  -6  -5   10.68    0.44 
   2  -6  -5   11.36    0.44 
  -2   6   5   10.93    0.41 
   1  -6  -5   16.22    0.55 
   1  -6  -5   15.59    0.54 
  -1   6   5   16.97    0.51 
   0  -6  -5   14.10    0.47 
   0  -6  -5   13.79    0.46 
   0  -6  -5   13.82    0.46 
   0   6   5   14.24    0.40 
  -1  -6  -5    3.24    0.15 
  -1  -6  -5    3.44    0.17 
  -1  -6  -5    3.10    0.14 
  -1  -6  -5    3.16    0.16 
  -1  -6  -5    3.11    0.16 
  -2  -6  -5   28.39    0.76 
  -2  -6  -5   27.21    0.76 
  -2  -6  -5   26.61    0.74 
  -2  -6  -5   28.61    0.74 
  -2  -6  -5   27.30    0.74 
  -3  -6  -5   16.05    0.43 
   3   6   5   15.85    0.64 
   4   6   5    6.87    0.38 
  -5  -6  -5    4.84    0.16 
   5   6   5    4.81    0.32 
  -6  -6  -5   11.07    0.35 
  -6  -6  -5   10.88    0.34 
   6   6   5   11.12    0.53 
  -7  -6  -5    2.68    0.15 
  -7  -6  -5    2.32    0.15 
   7   6   5    2.69    0.26 
  -8  -6  -5    7.99    0.33 
  -8  -6  -5    8.15    0.33 
   8   6   5    8.08    0.48 
  -9  -6  -5    4.02    0.23 
  -9  -6  -5    3.89    0.23 
   9   6   5    3.92    0.35 
   5  -7  -5    0.01    0.10 
   5  -7  -5    0.15    0.07 
   4  -7  -5    1.36    0.21 
   4  -7  -5    1.32    0.18 
   3  -7  -5   22.04    0.77 
   3  -7  -5   21.53    0.78 
   2  -7  -5    4.76    0.29 
   2  -7  -5    5.26    0.28 
   1  -7  -5    3.14    0.21 
   1  -7  -5    3.14    0.19 
   0  -7  -5   11.40    0.42 
   0  -7  -5   12.27    0.42 
  -1  -7  -5    9.50    0.33 
  -1  -7  -5    9.04    0.33 
  -2  -7  -5    5.21    0.20 
  -2  -7  -5    5.66    0.20 
  -2  -7  -5    5.79    0.21 
  -3  -7  -5    0.11    0.02 
   5   7   5    1.40    0.22 
  -6  -7  -5    7.45    0.23 
   6   7   5    7.44    0.43 
  -7  -7  -5    1.02    0.09 
   7   7   5    1.38    0.24 
  -8  -7  -5   12.30    0.43 
   8   7   5   13.39    0.65 
  -9  -7  -5    4.03    0.22 
   9   7   5    3.84    0.34 
   4  -8  -5    0.55    0.11 
   4  -8  -5    0.17    0.12 
   3  -8  -5    8.13    0.40 
   3  -8  -5    7.54    0.42 
   2  -8  -5    1.06    0.17 
   2  -8  -5    1.24    0.13 
   1  -8  -5    0.14    0.08 
   1  -8  -5    0.17    0.06 
   0  -8  -5    0.05    0.06 
   0  -8  -5    0.13    0.04 
  -1  -8  -5    8.95    0.33 
  -1  -8  -5    8.41    0.33 
  -2  -8  -5    0.64    0.06 
  -2  -8  -5    0.60    0.08 
  -3  -8  -5   17.97    0.50 
   5   8   5    6.36    0.40 
   6   8   5    2.21    0.26 
  -7  -8  -5    1.14    0.08 
   7   8   5    1.25    0.22 
  -8  -8  -5    0.32    0.07 
   8   8   5    0.64    0.17 
   3  -9  -5   17.02    0.67 
   3  -9  -5   16.84    0.70 
   2  -9  -5    0.54    0.13 
   2  -9  -5    0.58    0.10 
   1  -9  -5   11.49    0.46 
   1  -9  -5   10.99    0.47 
   0  -9  -5    4.95    0.28 
   0  -9  -5    5.63    0.27 
  -1  -9  -5    1.17    0.13 
  -1  -9  -5    1.05    0.09 
  -2  -9  -5    2.60    0.16 
  -3  -9  -5    0.91    0.09 
  -4  -9  -5    0.04    0.02 
   6   9   5   14.21    0.69 
   7   9   5    2.53    0.29 
  -8  -9  -5    0.52    0.07 
   8   9   5    0.62    0.17 
   1 -10  -5    0.02    0.06 
   1 -10  -5   -0.01    0.04 
   0 -10  -5    0.57    0.09 
   0 -10  -5    0.68    0.12 
  -1 -10  -5   10.17    0.41 
  -2 -10  -5    0.57    0.10 
  -3 -10  -5    1.90    0.13 
  -4 -10  -5    0.11    0.04 
   7  10   5    3.93    0.36 
  -1 -11  -5    0.27    0.08 
  -2 -11  -5    3.56    0.21 
  -3 -11  -5    0.71    0.10 
  -4 -11  -5    1.67    0.11 
  -5 -11  -5    0.04    0.03 
  -3  -8   6   12.16    0.55 
  -3  -8   6   13.13    0.58 
  -2  -8   6    8.69    0.44 
  -2  -8   6    8.61    0.46 
  -1  -8   6    6.74    0.37 
  -1  -8   6    6.26    0.39 
   0  -8   6    2.40    0.26 
   0  -8   6    2.37    0.22 
   1  -8   6    5.44    0.37 
   1  -8   6    5.60    0.35 
  -5  -7   6    0.11    0.09 
  -5  -7   6    0.00    0.04 
  -4  -7   6    0.26    0.08 
  -4  -7   6    0.47    0.14 
  -3  -7   6    0.51    0.12 
  -3  -7   6    0.54    0.12 
  -3  -7   6    0.51    0.14 
   2   7  -6    2.13    0.18 
  -2  -7   6    2.19    0.20 
  -2  -7   6    1.99    0.25 
  -2  -7   6    2.21    0.21 
   1   7  -6    4.90    0.28 
  -1  -7   6    4.17    0.30 
  -1  -7   6    4.06    0.28 
  -1  -7   6    4.06    0.29 
   0   7  -6    9.30    0.43 
   0  -7   6    8.72    0.46 
   0  -7   6    9.54    0.48 
   0  -7   6   10.20    0.47 
  -1   7  -6    0.31    0.09 
   1  -7   6    0.27    0.09 
   1  -7   6    0.26    0.12 
   1  -7   6    0.11    0.08 
  -2   7  -6    7.14    0.39 
   2  -7   6    7.11    0.40 
   2  -7   6    6.63    0.40 
  -3   7  -6    3.15    0.27 
   3  -7   6    2.37    0.23 
   3  -7   6    2.95    0.29 
  -6  -6   6    6.81    0.40 
  -6  -6   6    6.75    0.38 
  -5  -6   6    3.99    0.28 
  -5  -6   6    4.35    0.31 
   4   6  -6   12.55    0.49 
  -4  -6   6   12.49    0.53 
  -4  -6   6   11.93    0.54 
  -4  -6   6   12.23    0.54 
   3   6  -6   12.39    0.48 
  -3  -6   6   11.68    0.51 
  -3  -6   6   12.30    0.54 
  -3  -6   6   11.56    0.52 
   2   6  -6    0.04    0.06 
  -2  -6   6    0.01    0.06 
  -2  -6   6    0.28    0.10 
  -2  -6   6    0.13    0.10 
   1   6  -6   12.36    0.51 
   1   6  -6   12.85    0.50 
  -1  -6   6   12.82    0.55 
  -1  -6   6   12.57    0.53 
  -1  -6   6   12.96    0.53 
   0   6  -6    0.08    0.09 
   0   6  -6    0.05    0.08 
   0  -6   6    0.16    0.10 
   0  -6   6    0.30    0.11 
   0  -6   6    0.25    0.09 
  -1   6  -6    0.19    0.09 
  -1   6  -6    0.09    0.07 
   1  -6   6   -0.04    0.05 
   1  -6   6    0.17    0.10 
   1  -6   6    0.11    0.08 
  -2   6  -6   16.74    0.64 
  -2   6  -6   15.87    0.65 
   2  -6   6   16.52    0.66 
   2  -6   6   16.00    0.67 
   2  -6   6   16.25    0.65 
  -3   6  -6    7.11    0.39 
  -3   6  -6    6.40    0.39 
   3  -6   6    6.95    0.40 
   3  -6   6    6.65    0.38 
   3  -6   6    6.32    0.39 
  -4   6  -6    5.78    0.35 
  -4   6  -6    4.66    0.33 
   4  -6   6    4.74    0.34 
   4  -6   6    4.28    0.32 
   4  -6   6    4.25    0.32 
  -5   6  -6   -0.06    0.05 
  -5   6  -6   -0.10    0.08 
   5  -6   6   -0.02    0.07 
  -7  -5   6   -0.03    0.05 
  -7  -5   6    0.13    0.10 
  -6  -5   6    2.95    0.24 
  -6  -5   6    2.68    0.25 
   5   5  -6    2.11    0.18 
  -5  -5   6    1.64    0.19 
  -5  -5   6    2.04    0.19 
  -5  -5   6    2.07    0.23 
   4   5  -6    1.77    0.17 
  -4  -5   6    1.84    0.19 
  -4  -5   6    1.74    0.18 
  -4  -5   6    1.82    0.22 
   3   5  -6    0.13    0.08 
   3   5  -6    0.05    0.07 
  -3  -5   6    0.01    0.08 
  -3  -5   6   -0.02    0.06 
  -3  -5   6    0.03    0.06 
   2   5  -6    8.96    0.39 
   2   5  -6    8.29    0.39 
  -2  -5   6    9.20    0.42 
  -2  -5   6    8.70    0.41 
  -2  -5   6    8.92    0.41 
   1   5  -6    4.52    0.28 
   1   5  -6    4.94    0.27 
  -1  -5   6    4.28    0.28 
  -1  -5   6    4.37    0.27 
  -1  -5   6    3.86    0.28 
   0   5  -6    1.35    0.18 
   0   5  -6    1.30    0.17 
   0  -5   6    1.50    0.19 
   0  -5   6    1.18    0.18 
   0  -5   6    1.10    0.16 
  -1   5  -6   16.10    0.60 
  -1   5  -6   15.72    0.61 
   1  -5   6   16.63    0.61 
   1  -5   6   14.92    0.61 
   1  -5   6   16.30    0.61 
  -2   5  -6    5.51    0.33 
  -2   5  -6    6.03    0.35 
   2  -5   6    6.29    0.36 
   2  -5   6    6.03    0.34 
   2  -5   6    5.76    0.34 
  -3   5  -6    0.14    0.08 
  -3   5  -6    0.20    0.11 
   3  -5   6    0.13    0.09 
   3  -5   6    0.13    0.09 
   3  -5   6   -0.02    0.08 
  -4   5  -6    1.09    0.18 
  -4   5  -6    0.99    0.18 
   4  -5   6    1.27    0.20 
   4  -5   6    0.97    0.18 
   4  -5   6    1.00    0.18 
  -5   5  -6    9.73    0.51 
  -5   5  -6    9.67    0.49 
   5  -5   6    9.95    0.50 
   5  -5   6    9.84    0.51 
  -6   5  -6    5.22    0.37 
   6  -5   6    5.85    0.38 
  -7  -4   6   13.24    0.59 
  -7  -4   6   13.04    0.59 
   6   4  -6    7.01    0.36 
  -6  -4   6    7.38    0.41 
  -6  -4   6    7.88    0.41 
  -6  -4   6    7.16    0.41 
   5   4  -6    7.04    0.34 
  -5  -4   6    7.13    0.37 
  -5  -4   6    6.54    0.37 
  -5  -4   6    7.27    0.38 
   4   4  -6    3.62    0.23 
   4   4  -6    3.66    0.25 
  -4  -4   6    3.65    0.25 
  -4  -4   6    3.35    0.25 
  -4  -4   6    3.68    0.27 
   3   4  -6    9.47    0.40 
   3   4  -6    9.89    0.42 
  -3  -4   6    9.61    0.43 
  -3  -4   6    9.51    0.44 
  -3  -4   6    8.81    0.42 
   2   4  -6    0.92    0.15 
   2   4  -6    0.63    0.10 
   2   4  -6    0.48    0.11 
  -2  -4   6    0.70    0.14 
  -2  -4   6    0.80    0.15 
  -2  -4   6    0.86    0.14 
   1   4  -6   18.76    0.62 
   1   4  -6   18.55    0.65 
   1   4  -6   18.48    0.63 
  -1  -4   6   18.34    0.64 
  -1  -4   6   17.58    0.64 
  -1  -4   6   17.69    0.66 
   0   4  -6    1.97    0.18 
   0   4  -6    1.91    0.19 
   0   4  -6    2.62    0.18 
   0  -4   6    2.17    0.20 
   0  -4   6    1.88    0.18 
   0  -4   6    2.49    0.20 
  -1   4  -6    2.40    0.21 
  -1   4  -6    2.76    0.21 
  -1   4  -6    2.22    0.19 
   1  -4   6    2.30    0.21 
   1  -4   6    2.10    0.20 
   1  -4   6    2.75    0.21 
  -2   4  -6    6.96    0.35 
  -2   4  -6    8.06    0.36 
  -2   4  -6    7.24    0.37 
   2  -4   6    7.18    0.36 
   2  -4   6    7.03    0.35 
   2  -4   6    6.81    0.37 
  -3   4  -6    0.09    0.09 
  -3   4  -6    0.05    0.07 
  -3   4  -6    0.02    0.08 
   3  -4   6    0.01    0.07 
   3  -4   6    0.01    0.08 
   3  -4   6    0.08    0.09 
  -4   4  -6    3.10    0.25 
  -4   4  -6    2.60    0.25 
  -4   4  -6    2.93    0.25 
   4  -4   6    2.85    0.24 
   4  -4   6    2.75    0.24 
   4  -4   6    2.92    0.25 
  -5   4  -6    5.83    0.36 
  -5   4  -6    5.34    0.36 
  -5   4  -6    5.75    0.35 
   5  -4   6    5.43    0.36 
   5  -4   6    5.95    0.36 
  -6   4  -6    7.27    0.43 
  -6   4  -6    8.35    0.44 
   6  -4   6    6.88    0.42 
   6  -4   6    7.35    0.42 
  -7   4  -6    3.17    0.29 
   7  -4   6    3.10    0.29 
   7  -4   6    2.97    0.23 
   7   3  -6    0.21    0.10 
   7   3  -6    0.11    0.06 
  -7  -3   6    0.01    0.09 
   6   3  -6    0.63    0.13 
  -6  -3   6    0.21    0.11 
  -6  -3   6    0.44    0.14 
   5   3  -6   19.42    0.70 
   5   3  -6   19.48    0.68 
  -5  -3   6   19.94    0.71 
  -5  -3   6   18.59    0.72 
  -5  -3   6   18.78    0.70 
   4   3  -6   17.91    0.63 
   4   3  -6   17.49    0.63 
   4   3  -6   17.97    0.65 
  -4  -3   6   18.48    0.65 
  -4  -3   6   17.52    0.65 
  -4  -3   6   17.88    0.67 
   3   3  -6   16.48    0.57 
   3   3  -6   16.63    0.60 
   3   3  -6   15.89    0.57 
   3   3  -6   18.04    0.56 
  -3  -3   6   15.17    0.58 
  -3  -3   6   14.90    0.59 
  -3  -3   6   15.30    0.58 
   2   3  -6    1.77    0.16 
   2   3  -6    1.54    0.17 
   2   3  -6    1.63    0.15 
   2   3  -6    1.52    0.09 
  -2  -3   6    1.44    0.17 
  -2  -3   6    1.66    0.17 
  -2  -3   6    1.81    0.17 
   1   3  -6    5.47    0.27 
   1   3  -6    5.10    0.28 
   1   3  -6    5.13    0.27 
  -1  -3   6    5.18    0.28 
  -1  -3   6    5.24    0.28 
  -1  -3   6    5.14    0.29 
   0   3  -6   10.10    0.42 
   0   3  -6    9.86    0.40 
   0   3  -6   10.58    0.40 
   0  -3   6   10.04    0.42 
   0  -3   6    9.92    0.40 
   0  -3   6    9.82    0.41 
  -1   3  -6   57.70    1.61 
  -1   3  -6   56.94    1.57 
  -1   3  -6   54.46    1.56 
   1  -3   6   53.42    1.60 
   1  -3   6   58.16    1.57 
   1  -3   6   56.93    1.57 
  -2   3  -6    5.89    0.29 
  -2   3  -6    5.61    0.31 
  -2   3  -6    6.48    0.32 
   2  -3   6    6.00    0.30 
   2  -3   6    5.65    0.30 
   2  -3   6    5.87    0.31 
  -3   3  -6   17.40    0.65 
  -3   3  -6   17.29    0.63 
  -3   3  -6   18.40    0.63 
   3  -3   6   17.71    0.63 
   3  -3   6   16.89    0.64 
   3  -3   6   17.26    0.62 
   3  -3   6   17.38    0.54 
  -4   3  -6    0.38    0.11 
  -4   3  -6    0.39    0.12 
  -4   3  -6    0.56    0.13 
   4  -3   6    0.57    0.13 
   4  -3   6    0.36    0.11 
   4  -3   6    0.48    0.12 
   4  -3   6    0.57    0.10 
  -5   3  -6    2.87    0.24 
  -5   3  -6    2.59    0.24 
  -5   3  -6    2.23    0.24 
   5  -3   6    2.65    0.20 
   5  -3   6    2.57    0.24 
   5  -3   6    2.59    0.21 
   5  -3   6    2.67    0.23 
  -6   3  -6    9.11    0.47 
  -6   3  -6    9.12    0.46 
  -6   3  -6    8.87    0.48 
   6  -3   6    9.33    0.45 
   6  -3   6    8.56    0.45 
   6  -3   6    9.39    0.43 
  -7   3  -6   16.49    0.68 
  -7   3  -6   14.34    0.65 
   7  -3   6   14.42    0.64 
   7  -3   6   16.05    0.66 
   7   2  -6    3.45    0.26 
  -7  -2   6    3.37    0.30 
   6   2  -6    1.40    0.19 
  -6  -2   6    1.49    0.22 
  -6  -2   6    2.00    0.22 
   5   2  -6   -0.06    0.07 
   5   2  -6   -0.09    0.07 
  -5  -2   6    0.08    0.08 
  -5  -2   6    0.05    0.07 
   4   2  -6   32.05    1.03 
   4   2  -6   34.04    1.01 
   4   2  -6   32.69    0.99 
  -4  -2   6   32.71    1.02 
  -4  -2   6   32.47    1.01 
  -4  -2   6   32.23    1.05 
   3   2  -6    0.81    0.12 
   3   2  -6    0.67    0.12 
   3   2  -6    0.90    0.14 
  -3  -2   6    0.63    0.11 
  -3  -2   6    0.73    0.13 
  -3  -2   6    0.69    0.12 
   2   2  -6    9.89    0.41 
   2   2  -6   10.61    0.40 
   2   2  -6    9.61    0.40 
  -2  -2   6    9.97    0.40 
  -2  -2   6    9.79    0.40 
  -2  -2   6    9.89    0.42 
   1   2  -6    1.95    0.18 
   1   2  -6    2.28    0.18 
   1   2  -6    2.31    0.17 
  -1  -2   6    2.13    0.17 
  -1  -2   6    2.16    0.17 
  -1  -2   6    2.28    0.18 
   0   2  -6    0.48    0.10 
   0   2  -6    0.51    0.11 
   0   2  -6    0.54    0.10 
   0  -2   6    0.43    0.10 
   0  -2   6    0.57    0.11 
   0  -2   6    0.37    0.08 
  -1   2  -6    0.89    0.12 
  -1   2  -6    0.73    0.13 
  -1   2  -6    0.81    0.12 
   1  -2   6    1.14    0.13 
   1  -2   6    1.04    0.14 
   1  -2   6    1.10    0.12 
  -2   2  -6    0.38    0.10 
  -2   2  -6    0.28    0.08 
  -2   2  -6    0.33    0.10 
   2  -2   6    0.18    0.07 
   2  -2   6    0.21    0.08 
   2  -2   6    0.25    0.08 
  -3   2  -6    8.87    0.38 
  -3   2  -6    8.98    0.38 
  -3   2  -6    8.44    0.39 
   3  -2   6    9.03    0.38 
   3  -2   6    8.66    0.31 
   3  -2   6    8.01    0.37 
   3  -2   6    9.02    0.37 
  -4   2  -6    3.14    0.23 
  -4   2  -6    2.92    0.22 
  -4   2  -6    2.88    0.23 
   4  -2   6    3.26    0.21 
   4  -2   6    2.66    0.22 
   4  -2   6    3.15    0.19 
   4  -2   6    3.06    0.22 
  -5   2  -6    3.24    0.24 
  -5   2  -6    2.89    0.24 
  -5   2  -6    2.93    0.26 
   5  -2   6    3.59    0.23 
   5  -2   6    3.26    0.24 
   5  -2   6    3.10    0.24 
   5  -2   6    3.73    0.23 
  -6   2  -6    0.95    0.17 
  -6   2  -6    1.15    0.17 
  -6   2  -6    1.05    0.18 
   6  -2   6    1.14    0.17 
   6  -2   6    1.08    0.17 
   6  -2   6    1.27    0.18 
  -7   2  -6    0.96    0.19 
  -7   2  -6    1.07    0.20 
  -7   2  -6    1.06    0.18 
   7  -2   6    1.10    0.17 
   7  -2   6    0.67    0.14 
   7  -2   6    1.16    0.18 
  -8   2  -6    2.95    0.30 
  -8   2  -6    3.15    0.26 
   8  -2   6    2.97    0.26 
   8  -2   6    3.14    0.28 
   7   1  -6    0.04    0.09 
  -7  -1   6    0.08    0.07 
  -7  -1   6   -0.01    0.09 
   6   1  -6    0.07    0.09 
  -6  -1   6    0.08    0.09 
  -6  -1   6    0.22    0.12 
   5   1  -6   10.55    0.45 
   5   1  -6   10.50    0.44 
   5   1  -6    9.52    0.46 
  -5  -1   6   10.16    0.47 
  -5  -1   6   10.13    0.46 
   4   1  -6   14.31    0.53 
   4   1  -6   13.71    0.54 
   4   1  -6   14.57    0.52 
  -4  -1   6   13.81    0.53 
  -4  -1   6   13.12    0.55 
   3   1  -6   16.42    0.59 
   3   1  -6   15.61    0.56 
   3   1  -6   16.28    0.56 
  -3  -1   6   15.45    0.55 
  -3  -1   6   15.93    0.56 
  -3  -1   6   15.57    0.58 
   2   1  -6   60.91    1.64 
   2   1  -6   59.68    1.68 
   2   1  -6   60.11    1.64 
  -2  -1   6   58.70    1.63 
  -2  -1   6   58.08    1.63 
  -2  -1   6   61.54    1.68 
   1   1  -6    9.03    0.36 
   1   1  -6    9.24    0.39 
   1   1  -6    9.53    0.38 
  -1  -1   6    9.73    0.39 
  -1  -1   6    9.10    0.37 
  -1  -1   6    9.98    0.37 
   0   1  -6    0.14    0.07 
   0   1  -6    0.16    0.03 
   0   1  -6    0.19    0.07 
   0   1  -6    0.18    0.08 
   0  -1   6    0.11    0.06 
   0  -1   6    0.24    0.08 
   0  -1   6    0.16    0.06 
  -1   1  -6    2.54    0.18 
  -1   1  -6    2.71    0.18 
   1  -1   6    2.71    0.18 
   1  -1   6    2.47    0.17 
   1  -1   6    2.60    0.17 
  -2   1  -6   12.91    0.47 
  -2   1  -6   13.83    0.47 
  -2   1  -6   12.66    0.48 
   2  -1   6   13.07    0.45 
   2  -1   6   12.85    0.41 
   2  -1   6   13.37    0.48 
   2  -1   6   13.09    0.46 
  -3   1  -6   47.35    1.35 
  -3   1  -6   49.15    1.40 
  -3   1  -6   47.73    1.35 
   3  -1   6   48.55    1.40 
   3  -1   6   48.29    1.38 
   3  -1   6   48.96    1.34 
   3  -1   6   47.96    1.34 
  -4   1  -6    1.75    0.18 
  -4   1  -6    1.68    0.16 
  -4   1  -6    1.89    0.18 
   4  -1   6    1.84    0.15 
   4  -1   6    1.78    0.17 
   4  -1   6    1.71    0.15 
   4  -1   6    1.64    0.16 
  -5   1  -6    0.48    0.12 
  -5   1  -6    0.73    0.13 
  -5   1  -6    0.98    0.16 
   5  -1   6    0.64    0.12 
   5  -1   6    0.65    0.10 
   5  -1   6    0.76    0.13 
   5  -1   6    0.68    0.12 
  -6   1  -6   21.12    0.75 
  -6   1  -6   21.16    0.75 
  -6   1  -6   21.32    0.77 
   6  -1   6   20.70    0.74 
   6  -1   6   20.64    0.77 
   6  -1   6   21.16    0.72 
  -7   1  -6    2.92    0.24 
  -7   1  -6    2.58    0.26 
  -7   1  -6    2.63    0.26 
   7  -1   6    2.75    0.22 
   7  -1   6    2.89    0.22 
   7  -1   6    3.16    0.26 
  -8   1  -6    5.86    0.39 
  -8   1  -6    5.77    0.36 
   8  -1   6    6.47    0.40 
   8  -1   6    6.16    0.34 
   7   0  -6    4.04    0.30 
  -7   0   6    3.35    0.30 
  -7   0   6    3.58    0.29 
   6   0  -6    3.08    0.25 
  -6   0   6    3.19    0.27 
  -6   0   6    3.43    0.29 
   5   0  -6    1.68    0.19 
   5   0  -6    1.57    0.20 
   5   0  -6    1.54    0.21 
  -5   0   6    1.76    0.23 
  -5   0   6    1.27    0.18 
   4   0  -6    6.78    0.33 
   4   0  -6    6.73    0.36 
   4   0  -6    6.91    0.34 
  -4   0   6    7.25    0.34 
  -4   0   6    7.16    0.36 
   3   0  -6    0.51    0.10 
   3   0  -6    0.56    0.11 
   3   0  -6    0.76    0.14 
  -3   0   6    0.46    0.09 
  -3   0   6    1.03    0.14 
   2   0  -6    0.26    0.07 
   2   0  -6    0.45    0.11 
   2   0  -6    0.26    0.08 
  -2   0   6    0.19    0.07 
  -2   0   6    0.34    0.09 
  -2   0   6    0.26    0.07 
   1   0  -6    0.31    0.08 
   1   0  -6    0.45    0.10 
   1   0  -6    0.40    0.09 
  -1   0   6    0.49    0.08 
  -1   0   6    0.48    0.09 
  -1   0   6    0.53    0.09 
   0   0  -6  118.70    3.10 
   0   0  -6  117.01    3.09 
   0   0  -6  119.87    3.17 
   0   0   6  125.86    3.09 
   0   0   6  116.46    3.16 
   0   0   6  126.15    3.09 
  -1   0  -6   34.98    1.00 
  -1   0  -6   35.44    1.00 
  -1   0  -6   35.89    1.03 
  -1   0  -6   35.20    1.03 
   1   0   6   35.21    1.02 
   1   0   6   35.49    0.99 
   1   0   6   35.66    1.00 
  -2   0  -6    4.00    0.20 
  -2   0  -6    4.24    0.22 
  -2   0  -6    3.86    0.21 
  -2   0  -6    3.81    0.21 
   2   0   6    4.01    0.18 
   2   0   6    3.99    0.21 
   2   0   6    4.30    0.21 
   2   0   6    3.93    0.19 
  -3   0  -6    1.88    0.15 
  -3   0  -6    2.10    0.16 
  -3   0  -6    1.80    0.15 
   3   0   6    2.17    0.15 
   3   0   6    2.05    0.15 
   3   0   6    1.56    0.13 
   3   0   6    2.12    0.14 
  -4   0  -6   14.45    0.51 
  -4   0  -6   14.08    0.52 
  -4   0  -6   14.66    0.51 
   4   0   6   14.64    0.48 
   4   0   6   13.96    0.50 
   4   0   6   14.41    0.52 
   4   0   6   14.47    0.49 
  -5   0  -6   33.06    1.00 
  -5   0  -6   32.65    1.02 
  -5   0  -6   31.42    0.99 
   5   0   6   33.75    0.99 
   5   0   6   34.29    0.95 
   5   0   6   32.11    1.06 
   5   0   6   32.74    0.97 
  -6   0  -6    0.39    0.11 
  -6   0  -6    0.35    0.10 
  -6   0  -6    0.23    0.09 
   6   0   6    0.25    0.09 
   6   0   6    0.39    0.11 
   6   0   6    0.34    0.09 
  -7   0  -6    5.04    0.32 
  -7   0  -6    5.27    0.32 
  -7   0  -6    6.32    0.33 
   7   0   6    5.52    0.34 
   7   0   6    5.13    0.28 
  -8   0  -6    0.37    0.13 
  -8   0  -6    0.25    0.09 
  -8   0  -6    0.36    0.11 
   8   0   6    0.29    0.12 
   8   0   6    0.34    0.09 
  -9   0  -6    2.12    0.20 
  -9   0  -6    2.45    0.27 
   9   0   6    2.28    0.26 
   7  -1  -6    2.30    0.24 
  -7   1   6    1.63    0.25 
   6  -1  -6    2.91    0.25 
  -6   1   6    2.54    0.24 
  -6   1   6    2.63    0.25 
   5  -1  -6    9.59    0.44 
   5  -1  -6    9.22    0.44 
  -5   1   6    9.35    0.45 
  -5   1   6    8.76    0.42 
   4  -1  -6    0.88    0.15 
   4  -1  -6    0.76    0.14 
   4  -1  -6    0.79    0.15 
  -4   1   6    0.60    0.12 
  -4   1   6    0.65    0.12 
   3  -1  -6   25.91    0.82 
   3  -1  -6   24.41    0.83 
   3  -1  -6   26.52    0.82 
  -3   1   6   25.85    0.83 
  -3   1   6   26.34    0.80 
   2  -1  -6   31.63    0.96 
   2  -1  -6   31.43    0.93 
   2  -1  -6   30.74    0.92 
  -2   1   6   31.87    0.95 
  -2   1   6   30.72    0.91 
   1  -1  -6    2.01    0.15 
   1  -1  -6    2.04    0.16 
   1  -1  -6    2.05    0.17 
  -1   1   6    1.82    0.15 
  -1   1   6    1.99    0.15 
  -1   1   6    2.35    0.15 
   0  -1  -6   22.43    0.71 
   0  -1  -6   22.72    0.69 
   0  -1  -6   23.80    0.71 
   0  -1  -6   21.95    0.69 
   0   1   6   22.89    0.70 
   0   1   6   23.09    0.67 
   0   1   6   23.83    0.69 
  -1  -1  -6   23.25    0.70 
  -1  -1  -6   22.84    0.69 
  -1  -1  -6   23.44    0.69 
  -1  -1  -6   22.98    0.68 
  -1  -1  -6   23.00    0.71 
   1   1   6   23.62    0.69 
   1   1   6   22.78    0.68 
   1   1   6   23.56    0.67 
  -2  -1  -6    8.30    0.31 
  -2  -1  -6    7.90    0.32 
  -2  -1  -6    8.33    0.30 
  -2  -1  -6    7.18    0.30 
  -2  -1  -6    8.52    0.31 
   2   1   6    8.01    0.28 
   2   1   6    7.90    0.31 
   2   1   6    8.31    0.30 
   2   1   6    7.77    0.30 
  -3  -1  -6    0.08    0.05 
  -3  -1  -6    0.03    0.02 
  -3  -1  -6    0.07    0.06 
  -3  -1  -6    0.05    0.06 
  -3  -1  -6    0.01    0.02 
   3   1   6    0.02    0.04 
   3   1   6   -0.01    0.05 
   3   1   6   -0.03    0.01 
   3   1   6   -0.02    0.05 
  -4  -1  -6    1.54    0.14 
  -4  -1  -6    1.45    0.14 
  -4  -1  -6    1.54    0.13 
   4   1   6    1.51    0.15 
   4   1   6    1.68    0.12 
   4   1   6    1.67    0.11 
   4   1   6    1.45    0.13 
  -5  -1  -6   22.19    0.71 
  -5  -1  -6   22.42    0.73 
  -5  -1  -6   22.39    0.71 
   5   1   6   22.04    0.68 
   5   1   6   22.30    0.65 
   5   1   6   20.87    0.77 
   5   1   6   23.16    0.69 
  -6  -1  -6    0.06    0.08 
  -6  -1  -6    0.19    0.07 
  -6  -1  -6    0.01    0.06 
   6   1   6   -0.03    0.05 
   6   1   6    0.06    0.07 
   6   1   6    0.02    0.05 
  -7  -1  -6    4.67    0.27 
  -7  -1  -6    3.98    0.27 
  -7  -1  -6    4.08    0.27 
   7   1   6    4.11    0.30 
   7   1   6    4.51    0.24 
  -8  -1  -6    7.60    0.41 
  -8  -1  -6    7.91    0.39 
  -8  -1  -6    7.67    0.41 
   8   1   6    8.57    0.46 
  -9  -1  -6    0.44    0.14 
   9   1   6    0.50    0.15 
   7  -2  -6    1.50    0.23 
  -7   2   6    0.96    0.17 
   6  -2  -6    2.80    0.25 
   6  -2  -6    2.87    0.26 
  -6   2   6    2.00    0.24 
   5  -2  -6   14.54    0.59 
   5  -2  -6   15.22    0.60 
  -5   2   6   14.76    0.60 
  -5   2   6   14.55    0.57 
   4  -2  -6    0.59    0.13 
   4  -2  -6    0.65    0.13 
   4  -2  -6    0.76    0.13 
  -4   2   6    0.88    0.13 
  -4   2   6    0.72    0.13 
   3  -2  -6   26.80    0.87 
   3  -2  -6   26.23    0.84 
   3  -2  -6   27.89    0.85 
  -3   2   6   26.21    0.85 
  -3   2   6   26.85    0.82 
   2  -2  -6    0.94    0.13 
   2  -2  -6    0.56    0.10 
   2  -2  -6    0.83    0.13 
  -2   2   6    0.67    0.11 
  -2   2   6    0.80    0.10 
   1  -2  -6   11.10    0.42 
   1  -2  -6   10.65    0.41 
   1  -2  -6   12.06    0.42 
   1  -2  -6   11.38    0.41 
  -1   2   6   11.38    0.41 
  -1   2   6   11.10    0.40 
  -1   2   6   12.45    0.40 
   0  -2  -6   60.16    1.57 
   0  -2  -6   58.17    1.61 
   0  -2  -6   58.85    1.60 
   0  -2  -6   61.95    1.57 
   0  -2  -6   57.93    1.57 
   0   2   6   59.22    1.54 
   0   2   6   57.92    1.58 
   0   2   6   56.47    1.55 
  -1  -2  -6   28.47    0.85 
  -1  -2  -6   30.87    0.84 
  -1  -2  -6   27.87    0.83 
  -1  -2  -6   29.52    0.83 
  -1  -2  -6   30.37    0.85 
   1   2   6   30.18    0.84 
   1   2   6   28.91    0.82 
   1   2   6   29.29    0.80 
   1   2   6   29.29    0.83 
  -2  -2  -6   54.61    1.44 
  -2  -2  -6   53.07    1.40 
  -2  -2  -6   53.83    1.41 
  -2  -2  -6   51.60    1.40 
  -2  -2  -6   54.07    1.44 
   2   2   6   51.34    1.38 
   2   2   6   53.28    1.41 
   2   2   6   51.46    1.56 
   2   2   6   53.28    1.41 
   2   2   6   52.69    1.36 
  -3  -2  -6   47.85    1.31 
  -3  -2  -6   47.91    1.28 
  -3  -2  -6   48.45    1.28 
  -3  -2  -6   46.33    1.28 
  -3  -2  -6   46.94    1.31 
   3   2   6   49.06    1.28 
   3   2   6   47.58    1.44 
   3   2   6   48.73    1.23 
   3   2   6   46.72    1.28 
   3   2   6   47.53    1.25 
  -4  -2  -6    0.08    0.05 
  -4  -2  -6   -0.03    0.03 
  -4  -2  -6    0.00    0.04 
  -4  -2  -6    0.04    0.02 
   4   2   6    0.07    0.07 
   4   2   6    0.04    0.02 
   4   2   6    0.04    0.03 
   4   2   6   -0.02    0.04 
  -5  -2  -6    1.04    0.13 
  -5  -2  -6    0.67    0.10 
  -5  -2  -6    0.89    0.11 
   5   2   6    0.96    0.09 
   5   2   6    0.99    0.15 
   5   2   6    0.91    0.10 
  -6  -2  -6   28.99    0.89 
  -6  -2  -6   29.35    0.86 
  -6  -2  -6   27.60    0.86 
   6   2   6   28.26    0.98 
   6   2   6   27.22    0.80 
   6   2   6   27.59    0.81 
  -7  -2  -6   62.90    1.81 
  -7  -2  -6   67.61    1.86 
  -7  -2  -6   66.03    1.81 
   7   2   6   65.43    1.74 
   7   2   6   65.41    2.04 
  -8  -2  -6    0.15    0.08 
  -8  -2  -6    0.23    0.06 
  -8  -2  -6    0.09    0.09 
   8   2   6    0.10    0.09 
  -9  -2  -6   -0.02    0.08 
  -9  -2  -6    0.07    0.05 
   9   2   6    0.00    0.09 
   7  -3  -6    2.64    0.26 
  -7   3   6    2.33    0.23 
   6  -3  -6    0.41    0.13 
   6  -3  -6    0.35    0.12 
  -6   3   6    0.64    0.16 
   5  -3  -6    0.32    0.12 
   5  -3  -6    0.32    0.12 
  -5   3   6    0.23    0.10 
   4  -3  -6   27.11    0.90 
   4  -3  -6   26.98    0.90 
  -4   3   6   26.92    0.90 
  -4   3   6   28.79    0.88 
   3  -3  -6    0.85    0.13 
   3  -3  -6    0.98    0.16 
   3  -3  -6    0.88    0.14 
  -3   3   6    0.82    0.11 
  -3   3   6    0.86    0.13 
   2  -3  -6    3.20    0.21 
   2  -3  -6    3.04    0.20 
   2  -3  -6    2.83    0.20 
  -2   3   6    3.19    0.20 
  -2   3   6    3.05    0.17 
   1  -3  -6    8.79    0.35 
   1  -3  -6    9.03    0.35 
   1  -3  -6    8.46    0.36 
   1  -3  -6    8.99    0.35 
   1  -3  -6    9.33    0.34 
  -1   3   6    9.01    0.32 
  -1   3   6    9.03    0.34 
  -1   3   6    9.29    0.35 
   0  -3  -6   43.57    1.14 
   0  -3  -6   41.97    1.17 
   0  -3  -6   42.45    1.18 
   0  -3  -6   41.24    1.14 
   0  -3  -6   39.96    1.14 
   0   3   6   40.62    1.10 
   0   3   6   40.85    1.12 
   0   3   6   42.57    1.14 
  -1  -3  -6   18.05    0.57 
  -1  -3  -6   20.25    0.57 
  -1  -3  -6   19.90    0.60 
  -1  -3  -6   19.75    0.59 
  -1  -3  -6   19.13    0.58 
   1   3   6   19.47    0.56 
   1   3   6   19.37    0.53 
   1   3   6   18.64    0.55 
   1   3   6   19.94    0.56 
  -2  -3  -6    0.15    0.04 
  -2  -3  -6    0.09    0.03 
  -2  -3  -6    0.15    0.05 
  -2  -3  -6    0.09    0.05 
  -2  -3  -6    0.08    0.05 
   2   3   6    0.08    0.04 
   2   3   6    0.13    0.03 
  -3  -3  -6    0.97    0.09 
  -3  -3  -6    0.85    0.09 
  -3  -3  -6    1.05    0.07 
  -3  -3  -6    1.11    0.10 
  -3  -3  -6    1.05    0.08 
   3   3   6    1.01    0.07 
   3   3   6    1.02    0.14 
   3   3   6    0.97    0.06 
  -4  -3  -6   18.49    0.58 
  -4  -3  -6   19.09    0.57 
  -4  -3  -6   18.72    0.56 
  -4  -3  -6   19.64    0.56 
   4   3   6   18.63    0.51 
   4   3   6   19.05    0.51 
   4   3   6   19.28    0.69 
  -5  -3  -6   15.96    0.52 
  -5  -3  -6   16.55    0.54 
  -5  -3  -6   16.72    0.52 
   5   3   6   17.12    0.64 
   5   3   6   16.28    0.46 
  -6  -3  -6    0.03    0.04 
  -6  -3  -6   -0.01    0.05 
  -6  -3  -6    0.02    0.05 
   6   3   6    0.02    0.03 
   6   3   6    0.13    0.09 
  -7  -3  -6    2.07    0.15 
  -7  -3  -6    1.66    0.16 
  -7  -3  -6    1.90    0.17 
   7   3   6    2.06    0.22 
  -8  -3  -6    0.92    0.15 
  -8  -3  -6    1.12    0.12 
  -8  -3  -6    1.29    0.17 
   8   3   6    1.19    0.21 
  -9  -3  -6   17.77    0.68 
  -9  -3  -6   18.93    0.69 
  -9  -3  -6   18.22    0.67 
   9   3   6   18.28    0.81 
   6  -4  -6    4.82    0.34 
   6  -4  -6    4.30    0.34 
  -6   4   6    4.61    0.32 
   5  -4  -6    1.01    0.17 
   5  -4  -6    0.72    0.17 
  -5   4   6    0.77    0.16 
   4  -4  -6    1.47    0.17 
   4  -4  -6    1.60    0.21 
  -4   4   6    1.56    0.18 
   3  -4  -6   25.73    0.85 
   3  -4  -6   27.30    0.86 
  -3   4   6   26.37    0.85 
   2  -4  -6   56.54    1.54 
   2  -4  -6   55.06    1.58 
   2  -4  -6   56.01    1.54 
  -2   4   6   54.73    1.54 
  -2   4   6   54.73    1.49 
   1  -4  -6    0.76    0.12 
   1  -4  -6    0.64    0.10 
   1  -4  -6    0.75    0.11 
   1  -4  -6    0.86    0.08 
  -1   4   6    0.78    0.09 
  -1   4   6    0.71    0.08 
   0  -4  -6   19.00    0.58 
   0  -4  -6   18.92    0.58 
   0  -4  -6   19.31    0.60 
   0  -4  -6   18.46    0.60 
   0  -4  -6   18.78    0.58 
   0   4   6   19.43    0.53 
   0   4   6   18.58    0.56 
   0   4   6   18.66    0.55 
  -1  -4  -6   12.44    0.41 
  -1  -4  -6   12.02    0.39 
  -1  -4  -6   12.19    0.40 
  -1  -4  -6   12.57    0.39 
  -1  -4  -6   11.40    0.39 
   1   4   6   12.06    0.36 
   1   4   6   11.91    0.35 
  -2  -4  -6  102.19    2.68 
  -2  -4  -6  102.08    2.61 
  -2  -4  -6  102.01    2.67 
  -2  -4  -6  108.05    2.61 
  -2  -4  -6  100.14    2.61 
  -2  -4  -6  105.11    2.61 
  -3  -4  -6    5.98    0.21 
  -3  -4  -6    5.25    0.21 
  -3  -4  -6    5.81    0.20 
  -3  -4  -6    5.66    0.21 
  -3  -4  -6    5.83    0.21 
  -3  -4  -6    5.56    0.21 
   3   4   6    5.25    0.30 
  -4  -4  -6   14.62    0.44 
  -4  -4  -6   14.53    0.45 
  -4  -4  -6   14.91    0.44 
  -4  -4  -6   14.59    0.45 
  -4  -4  -6   15.09    0.44 
  -4  -4  -6   14.51    0.44 
   4   4   6   14.23    0.57 
  -5  -4  -6    2.83    0.15 
  -5  -4  -6    2.83    0.16 
  -5  -4  -6    3.13    0.16 
  -5  -4  -6    3.22    0.15 
   5   4   6    2.91    0.24 
  -6  -4  -6    5.91    0.25 
  -6  -4  -6    5.55    0.26 
  -6  -4  -6    6.02    0.26 
   6   4   6    5.91    0.36 
  -7  -4  -6    0.34    0.08 
  -7  -4  -6    0.43    0.09 
  -7  -4  -6    0.29    0.06 
   7   4   6    0.50    0.14 
  -8  -4  -6    4.74    0.26 
  -8  -4  -6    4.06    0.25 
  -8  -4  -6    4.28    0.23 
   8   4   6    4.45    0.34 
  -9  -4  -6   18.65    0.67 
  -9  -4  -6   18.03    0.66 
  -9  -4  -6   18.51    0.65 
   9   4   6   17.89    0.82 
   6  -5  -6    0.98    0.18 
   6  -5  -6    0.75    0.18 
   5  -5  -6    2.34    0.25 
   5  -5  -6    1.80    0.19 
   4  -5  -6    2.54    0.22 
   4  -5  -6    2.48    0.25 
  -4   5   6    2.82    0.22 
   3  -5  -6    0.41    0.12 
   3  -5  -6    0.41    0.10 
  -3   5   6    0.39    0.10 
   2  -5  -6   15.42    0.56 
   2  -5  -6   15.83    0.57 
  -2   5   6   15.52    0.54 
   1  -5  -6   11.11    0.43 
   1  -5  -6   11.41    0.42 
   1  -5  -6   10.87    0.42 
   1  -5  -6   12.01    0.43 
  -1   5   6   11.15    0.39 
   0  -5  -6   32.22    0.92 
   0  -5  -6   33.48    0.94 
   0  -5  -6   31.72    0.92 
   0  -5  -6   31.13    0.94 
   0   5   6   32.67    0.88 
   0   5   6   31.92    0.87 
  -1  -5  -6   32.00    0.84 
  -1  -5  -6   30.56    0.87 
  -1  -5  -6   28.78    0.84 
  -1  -5  -6   30.84    0.88 
  -1  -5  -6   29.91    0.85 
  -2  -5  -6    0.23    0.04 
  -2  -5  -6    0.12    0.04 
  -2  -5  -6    0.18    0.03 
  -2  -5  -6    0.12    0.04 
  -2  -5  -6    0.03    0.04 
  -3  -5  -6    5.47    0.20 
  -3  -5  -6    5.22    0.19 
  -3  -5  -6    5.29    0.19 
  -3  -5  -6    5.48    0.18 
  -3  -5  -6    5.21    0.19 
  -3  -5  -6    5.73    0.20 
   3   5   6    5.48    0.32 
  -4  -5  -6   52.42    1.37 
  -4  -5  -6   51.61    1.34 
  -4  -5  -6   51.61    1.33 
  -4  -5  -6   52.50    1.33 
  -4  -5  -6   52.57    1.37 
   4   5   6   51.36    1.63 
  -5  -5  -6    3.52    0.16 
  -5  -5  -6    3.40    0.15 
  -5  -5  -6    3.48    0.16 
  -5  -5  -6    3.62    0.15 
   5   5   6    3.73    0.27 
  -6  -5  -6   24.12    0.70 
  -6  -5  -6   24.35    0.70 
  -6  -5  -6   25.31    0.73 
   6   5   6   24.66    0.92 
  -7  -5  -6   15.94    0.53 
  -7  -5  -6   16.29    0.52 
  -7  -5  -6   15.55    0.52 
   7   5   6   15.99    0.69 
  -8  -5  -6    2.73    0.18 
  -8  -5  -6    2.52    0.16 
  -8  -5  -6    2.70    0.19 
   8   5   6    2.89    0.29 
  -9  -5  -6    0.13    0.04 
  -9  -5  -6    0.09    0.04 
  -9  -5  -6   -0.01    0.05 
   9   5   6    0.04    0.11 
   5  -6  -6   -0.04    0.05 
   5  -6  -6   -0.02    0.10 
   4  -6  -6    0.02    0.10 
   4  -6  -6   -0.03    0.04 
   3  -6  -6   14.69    0.57 
   3  -6  -6   14.39    0.58 
   2  -6  -6    0.61    0.11 
   2  -6  -6    0.19    0.11 
   1  -6  -6    3.82    0.24 
   1  -6  -6    4.17    0.23 
  -1   6   6    4.04    0.19 
   0  -6  -6   53.25    1.50 
   0  -6  -6   53.21    1.46 
   0  -6  -6   53.08    1.46 
   0   6   6   55.51    1.39 
  -1  -6  -6    1.58    0.11 
  -1  -6  -6    2.03    0.13 
  -1  -6  -6    1.90    0.13 
  -2  -6  -6    0.87    0.09 
  -2  -6  -6    0.86    0.08 
  -2  -6  -6    1.02    0.07 
  -2  -6  -6    0.82    0.08 
  -3  -6  -6    0.23    0.03 
  -3  -6  -6    0.20    0.03 
  -3  -6  -6    0.17    0.04 
  -3  -6  -6    0.19    0.04 
  -3  -6  -6    0.16    0.04 
  -4  -6  -6   24.90    0.66 
  -4  -6  -6   25.56    0.67 
  -4  -6  -6   25.93    0.66 
   4   6   6   23.62    0.90 
  -5  -6  -6    3.07    0.12 
  -5  -6  -6    2.93    0.13 
  -5  -6  -6    3.22    0.12 
   5   6   6    3.28    0.27 
  -6  -6  -6    0.88    0.08 
  -6  -6  -6    0.85    0.08 
   6   6   6    0.81    0.17 
  -7  -6  -6    0.38    0.08 
  -7  -6  -6    0.43    0.07 
   7   6   6    0.29    0.12 
  -8  -6  -6    1.09    0.12 
  -8  -6  -6    0.99    0.10 
   8   6   6    0.95    0.20 
  -9  -6  -6    0.01    0.04 
  -9  -6  -6    0.11    0.06 
   9   6   6    0.04    0.12 
   4  -7  -6    2.54    0.22 
   4  -7  -6    3.08    0.28 
   3  -7  -6    5.00    0.33 
   3  -7  -6    5.87    0.32 
   2  -7  -6    0.36    0.12 
   2  -7  -6    0.50    0.10 
   1  -7  -6   11.76    0.46 
   1  -7  -6   11.91    0.46 
   0  -7  -6    1.21    0.13 
   0  -7  -6    1.34    0.12 
  -1  -7  -6   53.02    1.44 
  -1  -7  -6   52.43    1.40 
  -1  -7  -6   50.54    1.39 
  -2  -7  -6   53.69    1.40 
  -2  -7  -6   52.73    1.40 
  -2  -7  -6   53.82    1.44 
  -3  -7  -6   20.79    0.59 
  -3  -7  -6   21.44    0.57 
  -3  -7  -6   20.64    0.57 
  -3  -7  -6   20.40    0.57 
   4   7   6   -0.11    0.09 
   5   7   6    0.87    0.17 
  -6  -7  -6   57.37    1.47 
   6   7   6   57.37    1.86 
  -7  -7  -6    7.25    0.26 
   7   7   6    6.57    0.42 
  -8  -7  -6    3.64    0.19 
   8   7   6    3.90    0.34 
  -9  -7  -6    2.02    0.16 
   9   7   6    2.15    0.26 
   3  -8  -6    0.92    0.18 
   3  -8  -6    0.72    0.12 
   2  -8  -6    0.02    0.04 
   2  -8  -6    0.08    0.09 
   1  -8  -6    1.84    0.15 
   1  -8  -6    1.77    0.18 
   0  -8  -6    0.77    0.10 
   0  -8  -6    0.54    0.10 
  -1  -8  -6    8.96    0.35 
  -1  -8  -6    8.71    0.33 
  -2  -8  -6   13.22    0.43 
  -2  -8  -6   13.37    0.42 
  -3  -8  -6    3.87    0.16 
   5   8   6   30.56    1.13 
   6   8   6    3.24    0.30 
  -7  -8  -6    2.59    0.13 
   7   8   6    2.52    0.27 
  -8  -8  -6   15.78    0.50 
   8   8   6   16.01    0.76 
   2  -9  -6   10.26    0.49 
   2  -9  -6   10.65    0.47 
   1  -9  -6    0.09    0.03 
   1  -9  -6    0.06    0.06 
   0  -9  -6    3.36    0.22 
   0  -9  -6    3.58    0.20 
  -1  -9  -6    9.64    0.38 
  -1  -9  -6    9.98    0.37 
  -2  -9  -6    4.46    0.21 
  -3  -9  -6    4.94    0.20 
  -4  -9  -6   28.30    0.75 
   6   9   6    0.05    0.11 
   7   9   6    1.70    0.27 
  -8  -9  -6   18.68    0.55 
   8   9   6   18.68    0.86 
   1 -10  -6    8.63    0.39 
   1 -10  -6    8.49    0.42 
   0 -10  -6    7.27    0.36 
  -1 -10  -6    5.48    0.28 
  -2 -10  -6    5.39    0.26 
  -3 -10  -6    4.60    0.21 
  -4 -10  -6    0.79    0.07 
  -2 -11  -6    1.66    0.15 
  -3 -11  -6    2.15    0.15 
  -4 -11  -6    0.08    0.03 
  -4  -7   7    0.42    0.14 
  -4  -7   7    0.91    0.16 
  -3  -7   7    1.63    0.23 
  -3  -7   7    1.44    0.22 
  -2  -7   7    5.17    0.32 
  -2  -7   7    5.00    0.35 
   1   7  -7    0.09    0.07 
  -1  -7   7   -0.05    0.07 
  -1  -7   7    0.02    0.05 
   0   7  -7    0.90    0.16 
   0  -7   7    0.89    0.18 
   0  -7   7    0.80    0.15 
  -1   7  -7    7.32    0.38 
   1  -7   7    5.52    0.38 
   1  -7   7    5.84    0.36 
  -2   7  -7    5.54    0.35 
   2  -7   7    5.30    0.37 
   2  -7   7    5.61    0.36 
  -5  -6   7   16.98    0.71 
  -5  -6   7   17.70    0.71 
  -4  -6   7   -0.05    0.08 
  -4  -6   7    0.21    0.08 
   3   6  -7    0.48    0.10 
  -3  -6   7    0.51    0.12 
  -3  -6   7    0.59    0.13 
  -3  -6   7    0.62    0.15 
   2   6  -7    2.65    0.21 
  -2  -6   7    2.65    0.26 
  -2  -6   7    2.69    0.23 
  -2  -6   7    2.57    0.24 
   1   6  -7    9.01    0.42 
  -1  -6   7    8.71    0.46 
  -1  -6   7    8.50    0.44 
  -1  -6   7    8.97    0.44 
   0   6  -7    2.98    0.23 
   0   6  -7    2.42    0.22 
   0  -6   7    2.37    0.24 
   0  -6   7    2.58    0.23 
   0  -6   7    2.64    0.26 
  -1   6  -7    7.52    0.40 
  -1   6  -7    8.40    0.41 
   1  -6   7    7.17    0.42 
   1  -6   7    8.55    0.43 
   1  -6   7    7.70    0.42 
  -2   6  -7    5.78    0.36 
  -2   6  -7    6.08    0.36 
   2  -6   7    5.54    0.36 
   2  -6   7    5.82    0.37 
   2  -6   7    5.80    0.35 
  -3   6  -7    0.12    0.11 
   3  -6   7    0.25    0.09 
   3  -6   7   -0.04    0.06 
   3  -6   7    0.06    0.09 
  -4   6  -7    1.42    0.20 
  -4   6  -7    1.36    0.21 
   4  -6   7    1.00    0.18 
  -6  -5   7    2.23    0.25 
  -6  -5   7    1.95    0.20 
   5   5  -7    0.92    0.14 
  -5  -5   7    1.06    0.17 
  -5  -5   7    1.02    0.19 
   4   5  -7    1.28    0.17 
  -4  -5   7    1.36    0.19 
  -4  -5   7    1.58    0.22 
  -4  -5   7    1.22    0.19 
   3   5  -7   11.68    0.56 
   3   5  -7   12.66    0.51 
  -3  -5   7   14.22    0.57 
  -3  -5   7   12.34    0.56 
  -3  -5   7   12.11    0.53 
   2   5  -7    9.28    0.44 
   2   5  -7   10.26    0.44 
  -2  -5   7    9.77    0.46 
  -2  -5   7    9.98    0.48 
  -2  -5   7    9.59    0.45 
   1   5  -7    0.22    0.11 
   1   5  -7    0.28    0.10 
  -1  -5   7    0.33    0.10 
  -1  -5   7    0.26    0.11 
  -1  -5   7    0.25    0.11 
   0   5  -7   10.83    0.49 
   0   5  -7   11.29    0.48 
   0  -5   7   11.20    0.49 
   0  -5   7   11.61    0.50 
   0  -5   7   10.67    0.50 
  -1   5  -7   13.15    0.55 
  -1   5  -7   13.44    0.57 
   1  -5   7   12.94    0.55 
   1  -5   7   13.66    0.56 
   1  -5   7   13.54    0.58 
  -2   5  -7    1.07    0.18 
  -2   5  -7    1.16    0.17 
   2  -5   7    1.07    0.18 
   2  -5   7    1.02    0.18 
   2  -5   7    1.22    0.19 
  -3   5  -7    7.81    0.44 
  -3   5  -7    8.45    0.43 
   3  -5   7    8.23    0.43 
   3  -5   7    8.34    0.44 
   3  -5   7    8.12    0.44 
  -4   5  -7   29.51    1.01 
  -4   5  -7   28.32    1.02 
   4  -5   7   28.51    1.03 
   4  -5   7   28.10    1.00 
   4  -5   7   28.47    0.99 
  -5   5  -7    2.63    0.26 
  -5   5  -7    2.45    0.24 
   5  -5   7    2.34    0.23 
   5  -5   7    2.38    0.25 
   6   4  -7    0.66    0.13 
  -6  -4   7    0.85    0.16 
  -6  -4   7    0.60    0.15 
   5   4  -7    0.02    0.06 
  -5  -4   7    0.18    0.09 
  -5  -4   7    0.05    0.06 
  -5  -4   7    0.03    0.09 
   4   4  -7   -0.05    0.06 
   4   4  -7   -0.01    0.07 
  -4  -4   7    0.03    0.09 
  -4  -4   7   -0.01    0.06 
  -4  -4   7    0.01    0.08 
   3   4  -7   28.84    0.95 
   3   4  -7   28.65    0.92 
  -3  -4   7   29.58    0.95 
  -3  -4   7   28.49    0.95 
  -3  -4   7   27.98    0.97 
   2   4  -7    1.47    0.18 
   2   4  -7    1.84    0.18 
  -2  -4   7    1.57    0.21 
  -2  -4   7    1.99    0.19 
  -2  -4   7    1.74    0.20 
   1   4  -7    5.93    0.32 
   1   4  -7    5.83    0.33 
   1   4  -7    5.99    0.30 
  -1  -4   7    5.74    0.33 
  -1  -4   7    5.35    0.33 
  -1  -4   7    5.70    0.32 
   0   4  -7    0.06    0.08 
   0   4  -7   -0.04    0.05 
   0   4  -7    0.02    0.07 
   0  -4   7   -0.03    0.06 
   0  -4   7    0.08    0.10 
   0  -4   7    0.01    0.07 
  -1   4  -7   16.81    0.60 
  -1   4  -7   16.05    0.63 
  -1   4  -7   17.08    0.62 
   1  -4   7   16.52    0.61 
   1  -4   7   15.81    0.63 
   1  -4   7   16.31    0.62 
  -2   4  -7    5.24    0.32 
  -2   4  -7    5.38    0.31 
  -2   4  -7    4.94    0.31 
   2  -4   7    4.67    0.30 
   2  -4   7    5.01    0.32 
   2  -4   7    5.05    0.31 
  -3   4  -7    0.17    0.10 
  -3   4  -7   -0.04    0.08 
  -3   4  -7    0.11    0.09 
   3  -4   7    0.13    0.10 
   3  -4   7    0.07    0.09 
   3  -4   7    0.12    0.09 
  -4   4  -7    1.51    0.22 
  -4   4  -7    1.77    0.22 
  -4   4  -7    1.74    0.24 
   4  -4   7    1.34    0.20 
   4  -4   7    1.47    0.19 
   4  -4   7    1.45    0.21 
  -5   4  -7    0.37    0.12 
  -5   4  -7    0.31    0.12 
   5  -4   7    0.51    0.13 
   5  -4   7    0.14    0.10 
  -6   4  -7    4.49    0.34 
   6  -4   7    4.31    0.33 
   6  -4   7    3.76    0.30 
   7   3  -7   -0.06    0.08 
  -7  -3   7    0.04    0.10 
  -7  -3   7    0.06    0.05 
   6   3  -7   11.79    0.50 
  -6  -3   7   11.08    0.52 
  -6  -3   7   11.38    0.54 
  -6  -3   7   10.55    0.54 
   5   3  -7   20.91    0.78 
   5   3  -7   21.44    0.75 
  -5  -3   7   21.30    0.78 
  -5  -3   7   20.73    0.78 
  -5  -3   7   21.57    0.81 
   4   3  -7    0.99    0.15 
   4   3  -7    0.98    0.17 
  -4  -3   7    1.22    0.18 
  -4  -3   7    0.93    0.17 
  -4  -3   7    0.94    0.17 
   3   3  -7    1.19    0.18 
   3   3  -7    1.41    0.16 
  -3  -3   7    0.87    0.17 
  -3  -3   7    0.96    0.15 
  -3  -3   7    0.97    0.16 
   2   3  -7    9.01    0.42 
   2   3  -7    9.92    0.40 
   2   3  -7    9.14    0.41 
  -2  -3   7    9.02    0.41 
  -2  -3   7    8.98    0.43 
  -2  -3   7    9.38    0.42 
   1   3  -7   76.55    2.11 
   1   3  -7   75.80    2.05 
   1   3  -7   75.68    2.06 
  -1  -3   7   75.36    2.07 
  -1  -3   7   77.11    2.06 
  -1  -3   7   70.99    2.11 
   0   3  -7   12.54    0.48 
   0   3  -7   11.14    0.47 
   0   3  -7   11.64    0.49 
   0  -3   7   12.64    0.49 
   0  -3   7   11.90    0.48 
   0  -3   7   11.87    0.50 
  -1   3  -7    2.30    0.22 
  -1   3  -7    2.82    0.21 
  -1   3  -7    2.55    0.20 
   1  -3   7    2.63    0.21 
   1  -3   7    2.76    0.22 
   1  -3   7    2.70    0.21 
  -2   3  -7    1.06    0.16 
  -2   3  -7    0.74    0.13 
  -2   3  -7    0.93    0.16 
   2  -3   7    0.86    0.15 
   2  -3   7    0.86    0.15 
   2  -3   7    0.77    0.14 
  -3   3  -7   33.91    1.11 
  -3   3  -7   35.72    1.09 
  -3   3  -7   35.06    1.08 
   3  -3   7   33.15    1.10 
   3  -3   7   33.03    1.07 
   3  -3   7   35.45    1.07 
  -4   3  -7    3.08    0.25 
  -4   3  -7    3.25    0.27 
  -4   3  -7    3.08    0.26 
   4  -3   7    2.87    0.23 
   4  -3   7    2.91    0.25 
   4  -3   7    3.08    0.23 
  -5   3  -7   14.63    0.61 
  -5   3  -7   14.72    0.62 
  -5   3  -7   14.55    0.63 
   5  -3   7   14.87    0.60 
   5  -3   7   15.01    0.62 
  -6   3  -7    2.66    0.27 
  -6   3  -7    2.72    0.26 
  -6   3  -7    2.82    0.26 
   6  -3   7    2.35    0.24 
   6  -3   7    2.61    0.25 
  -7   3  -7   11.44    0.56 
  -7   3  -7   11.35    0.56 
   7  -3   7   11.23    0.54 
   7   2  -7    0.52    0.12 
  -7  -2   7    0.23    0.13 
   6   2  -7    8.60    0.44 
   6   2  -7    9.53    0.45 
  -6  -2   7    8.97    0.47 
  -6  -2   7    8.58    0.46 
   5   2  -7    0.92    0.18 
   5   2  -7    1.04    0.16 
  -5  -2   7    0.83    0.16 
  -5  -2   7    1.09    0.17 
  -5  -2   7    0.90    0.17 
   4   2  -7    3.62    0.28 
   4   2  -7    3.83    0.25 
  -4  -2   7    3.35    0.26 
  -4  -2   7    3.30    0.25 
  -4  -2   7    3.50    0.26 
   3   2  -7    3.06    0.24 
   3   2  -7    3.37    0.24 
   3   2  -7    3.43    0.23 
  -3  -2   7    3.85    0.25 
  -3  -2   7    3.35    0.25 
  -3  -2   7    3.50    0.24 
   2   2  -7    9.54    0.41 
   2   2  -7    9.59    0.40 
   2   2  -7    9.53    0.42 
  -2  -2   7    9.45    0.41 
  -2  -2   7    9.44    0.42 
  -2  -2   7    8.75    0.40 
   1   2  -7    5.77    0.32 
   1   2  -7    6.28    0.30 
   1   2  -7    6.12    0.31 
  -1  -2   7    6.03    0.31 
  -1  -2   7    6.19    0.32 
  -1  -2   7    6.64    0.32 
   0   2  -7    4.33    0.25 
   0   2  -7    4.53    0.26 
   0   2  -7    4.22    0.27 
   0  -2   7    4.18    0.24 
   0  -2   7    4.59    0.27 
   0  -2   7    4.07    0.25 
  -1   2  -7   57.35    1.63 
  -1   2  -7   57.87    1.63 
  -1   2  -7   61.43    1.69 
   1  -2   7   58.20    1.67 
   1  -2   7   60.80    1.63 
   1  -2   7   56.75    1.63 
  -2   2  -7    9.79    0.41 
  -2   2  -7    9.35    0.42 
  -2   2  -7    9.80    0.42 
   2  -2   7    9.89    0.40 
   2  -2   7    9.89    0.41 
   2  -2   7    9.36    0.42 
  -3   2  -7    0.24    0.10 
  -3   2  -7    0.26    0.10 
  -3   2  -7    0.28    0.10 
   3  -2   7    0.19    0.09 
   3  -2   7    0.28    0.06 
   3  -2   7    0.20    0.08 
   3  -2   7    0.33    0.09 
  -4   2  -7   17.42    0.64 
  -4   2  -7   17.68    0.64 
  -4   2  -7   17.25    0.66 
   4  -2   7   16.81    0.58 
   4  -2   7   17.19    0.64 
   4  -2   7   17.75    0.63 
   4  -2   7   16.68    0.61 
  -5   2  -7   25.29    0.88 
  -5   2  -7   25.78    0.88 
  -5   2  -7   24.55    0.90 
   5  -2   7   26.27    0.88 
   5  -2   7   25.64    0.85 
   5  -2   7   26.56    0.87 
  -6   2  -7    0.82    0.18 
  -6   2  -7    1.07    0.19 
  -6   2  -7    1.13    0.18 
   6  -2   7    0.72    0.15 
   6  -2   7    0.94    0.14 
   6  -2   7    0.94    0.16 
  -7   2  -7   11.83    0.56 
  -7   2  -7   11.65    0.55 
   7  -2   7   11.82    0.53 
   7   1  -7    0.49    0.15 
  -7  -1   7    0.78    0.18 
   6   1  -7   29.33    0.99 
  -6  -1   7   29.09    1.00 
  -6  -1   7   29.35    1.04 
   5   1  -7   16.81    0.67 
   5   1  -7   17.53    0.66 
  -5  -1   7   17.16    0.68 
  -5  -1   7   17.24    0.66 
   4   1  -7    0.13    0.09 
   4   1  -7    0.21    0.10 
   4   1  -7    0.27    0.09 
  -4  -1   7    0.13    0.09 
  -4  -1   7    0.17    0.08 
  -4  -1   7    0.31    0.10 
   3   1  -7   11.60    0.47 
   3   1  -7   11.94    0.50 
   3   1  -7   11.89    0.49 
  -3  -1   7   12.47    0.48 
  -3  -1   7   11.70    0.48 
  -3  -1   7   12.97    0.52 
   2   1  -7    1.96    0.18 
   2   1  -7    1.88    0.17 
   2   1  -7    1.74    0.19 
  -2  -1   7    1.85    0.18 
  -2  -1   7    2.14    0.18 
  -2  -1   7    1.85    0.17 
   1   1  -7    0.12    0.07 
   1   1  -7    0.16    0.09 
   1   1  -7    0.17    0.08 
  -1  -1   7    0.16    0.08 
  -1  -1   7    0.19    0.08 
  -1  -1   7    0.21    0.07 
   0   1  -7    6.63    0.30 
   0   1  -7    6.52    0.31 
   0   1  -7    6.48    0.32 
   0  -1   7    6.30    0.30 
   0  -1   7    5.98    0.29 
   0  -1   7    6.03    0.31 
  -1   1  -7   93.77    2.61 
  -1   1  -7  101.66    2.69 
  -1   1  -7  101.99    2.62 
   1  -1   7  101.29    2.68 
   1  -1   7   99.90    2.60 
   1  -1   7   98.47    2.61 
  -2   1  -7    0.42    0.10 
  -2   1  -7    0.87    0.14 
  -2   1  -7    0.52    0.11 
   2  -1   7    0.89    0.12 
   2  -1   7    0.79    0.12 
   2  -1   7    0.50    0.10 
  -3   1  -7   14.67    0.54 
  -3   1  -7   14.90    0.54 
  -3   1  -7   14.70    0.56 
   3  -1   7   14.97    0.49 
   3  -1   7   14.65    0.51 
   3  -1   7   15.20    0.55 
   3  -1   7   14.62    0.53 
  -4   1  -7    0.24    0.09 
  -4   1  -7    0.37    0.10 
  -4   1  -7    0.14    0.09 
   4  -1   7    0.28    0.08 
   4  -1   7    0.31    0.08 
   4  -1   7    0.24    0.08 
   4  -1   7    0.29    0.10 
  -5   1  -7   12.78    0.55 
  -5   1  -7   12.82    0.53 
  -5   1  -7   13.42    0.53 
   5  -1   7   12.97    0.51 
   5  -1   7   13.12    0.51 
   5  -1   7   12.91    0.52 
  -6   1  -7    0.10    0.10 
  -6   1  -7    0.03    0.09 
  -6   1  -7   -0.02    0.05 
   6  -1   7    0.14    0.06 
   6  -1   7    0.06    0.08 
   6  -1   7    0.04    0.06 
  -7   1  -7    0.46    0.14 
  -7   1  -7    0.60    0.12 
  -7   1  -7    0.28    0.12 
   7  -1   7    0.56    0.13 
   7  -1   7    0.53    0.13 
  -8   1  -7    1.45    0.21 
  -8   1  -7    1.47    0.23 
   8  -1   7    1.44    0.22 
   8  -1   7    1.57    0.20 
   7   0  -7    6.76    0.40 
   6   0  -7    1.14    0.19 
  -6   0   7    1.23    0.21 
  -6   0   7    1.16    0.19 
   5   0  -7    0.39    0.11 
   5   0  -7    0.30    0.10 
   5   0  -7    0.31    0.12 
  -5   0   7    0.43    0.13 
  -5   0   7    0.32    0.13 
   4   0  -7   42.15    1.25 
   4   0  -7   42.48    1.24 
   4   0  -7   41.01    1.27 
  -4   0   7   39.36    1.22 
  -4   0   7   39.62    1.26 
   3   0  -7    3.29    0.24 
   3   0  -7    3.45    0.24 
   3   0  -7    3.18    0.23 
  -3   0   7    3.07    0.24 
  -3   0   7    3.36    0.23 
  -3   0   7    3.34    0.23 
   2   0  -7   18.09    0.63 
   2   0  -7   17.82    0.64 
   2   0  -7   17.69    0.62 
  -2   0   7   17.47    0.62 
  -2   0   7   18.23    0.64 
  -2   0   7   18.89    0.61 
   1   0  -7   33.54    1.01 
   1   0  -7   32.31    0.97 
   1   0  -7   32.18    0.98 
  -1   0   7   33.12    0.98 
  -1   0   7   32.55    0.96 
  -1   0   7   32.63    0.99 
   0   0  -7   33.15    1.04 
   0   0  -7   35.24    1.02 
   0   0  -7   37.07    1.03 
   0   0   7   35.76    1.00 
   0   0   7   33.51    1.03 
   0   0   7   34.37    1.01 
  -1   0  -7    2.46    0.19 
  -1   0  -7    2.90    0.20 
  -1   0  -7    3.04    0.19 
   1   0   7    3.01    0.19 
   1   0   7    2.80    0.17 
   1   0   7    3.03    0.19 
  -2   0  -7   16.57    0.57 
  -2   0  -7   16.33    0.58 
  -2   0  -7   17.13    0.57 
   2   0   7   15.97    0.56 
   2   0   7   16.32    0.55 
   2   0   7   17.47    0.54 
  -3   0  -7   76.76    2.08 
  -3   0  -7   77.41    2.13 
  -3   0  -7   78.29    2.08 
   3   0   7   75.44    2.21 
   3   0   7   77.09    2.05 
   3   0   7   80.10    2.05 
   3   0   7   78.07    2.11 
  -4   0  -7   68.41    1.87 
  -4   0  -7   69.89    1.93 
  -4   0  -7   66.55    1.87 
   4   0   7   71.02    1.83 
   4   0   7   66.44    1.88 
   4   0   7   69.94    2.01 
   4   0   7   67.94    1.85 
  -5   0  -7    0.26    0.10 
  -5   0  -7    0.29    0.09 
  -5   0  -7    0.18    0.08 
   5   0   7    0.18    0.09 
   5   0   7    0.23    0.08 
   5   0   7    0.15    0.08 
  -6   0  -7    3.71    0.26 
  -6   0  -7    3.69    0.24 
  -6   0  -7    3.12    0.25 
   6   0   7    3.31    0.25 
   6   0   7    3.43    0.23 
   6   0   7    3.25    0.22 
  -7   0  -7   29.18    1.00 
  -7   0  -7   27.92    0.96 
  -7   0  -7   29.80    0.98 
   7   0   7   28.51    0.92 
   7   0   7   29.28    1.03 
  -8   0  -7    0.35    0.13 
  -8   0  -7    0.41    0.10 
   8   0   7    0.59    0.15 
   7  -1  -7    0.38    0.12 
   6  -1  -7    0.95    0.18 
  -6   1   7    1.16    0.20 
   5  -1  -7   -0.01    0.08 
   5  -1  -7    0.04    0.07 
   5  -1  -7   -0.07    0.09 
  -5   1   7    0.05    0.09 
  -5   1   7    0.08    0.08 
   4  -1  -7    6.40    0.36 
   4  -1  -7    5.98    0.33 
   4  -1  -7    6.11    0.34 
  -4   1   7    5.82    0.34 
  -4   1   7    6.03    0.33 
   3  -1  -7   12.95    0.51 
   3  -1  -7   13.32    0.51 
   3  -1  -7   12.03    0.52 
  -3   1   7   12.74    0.51 
  -3   1   7   12.61    0.48 
   2  -1  -7   21.85    0.73 
   2  -1  -7   21.30    0.70 
   2  -1  -7   20.35    0.70 
  -2   1   7   22.01    0.69 
  -2   1   7   21.32    0.72 
  -2   1   7   21.67    0.70 
   1  -1  -7    1.94    0.17 
   1  -1  -7    1.79    0.16 
   1  -1  -7    1.95    0.17 
  -1   1   7    2.33    0.15 
  -1   1   7    1.79    0.16 
  -1   1   7    1.86    0.16 
   0  -1  -7    2.87    0.19 
   0  -1  -7    2.90    0.19 
   0  -1  -7    2.76    0.19 
   0   1   7    2.80    0.18 
   0   1   7    2.68    0.18 
   0   1   7    2.87    0.17 
  -1  -1  -7    0.04    0.02 
  -1  -1  -7   -0.01    0.04 
  -1  -1  -7    0.07    0.06 
  -1  -1  -7    0.01    0.06 
   1   1   7   -0.01    0.05 
   1   1   7    0.07    0.04 
   1   1   7    0.06    0.06 
  -2  -1  -7   16.45    0.53 
  -2  -1  -7   16.79    0.55 
  -2  -1  -7   16.00    0.54 
  -2  -1  -7   15.71    0.55 
  -2  -1  -7   16.98    0.55 
   2   1   7   16.38    0.51 
   2   1   7   15.41    0.52 
   2   1   7   16.98    0.54 
  -3  -1  -7    7.58    0.32 
  -3  -1  -7    7.51    0.30 
  -3  -1  -7    7.38    0.32 
  -3  -1  -7    7.65    0.33 
  -3  -1  -7    7.39    0.31 
   3   1   7    7.77    0.32 
   3   1   7    7.30    0.30 
   3   1   7    7.33    0.30 
  -4  -1  -7   13.76    0.51 
  -4  -1  -7   14.86    0.51 
  -4  -1  -7   13.67    0.50 
   4   1   7   15.14    0.54 
   4   1   7   13.79    0.48 
   4   1   7   14.46    0.46 
   4   1   7   13.17    0.48 
  -5  -1  -7   46.25    1.35 
  -5  -1  -7   45.88    1.31 
  -5  -1  -7   45.70    1.31 
   5   1   7   44.98    1.27 
   5   1   7   45.31    1.30 
   5   1   7   46.43    1.43 
  -6  -1  -7   26.22    0.86 
  -6  -1  -7   26.05    0.88 
  -6  -1  -7   26.94    0.86 
   6   1   7   27.14    0.81 
   6   1   7   26.44    0.82 
   6   1   7   27.23    0.94 
  -7  -1  -7    9.97    0.44 
  -7  -1  -7    9.75    0.45 
  -7  -1  -7    9.25    0.45 
   7   1   7    9.67    0.48 
   7   1   7    9.76    0.39 
  -8  -1  -7    6.79    0.37 
  -8  -1  -7    6.84    0.39 
  -8  -1  -7    7.45    0.40 
   8   1   7    7.09    0.42 
  -9  -1  -7    7.71    0.44 
  -9  -1  -7    8.50    0.43 
   9   1   7    8.44    0.49 
   7  -2  -7    3.15    0.29 
   6  -2  -7   29.48    1.04 
  -6   2   7   30.40    1.07 
   5  -2  -7   32.45    1.06 
   5  -2  -7   32.60    1.06 
  -5   2   7   30.61    1.06 
   4  -2  -7    0.85    0.18 
   4  -2  -7    0.64    0.14 
   4  -2  -7    0.80    0.15 
  -4   2   7    0.42    0.12 
  -4   2   7    0.61    0.12 
   3  -2  -7    0.43    0.12 
   3  -2  -7    0.37    0.11 
   3  -2  -7    0.41    0.12 
  -3   2   7    0.39    0.11 
  -3   2   7    0.50    0.10 
   2  -2  -7   59.21    1.65 
   2  -2  -7   60.28    1.64 
   2  -2  -7   57.04    1.68 
  -2   2   7   60.67    1.62 
  -2   2   7   59.98    1.67 
  -2   2   7   57.64    1.62 
   1  -2  -7   41.85    1.21 
   1  -2  -7   42.49    1.24 
   1  -2  -7   42.19    1.21 
  -1   2   7   41.50    1.19 
  -1   2   7   44.31    1.18 
  -1   2   7   42.70    1.22 
   0  -2  -7    5.84    0.26 
   0  -2  -7    5.93    0.27 
   0  -2  -7    5.52    0.27 
   0  -2  -7    5.59    0.26 
   0  -2  -7    5.51    0.27 
   0   2   7    5.62    0.25 
   0   2   7    5.49    0.25 
   0   2   7    5.80    0.24 
  -1  -2  -7   47.53    1.27 
  -1  -2  -7   46.85    1.30 
  -1  -2  -7   46.30    1.27 
  -1  -2  -7   45.83    1.31 
  -1  -2  -7   45.59    1.27 
   1   2   7   45.56    1.25 
   1   2   7   45.57    1.28 
  -2  -2  -7    4.02    0.21 
  -2  -2  -7    4.11    0.19 
  -2  -2  -7    3.58    0.20 
  -2  -2  -7    3.79    0.20 
  -2  -2  -7    4.18    0.20 
   2   2   7    3.83    0.18 
   2   2   7    3.63    0.18 
   2   2   7    3.64    0.17 
  -3  -2  -7    7.91    0.30 
  -3  -2  -7    7.32    0.30 
  -3  -2  -7    7.56    0.31 
  -3  -2  -7    7.51    0.32 
  -3  -2  -7    7.79    0.31 
   3   2   7    7.78    0.29 
   3   2   7    7.58    0.34 
   3   2   7    7.92    0.26 
   3   2   7    7.87    0.29 
  -4  -2  -7    7.50    0.32 
  -4  -2  -7    8.13    0.32 
  -4  -2  -7    7.97    0.33 
   4   2   7    8.13    0.29 
   4   2   7    8.08    0.27 
   4   2   7    7.82    0.36 
   4   2   7    7.83    0.29 
  -5  -2  -7   35.23    1.04 
  -5  -2  -7   34.98    1.04 
  -5  -2  -7   36.40    1.07 
   5   2   7   35.50    0.99 
   5   2   7   36.06    1.01 
   5   2   7   36.79    1.17 
  -6  -2  -7    5.83    0.28 
  -6  -2  -7    4.85    0.28 
  -6  -2  -7    4.68    0.27 
   6   2   7    5.85    0.33 
   6   2   7    5.11    0.24 
  -7  -2  -7    0.47    0.10 
  -7  -2  -7    0.58    0.13 
  -7  -2  -7    0.38    0.10 
   7   2   7    0.26    0.11 
  -8  -2  -7   13.78    0.58 
  -8  -2  -7   15.10    0.61 
  -8  -2  -7   14.88    0.58 
   8   2   7   15.57    0.68 
  -9  -2  -7   12.80    0.54 
  -9  -2  -7   12.11    0.56 
   9   2   7   13.17    0.65 
   6  -3  -7    0.91    0.18 
   6  -3  -7    0.89    0.17 
  -6   3   7    1.03    0.19 
   5  -3  -7    0.17    0.12 
   5  -3  -7    0.04    0.09 
  -5   3   7    0.24    0.11 
   4  -3  -7   24.56    0.88 
   4  -3  -7   24.72    0.85 
   4  -3  -7   24.66    0.85 
  -4   3   7   24.74    0.86 
   3  -3  -7   16.62    0.62 
   3  -3  -7   16.49    0.64 
   3  -3  -7   17.47    0.62 
  -3   3   7   17.04    0.62 
  -3   3   7   16.98    0.58 
   2  -3  -7    0.24    0.08 
   2  -3  -7    0.10    0.07 
   2  -3  -7    0.35    0.10 
  -2   3   7    0.18    0.06 
  -2   3   7    0.24    0.09 
   1  -3  -7    1.82    0.17 
   1  -3  -7    1.81    0.16 
   1  -3  -7    1.89    0.16 
  -1   3   7    2.22    0.14 
  -1   3   7    2.25    0.16 
  -1   3   7    1.99    0.16 
   0  -3  -7   66.39    1.80 
   0  -3  -7   65.97    1.80 
   0  -3  -7   67.16    1.79 
   0  -3  -7   70.07    1.85 
   0  -3  -7   66.33    1.84 
   0   3   7   67.58    1.75 
   0   3   7   68.23    1.81 
   0   3   7   67.36    1.77 
  -1  -3  -7   36.80    1.07 
  -1  -3  -7   38.38    1.04 
  -1  -3  -7   37.45    1.04 
  -1  -3  -7   38.84    1.07 
  -1  -3  -7   35.91    1.04 
   1   3   7   36.44    1.01 
   1   3   7   36.94    1.03 
   1   3   7   37.53    0.99 
  -2  -3  -7   15.37    0.51 
  -2  -3  -7   15.95    0.51 
  -2  -3  -7   16.71    0.49 
  -2  -3  -7   15.11    0.49 
  -2  -3  -7   14.75    0.49 
   2   3   7   14.99    0.46 
   2   3   7   15.44    0.46 
  -3  -3  -7   23.74    0.74 
  -3  -3  -7   26.44    0.75 
  -3  -3  -7   25.79    0.72 
  -3  -3  -7   24.20    0.72 
  -3  -3  -7   24.28    0.73 
   3   3   7   25.74    0.85 
   3   3   7   24.33    0.68 
   3   3   7   25.08    0.69 
  -4  -3  -7   23.60    0.70 
  -4  -3  -7   22.74    0.69 
  -4  -3  -7   23.28    0.72 
  -4  -3  -7   24.59    0.72 
   4   3   7   23.50    0.64 
   4   3   7   23.99    0.64 
   4   3   7   23.11    0.82 
  -5  -3  -7   34.96    1.00 
  -5  -3  -7   34.27    0.99 
  -5  -3  -7   34.69    1.02 
   5   3   7   35.25    0.92 
   5   3   7   35.01    1.16 
  -6  -3  -7   10.75    0.41 
  -6  -3  -7   10.49    0.41 
  -6  -3  -7   11.10    0.43 
   6   3   7   11.07    0.51 
  -7  -3  -7   22.28    0.73 
  -7  -3  -7   23.12    0.76 
  -7  -3  -7   22.12    0.73 
   7   3   7   21.36    0.85 
  -8  -3  -7   18.72    0.69 
  -8  -3  -7   20.04    0.68 
  -8  -3  -7   18.37    0.68 
   8   3   7   19.36    0.81 
  -9  -3  -7    0.08    0.09 
  -9  -3  -7   -0.04    0.04 
   9   3   7   -0.01    0.11 
   6  -4  -7    0.99    0.19 
   6  -4  -7    1.27    0.22 
   5  -4  -7    9.80    0.49 
   5  -4  -7    9.50    0.47 
  -5   4   7    8.86    0.46 
   4  -4  -7   12.82    0.54 
   4  -4  -7   12.75    0.55 
  -4   4   7   12.47    0.53 
   3  -4  -7    7.19    0.38 
   3  -4  -7    6.76    0.36 
   3  -4  -7    6.67    0.35 
  -3   4   7    6.51    0.34 
   2  -4  -7    1.99    0.20 
   2  -4  -7    2.09    0.18 
   2  -4  -7    2.41    0.20 
  -2   4   7    1.85    0.17 
   1  -4  -7    9.80    0.40 
   1  -4  -7    9.99    0.41 
   1  -4  -7   10.72    0.41 
  -1   4   7   10.08    0.37 
  -1   4   7   10.10    0.38 
  -1   4   7    9.80    0.38 
   0  -4  -7   13.13    0.47 
   0  -4  -7   14.02    0.49 
   0  -4  -7   13.54    0.47 
   0  -4  -7   13.99    0.47 
   0   4   7   13.60    0.41 
   0   4   7   13.52    0.44 
   0   4   7   13.20    0.44 
  -1  -4  -7   48.76    1.34 
  -1  -4  -7   47.39    1.34 
  -1  -4  -7   49.28    1.38 
  -1  -4  -7   51.71    1.34 
  -1  -4  -7   51.27    1.38 
   1   4   7   49.43    1.32 
   1   4   7   49.90    1.30 
  -2  -4  -7    9.79    0.33 
  -2  -4  -7    9.70    0.35 
  -2  -4  -7    9.63    0.34 
  -2  -4  -7    9.30    0.34 
  -2  -4  -7   10.13    0.35 
   2   4   7    9.59    0.28 
  -3  -4  -7    5.85    0.24 
  -3  -4  -7    5.72    0.24 
  -3  -4  -7    6.24    0.25 
  -3  -4  -7    6.42    0.24 
  -3  -4  -7    6.19    0.23 
   3   4   7    6.18    0.33 
  -4  -4  -7    0.05    0.04 
  -4  -4  -7    0.00    0.01 
  -4  -4  -7    0.01    0.03 
  -4  -4  -7   -0.02    0.04 
   4   4   7    0.02    0.07 
  -5  -4  -7    6.03    0.25 
  -5  -4  -7    6.28    0.26 
  -5  -4  -7    6.07    0.25 
   5   4   7    5.86    0.34 
  -6  -4  -7    0.01    0.05 
  -6  -4  -7   -0.02    0.02 
  -6  -4  -7    0.05    0.05 
   6   4   7    0.04    0.08 
  -7  -4  -7    0.10    0.04 
  -7  -4  -7    0.12    0.07 
  -7  -4  -7    0.09    0.05 
   7   4   7    0.11    0.10 
  -8  -4  -7    8.92    0.39 
  -8  -4  -7    8.49    0.38 
  -8  -4  -7    8.67    0.37 
   8   4   7    8.78    0.49 
  -9  -4  -7    8.72    0.39 
  -9  -4  -7    9.07    0.42 
  -9  -4  -7    9.58    0.43 
   9   4   7   10.12    0.56 
   5  -5  -7   14.21    0.64 
   5  -5  -7   14.68    0.63 
   4  -5  -7    6.33    0.38 
   4  -5  -7    6.44    0.36 
   3  -5  -7    7.06    0.39 
   3  -5  -7    7.57    0.37 
  -3   5   7    6.97    0.34 
   2  -5  -7   26.52    0.87 
   2  -5  -7   28.65    0.91 
   2  -5  -7   27.11    0.87 
  -2   5   7   26.58    0.84 
   1  -5  -7   60.56    1.73 
   1  -5  -7   62.23    1.69 
   1  -5  -7   62.58    1.70 
  -1   5   7   61.92    1.64 
  -1   5   7   59.76    1.67 
   0  -5  -7    3.73    0.20 
   0  -5  -7    3.23    0.20 
   0  -5  -7    3.66    0.21 
   0   5   7    3.57    0.16 
   0   5   7    3.39    0.17 
  -1  -5  -7    0.03    0.03 
  -1  -5  -7   -0.01    0.05 
  -1  -5  -7   -0.01    0.05 
   1   5   7    0.09    0.03 
  -2  -5  -7   43.03    1.15 
  -2  -5  -7   41.80    1.17 
  -2  -5  -7   42.32    1.17 
  -2  -5  -7   41.79    1.13 
  -2  -5  -7   42.76    1.14 
  -3  -5  -7   54.61    1.44 
  -3  -5  -7   56.54    1.44 
  -3  -5  -7   54.41    1.44 
  -3  -5  -7   54.88    1.48 
  -4  -5  -7    6.64    0.23 
  -4  -5  -7    6.32    0.25 
  -4  -5  -7    6.40    0.24 
  -4  -5  -7    6.60    0.24 
   4   5   7    6.82    0.37 
  -5  -5  -7   16.35    0.50 
  -5  -5  -7   16.71    0.52 
  -5  -5  -7   16.51    0.50 
   5   5   7   15.90    0.67 
  -6  -5  -7    9.22    0.34 
  -6  -5  -7    9.35    0.33 
  -6  -5  -7    8.92    0.33 
   6   5   7    8.45    0.46 
  -7  -5  -7    1.69    0.14 
  -7  -5  -7    1.60    0.11 
  -7  -5  -7    1.75    0.14 
   7   5   7    1.44    0.22 
  -8  -5  -7    7.98    0.35 
  -8  -5  -7    7.44    0.34 
  -8  -5  -7    7.53    0.32 
   8   5   7    8.08    0.47 
  -9  -5  -7    0.18    0.07 
  -9  -5  -7    0.05    0.04 
   9   5   7   -0.02    0.12 
   5  -6  -7    1.57    0.23 
   5  -6  -7    1.31    0.23 
   4  -6  -7    0.62    0.17 
   4  -6  -7    0.48    0.10 
   3  -6  -7    0.32    0.09 
   3  -6  -7    0.27    0.12 
   2  -6  -7    0.96    0.14 
   2  -6  -7    0.97    0.16 
   1  -6  -7   10.54    0.44 
   1  -6  -7    9.94    0.42 
   1  -6  -7   10.37    0.42 
  -1   6   7   10.51    0.37 
   0  -6  -7   17.52    0.58 
   0  -6  -7   17.77    0.59 
   0  -6  -7   16.87    0.59 
   0   6   7   17.16    0.51 
  -1  -6  -7    9.06    0.34 
  -1  -6  -7    8.59    0.34 
  -1  -6  -7    9.29    0.35 
  -2  -6  -7    3.64    0.17 
  -2  -6  -7    3.56    0.18 
  -2  -6  -7    3.36    0.17 
  -3  -6  -7    3.25    0.13 
  -3  -6  -7    2.77    0.15 
  -3  -6  -7    2.96    0.14 
  -3  -6  -7    2.91    0.15 
  -4  -6  -7   24.53    0.69 
  -4  -6  -7   24.46    0.68 
  -4  -6  -7   24.75    0.68 
  -4  -6  -7   25.08    0.67 
   4   6   7   23.57    0.91 
  -5  -6  -7   56.82    1.48 
  -5  -6  -7   57.61    1.50 
  -5  -6  -7   58.11    1.52 
   5   6   7   56.32    1.83 
  -6  -6  -7    4.54    0.20 
  -6  -6  -7    4.63    0.20 
   6   6   7    4.61    0.34 
  -7  -6  -7    3.33    0.18 
  -7  -6  -7    3.01    0.17 
   7   6   7    2.92    0.28 
  -8  -6  -7   10.30    0.39 
  -8  -6  -7   10.00    0.39 
   8   6   7    9.74    0.55 
  -9  -6  -7    3.67    0.21 
  -9  -6  -7    4.04    0.24 
   9   6   7    4.12    0.36 
   4  -7  -7   -0.08    0.05 
   4  -7  -7   -0.11    0.09 
   3  -7  -7    6.96    0.40 
   3  -7  -7    7.28    0.38 
   2  -7  -7    1.34    0.14 
   2  -7  -7    0.88    0.16 
   1  -7  -7   15.17    0.57 
   1  -7  -7   15.76    0.56 
   0  -7  -7    3.81    0.21 
   0  -7  -7    3.64    0.22 
   0  -7  -7    3.71    0.23 
  -1  -7  -7   10.23    0.39 
  -1  -7  -7   11.01    0.39 
  -1  -7  -7   10.89    0.40 
  -2  -7  -7    0.19    0.06 
  -2  -7  -7    0.16    0.04 
  -2  -7  -7    0.14    0.05 
  -3  -7  -7    1.20    0.10 
  -3  -7  -7    1.37    0.10 
  -3  -7  -7    1.21    0.08 
  -4  -7  -7    0.30    0.05 
  -5  -7  -7   37.08    0.97 
   5   7   7   37.18    1.30 
  -6  -7  -7    0.18    0.04 
   6   7   7    0.15    0.12 
  -7  -7  -7    3.11    0.16 
   7   7   7    2.87    0.30 
  -8  -7  -7    0.22    0.06 
   8   7   7    0.12    0.11 
  -9  -7  -7    2.79    0.19 
   9   7   7    3.33    0.35 
   3  -8  -7    5.08    0.30 
   3  -8  -7    4.93    0.35 
   2  -8  -7    0.69    0.16 
   2  -8  -7    0.88    0.14 
   1  -8  -7   24.04    0.82 
   1  -8  -7   25.17    0.81 
   0  -8  -7    7.01    0.33 
   0  -8  -7    6.96    0.31 
  -1  -8  -7   17.39    0.58 
  -1  -8  -7   17.52    0.57 
  -2  -8  -7   11.18    0.40 
  -2  -8  -7   12.30    0.40 
  -2  -8  -7   11.46    0.41 
  -3  -8  -7    9.37    0.31 
  -3  -8  -7    9.28    0.32 
  -4  -8  -7    2.09    0.10 
   5   8   7   12.27    0.62 
   6   8   7    1.23    0.22 
  -7  -8  -7   37.14    1.00 
   7   8   7   38.13    1.39 
  -8  -8  -7    2.82    0.16 
   8   8   7    2.70    0.30 
   2  -9  -7   13.97    0.61 
   2  -9  -7   14.92    0.59 
   1  -9  -7    0.31    0.09 
   1  -9  -7    0.23    0.07 
   0  -9  -7    0.33    0.09 
   0  -9  -7    0.33    0.05 
  -1  -9  -7    0.06    0.05 
  -2  -9  -7    0.16    0.06 
  -3  -9  -7    8.14    0.29 
  -4  -9  -7    6.45    0.22 
   6   9   7    0.38    0.15 
   7   9   7    0.10    0.12 
   0 -10  -7    0.98    0.15 
  -1 -10  -7    3.26    0.21 
  -2 -10  -7    4.71    0.24 
  -3 -10  -7    1.22    0.11 
  -4 -10  -7    1.17    0.09 
  -1  -7   8    3.94    0.32 
  -1  -7   8    4.02    0.29 
   0   7  -8    2.72    0.24 
   0  -7   8    2.59    0.27 
   0  -7   8    2.08    0.21 
  -4  -6   8    7.44    0.45 
  -4  -6   8    7.88    0.43 
   3   6  -8    2.11    0.20 
  -3  -6   8    2.27    0.25 
  -3  -6   8    1.91    0.20 
   2   6  -8    1.13    0.17 
  -2  -6   8    1.29    0.22 
  -2  -6   8    1.20    0.20 
   1   6  -8    0.01    0.07 
  -1  -6   8   -0.03    0.05 
  -1  -6   8   -0.04    0.10 
   0   6  -8    1.81    0.20 
   0  -6   8    1.27    0.19 
   0  -6   8    1.58    0.23 
   0  -6   8    1.28    0.23 
  -1   6  -8    0.21    0.09 
   1  -6   8   -0.02    0.10 
   1  -6   8    0.08    0.06 
  -2   6  -8    0.63    0.15 
  -2   6  -8    0.34    0.10 
   2  -6   8    0.67    0.15 
   2  -6   8    0.79    0.18 
  -3   6  -8    2.40    0.25 
   3  -6   8    2.08    0.24 
  -5  -5   8   14.48    0.63 
  -5  -5   8   14.10    0.64 
   4   5  -8   15.26    0.60 
  -4  -5   8   14.37    0.63 
  -4  -5   8   14.22    0.63 
   3   5  -8    0.09    0.08 
  -3  -5   8    0.06    0.06 
  -3  -5   8    0.18    0.11 
  -3  -5   8    0.14    0.09 
   2   5  -8    1.07    0.17 
   2   5  -8    0.86    0.15 
  -2  -5   8    1.01    0.19 
  -2  -5   8    0.68    0.16 
  -2  -5   8    0.82    0.15 
   1   5  -8   21.98    0.78 
   1   5  -8   21.15    0.79 
  -1  -5   8   22.12    0.82 
  -1  -5   8   20.94    0.79 
  -1  -5   8   21.56    0.80 
   0   5  -8    3.09    0.26 
   0   5  -8    3.28    0.25 
   0  -5   8    3.12    0.25 
   0  -5   8    2.16    0.24 
   0  -5   8    2.86    0.26 
  -1   5  -8   11.04    0.52 
  -1   5  -8   12.20    0.52 
   1  -5   8   10.58    0.51 
   1  -5   8   10.97    0.52 
   1  -5   8   10.74    0.52 
  -2   5  -8    1.71    0.23 
  -2   5  -8    1.27    0.21 
   2  -5   8    1.60    0.22 
   2  -5   8    1.67    0.23 
   2  -5   8    1.34    0.21 
  -3   5  -8    4.23    0.32 
  -3   5  -8    4.70    0.33 
   3  -5   8    3.91    0.31 
   3  -5   8    4.23    0.32 
   3  -5   8    4.33    0.31 
  -4   5  -8   13.13    0.62 
  -4   5  -8   14.75    0.64 
   4  -5   8   14.05    0.63 
   4  -5   8   13.45    0.63 
   5   4  -8   -0.05    0.08 
  -5  -4   8    0.10    0.07 
  -5  -4   8   -0.04    0.08 
   4   4  -8    2.08    0.21 
  -4  -4   8    2.45    0.22 
  -4  -4   8    1.65    0.23 
  -4  -4   8    1.96    0.22 
   3   4  -8   29.11    0.99 
   3   4  -8   27.81    0.95 
  -3  -4   8   27.79    0.97 
  -3  -4   8   29.04    0.98 
  -3  -4   8   30.00    1.02 
   2   4  -8   24.16    0.86 
   2   4  -8   25.37    0.84 
  -2  -4   8   24.08    0.85 
  -2  -4   8   24.06    0.85 
  -2  -4   8   23.56    0.88 
   1   4  -8    0.52    0.15 
   1   4  -8    0.54    0.13 
  -1  -4   8    0.53    0.13 
  -1  -4   8    0.38    0.12 
  -1  -4   8    0.52    0.13 
   0   4  -8    0.01    0.09 
   0   4  -8    0.12    0.07 
   0  -4   8   -0.01    0.07 
   0  -4   8    0.10    0.09 
   0  -4   8   -0.11    0.05 
  -1   4  -8   10.78    0.50 
  -1   4  -8   10.97    0.49 
  -1   4  -8   10.38    0.47 
   1  -4   8   10.35    0.48 
   1  -4   8   10.37    0.50 
   1  -4   8   11.43    0.49 
  -2   4  -8   11.21    0.54 
  -2   4  -8   12.75    0.53 
  -2   4  -8   12.72    0.53 
   2  -4   8   12.08    0.53 
   2  -4   8   11.77    0.52 
   2  -4   8   11.92    0.54 
  -3   4  -8   28.18    0.99 
  -3   4  -8   28.11    0.97 
  -3   4  -8   27.37    0.95 
   3  -4   8   28.53    0.95 
   3  -4   8   28.40    0.97 
   3  -4   8   28.07    0.99 
  -4   4  -8    0.73    0.15 
  -4   4  -8    0.38    0.13 
   4  -4   8    0.36    0.13 
   4  -4   8    0.66    0.16 
  -5   4  -8    9.08    0.48 
  -5   4  -8    8.23    0.46 
   5  -4   8    7.63    0.44 
   5  -4   8    8.04    0.44 
   6   3  -8    8.90    0.46 
  -6  -3   8    8.86    0.48 
  -6  -3   8    9.30    0.48 
   5   3  -8    0.11    0.09 
  -5  -3   8    0.01    0.06 
  -5  -3   8    0.04    0.06 
  -5  -3   8    0.04    0.10 
   4   3  -8    7.18    0.38 
   4   3  -8    6.75    0.39 
  -4  -3   8    6.84    0.40 
  -4  -3   8    7.62    0.42 
  -4  -3   8    7.06    0.39 
   3   3  -8   -0.04    0.08 
   3   3  -8    0.03    0.07 
  -3  -3   8    0.08    0.10 
  -3  -3   8    0.02    0.08 
  -3  -3   8    0.07    0.07 
   2   3  -8   21.46    0.78 
   2   3  -8   21.32    0.74 
   2   3  -8   20.95    0.75 
  -2  -3   8   21.61    0.79 
  -2  -3   8   22.62    0.78 
  -2  -3   8   20.97    0.76 
   1   3  -8    3.31    0.25 
   1   3  -8    3.38    0.23 
   1   3  -8    3.01    0.25 
  -1  -3   8    3.55    0.26 
  -1  -3   8    3.30    0.24 
  -1  -3   8    3.11    0.25 
   0   3  -8    8.20    0.40 
   0   3  -8    8.67    0.43 
   0   3  -8    8.41    0.40 
   0  -3   8    8.54    0.42 
   0  -3   8    9.00    0.41 
   0  -3   8    7.85    0.40 
  -1   3  -8    2.34    0.22 
  -1   3  -8    2.47    0.22 
  -1   3  -8    2.47    0.23 
   1  -3   8    2.64    0.22 
   1  -3   8    2.53    0.22 
   1  -3   8    2.45    0.22 
  -2   3  -8    3.51    0.27 
  -2   3  -8    3.59    0.27 
  -2   3  -8    4.23    0.28 
   2  -3   8    3.66    0.27 
   2  -3   8    3.80    0.26 
   2  -3   8    3.77    0.26 
  -3   3  -8    0.80    0.16 
  -3   3  -8    1.05    0.17 
  -3   3  -8    0.71    0.16 
   3  -3   8    0.92    0.17 
   3  -3   8    0.84    0.14 
   3  -3   8    0.93    0.15 
  -4   3  -8    2.09    0.24 
  -4   3  -8    2.46    0.26 
  -4   3  -8    2.86    0.26 
   4  -3   8    2.70    0.24 
   4  -3   8    2.46    0.24 
  -5   3  -8    4.03    0.31 
  -5   3  -8    4.01    0.30 
  -5   3  -8    3.45    0.29 
   5  -3   8    3.69    0.29 
   5  -3   8    3.45    0.28 
  -6   3  -8    0.57    0.15 
  -6   3  -8    0.70    0.17 
   6  -3   8    0.64    0.14 
   6  -3   8    0.83    0.17 
   6   2  -8    8.43    0.44 
  -6  -2   8    7.58    0.43 
  -6  -2   8    7.77    0.45 
   5   2  -8    0.40    0.13 
   5   2  -8    0.56    0.14 
  -5  -2   8    0.27    0.11 
  -5  -2   8    0.31    0.12 
  -5  -2   8    0.44    0.15 
   4   2  -8   21.12    0.77 
   4   2  -8   19.95    0.73 
  -4  -2   8   19.74    0.74 
  -4  -2   8   18.94    0.75 
  -4  -2   8   19.16    0.74 
   3   2  -8    7.58    0.37 
   3   2  -8    7.49    0.40 
   3   2  -8    7.41    0.38 
  -3  -2   8    7.90    0.41 
  -3  -2   8    7.75    0.39 
  -3  -2   8    7.36    0.39 
   2   2  -8   49.20    1.37 
   2   2  -8   46.83    1.37 
   2   2  -8   46.29    1.41 
  -2  -2   8   45.13    1.36 
  -2  -2   8   46.48    1.38 
  -2  -2   8   45.23    1.41 
   1   2  -8   15.60    0.60 
   1   2  -8   15.08    0.58 
   1   2  -8   15.72    0.59 
  -1  -2   8   14.71    0.59 
  -1  -2   8   15.39    0.58 
  -1  -2   8   15.55    0.59 
   0   2  -8   59.80    1.66 
   0   2  -8   56.00    1.65 
   0   2  -8   57.62    1.70 
   0  -2   8   59.08    1.65 
   0  -2   8   59.47    1.66 
   0  -2   8   59.22    1.70 
  -1   2  -8    0.82    0.14 
  -1   2  -8    0.72    0.14 
  -1   2  -8    0.86    0.15 
   1  -2   8    0.87    0.16 
   1  -2   8    0.81    0.13 
   1  -2   8    0.80    0.13 
  -2   2  -8    2.87    0.24 
  -2   2  -8    2.68    0.23 
  -2   2  -8    2.80    0.22 
   2  -2   8    2.94    0.22 
   2  -2   8    2.69    0.20 
   2  -2   8    2.37    0.22 
  -3   2  -8   13.14    0.54 
  -3   2  -8   12.91    0.53 
  -3   2  -8   12.39    0.55 
   3  -2   8   13.03    0.54 
   3  -2   8   13.95    0.51 
   3  -2   8   13.54    0.53 
  -4   2  -8   25.04    0.86 
  -4   2  -8   24.78    0.86 
  -4   2  -8   25.17    0.89 
   4  -2   8   25.60    0.87 
   4  -2   8   25.40    0.85 
  -5   2  -8   10.21    0.48 
  -5   2  -8    9.85    0.48 
  -5   2  -8    9.19    0.48 
   5  -2   8   10.30    0.48 
   5  -2   8    9.97    0.46 
  -6   2  -8    7.39    0.43 
  -6   2  -8    8.10    0.45 
  -6   2  -8    8.60    0.44 
   6  -2   8    8.80    0.43 
   6  -2   8    7.70    0.41 
  -7   2  -8   -0.03    0.05 
  -7   2  -8    0.22    0.14 
   7  -2   8    0.07    0.08 
   6   1  -8    1.34    0.20 
   6   1  -8    0.99    0.19 
  -6  -1   8    1.26    0.21 
  -6  -1   8    0.74    0.17 
  -6  -1   8    0.92    0.18 
   5   1  -8    3.55    0.30 
   5   1  -8    3.88    0.29 
  -5  -1   8    3.64    0.29 
  -5  -1   8    3.66    0.29 
  -5  -1   8    3.89    0.29 
   4   1  -8    1.91    0.21 
   4   1  -8    1.95    0.25 
   4   1  -8    1.79    0.19 
  -4  -1   8    2.07    0.22 
  -4  -1   8    2.00    0.22 
  -4  -1   8    1.80    0.20 
   3   1  -8    6.72    0.36 
   3   1  -8    7.68    0.38 
   3   1  -8    7.38    0.39 
  -3  -1   8    7.53    0.39 
  -3  -1   8    7.59    0.38 
  -3  -1   8    6.74    0.36 
   2   1  -8    0.26    0.10 
   2   1  -8    0.33    0.10 
   2   1  -8    0.35    0.11 
  -2  -1   8    0.68    0.13 
  -2  -1   8    0.30    0.11 
  -2  -1   8    0.50    0.12 
   1   1  -8    3.35    0.23 
   1   1  -8    3.27    0.24 
   1   1  -8    3.43    0.24 
  -1  -1   8    3.06    0.23 
  -1  -1   8    2.95    0.22 
  -1  -1   8    2.89    0.21 
   0   1  -8   23.16    0.80 
   0   1  -8   23.12    0.78 
   0   1  -8   23.53    0.78 
   0  -1   8   24.17    0.78 
   0  -1   8   23.00    0.79 
   0  -1   8   25.02    0.77 
  -1   1  -8    1.99    0.20 
  -1   1  -8    1.95    0.19 
  -1   1  -8    2.20    0.19 
   1  -1   8    2.38    0.18 
   1  -1   8    2.14    0.18 
   1  -1   8    1.96    0.18 
  -2   1  -8   83.07    2.23 
  -2   1  -8   81.58    2.29 
  -2   1  -8   82.62    2.23 
   2  -1   8   80.27    2.20 
   2  -1   8   82.13    2.27 
   2  -1   8   83.73    2.22 
  -3   1  -8    0.91    0.15 
  -3   1  -8    1.46    0.17 
  -3   1  -8    1.11    0.16 
   3  -1   8    1.37    0.18 
   3  -1   8    1.26    0.16 
   3  -1   8    1.16    0.13 
  -4   1  -8    0.51    0.13 
  -4   1  -8    0.58    0.13 
  -4   1  -8    0.80    0.14 
   4  -1   8    0.79    0.10 
   4  -1   8    0.76    0.15 
   4  -1   8    0.68    0.13 
  -5   1  -8    1.88    0.19 
  -5   1  -8    1.80    0.21 
  -5   1  -8    1.39    0.20 
   5  -1   8    1.92    0.19 
   5  -1   8    1.49    0.15 
   5  -1   8    1.66    0.19 
  -6   1  -8   16.49    0.67 
  -6   1  -8   16.82    0.69 
  -6   1  -8   15.80    0.65 
   6  -1   8   17.32    0.64 
   6  -1   8   16.53    0.64 
   6  -1   8   17.08    0.63 
  -7   1  -8    4.96    0.33 
  -7   1  -8    4.41    0.34 
   7  -1   8    4.86    0.30 
  -8   1  -8   11.54    0.56 
  -8   1  -8   12.61    0.59 
   6   0  -8    4.26    0.32 
  -6   0   8    4.36    0.32 
   5   0  -8   22.93    0.86 
   5   0  -8   23.42    0.84 
  -5   0   8   23.50    0.87 
  -5   0   8   22.05    0.82 
   4   0  -8   16.13    0.62 
   4   0  -8   14.88    0.61 
   4   0  -8   15.18    0.63 
  -4   0   8   14.75    0.60 
  -4   0   8   15.41    0.61 
  -4   0   8   15.66    0.63 
   3   0  -8    0.65    0.14 
   3   0  -8    0.55    0.14 
   3   0  -8    0.51    0.13 
  -3   0   8    0.61    0.12 
  -3   0   8    0.36    0.10 
  -3   0   8    0.34    0.12 
   2   0  -8   13.16    0.55 
   2   0  -8   13.85    0.54 
   2   0  -8   14.36    0.55 
  -2   0   8   13.93    0.54 
  -2   0   8   14.46    0.53 
  -2   0   8   14.00    0.55 
   1   0  -8    8.28    0.39 
   1   0  -8    8.19    0.37 
   1   0  -8    8.70    0.39 
  -1   0   8    8.10    0.37 
  -1   0   8    8.92    0.37 
  -1   0   8    7.95    0.38 
   0   0  -8   31.20    0.96 
   0   0  -8   31.55    0.99 
   0   0  -8   29.39    0.95 
   0   0   8   32.30    0.97 
   0   0   8   31.61    0.95 
   0   0   8   31.68    0.94 
  -1   0  -8    0.32    0.10 
  -1   0  -8    0.05    0.08 
  -1   0  -8    0.11    0.07 
   1   0   8    0.17    0.06 
   1   0   8    0.08    0.07 
   1   0   8    0.13    0.07 
  -2   0  -8    0.31    0.10 
  -2   0  -8    0.24    0.09 
  -2   0  -8    0.45    0.10 
   2   0   8    0.24    0.08 
   2   0   8    0.28    0.09 
   2   0   8    0.37    0.08 
  -3   0  -8    1.07    0.15 
  -3   0  -8    0.98    0.14 
  -3   0  -8    0.90    0.14 
   3   0   8    0.93    0.11 
   3   0   8    1.09    0.14 
   3   0   8    1.03    0.15 
   3   0   8    0.96    0.12 
  -4   0  -8    6.22    0.33 
  -4   0  -8    6.46    0.33 
  -4   0  -8    6.49    0.32 
   4   0   8    5.87    0.31 
   4   0   8    6.20    0.29 
   4   0   8    6.16    0.30 
  -5   0  -8    5.14    0.31 
  -5   0  -8    5.55    0.31 
  -5   0  -8    5.12    0.31 
   5   0   8    5.36    0.28 
   5   0   8    5.62    0.30 
   5   0   8    4.30    0.27 
  -6   0  -8    5.27    0.31 
  -6   0  -8    5.36    0.33 
  -6   0  -8    4.90    0.32 
   6   0   8    5.72    0.32 
   6   0   8    5.25    0.29 
  -7   0  -8    0.27    0.10 
  -7   0  -8    0.35    0.11 
  -7   0  -8    0.19    0.12 
   7   0   8    0.22    0.10 
   7   0   8    0.33    0.09 
  -8   0  -8    0.05    0.05 
  -8   0  -8    0.04    0.11 
   8   0   8    0.05    0.08 
   6  -1  -8    0.03    0.08 
  -6   1   8   -0.04    0.06 
   5  -1  -8    0.15    0.10 
   5  -1  -8    0.01    0.10 
   5  -1  -8   -0.11    0.07 
  -5   1   8    0.06    0.09 
   4  -1  -8    0.82    0.16 
   4  -1  -8    0.97    0.17 
   4  -1  -8    1.33    0.19 
  -4   1   8    0.97    0.16 
  -4   1   8    1.02    0.18 
  -4   1   8    1.28    0.18 
   3  -1  -8   83.42    2.27 
   3  -1  -8   82.17    2.33 
   3  -1  -8   80.98    2.26 
  -3   1   8   81.82    2.25 
  -3   1   8   83.91    2.24 
  -3   1   8   81.29    2.30 
   2  -1  -8   19.15    0.70 
   2  -1  -8   17.68    0.66 
   2  -1  -8   18.56    0.67 
  -2   1   8   20.02    0.67 
  -2   1   8   18.97    0.68 
  -2   1   8   19.81    0.65 
   1  -1  -8   24.38    0.84 
   1  -1  -8   26.03    0.83 
   1  -1  -8   26.60    0.83 
  -1   1   8   24.97    0.82 
  -1   1   8   26.57    0.80 
  -1   1   8   25.45    0.81 
   0  -1  -8   12.86    0.51 
   0  -1  -8   13.77    0.51 
   0  -1  -8   13.04    0.50 
   0   1   8   14.06    0.49 
   0   1   8   14.08    0.50 
   0   1   8   13.58    0.47 
  -1  -1  -8    7.13    0.33 
  -1  -1  -8    6.98    0.33 
  -1  -1  -8    7.48    0.33 
   1   1   8    7.41    0.30 
   1   1   8    6.93    0.31 
   1   1   8    7.20    0.32 
  -2  -1  -8  102.14    2.87 
  -2  -1  -8  108.71    2.81 
  -2  -1  -8  108.78    2.80 
   2   1   8  106.32    2.76 
   2   1   8  109.23    2.84 
   2   1   8  107.62    2.77 
  -3  -1  -8   14.97    0.55 
  -3  -1  -8   14.90    0.56 
  -3  -1  -8   15.64    0.55 
   3   1   8   16.00    0.53 
   3   1   8   16.22    0.51 
   3   1   8   15.64    0.54 
   3   1   8   15.40    0.56 
  -4  -1  -8    7.31    0.34 
  -4  -1  -8    7.56    0.35 
  -4  -1  -8    7.59    0.35 
   4   1   8    7.73    0.35 
   4   1   8    7.58    0.32 
   4   1   8    7.78    0.33 
  -5  -1  -8    8.14    0.38 
  -5  -1  -8    8.01    0.38 
  -5  -1  -8    7.84    0.37 
   5   1   8    8.90    0.39 
   5   1   8    7.92    0.34 
   5   1   8    8.27    0.35 
  -6  -1  -8    0.28    0.08 
  -6  -1  -8    0.31    0.11 
  -6  -1  -8    0.40    0.11 
   6   1   8    0.32    0.08 
   6   1   8    0.32    0.11 
  -7  -1  -8    0.83    0.15 
  -7  -1  -8    0.79    0.16 
  -7  -1  -8    1.06    0.16 
   7   1   8    0.72    0.16 
  -8  -1  -8   27.48    0.97 
  -8  -1  -8   27.38    0.96 
   8   1   8   29.01    1.06 
   6  -2  -8    1.06    0.19 
  -6   2   8    1.06    0.19 
   5  -2  -8    1.82    0.21 
   5  -2  -8    1.57    0.23 
  -5   2   8    1.32    0.19 
   4  -2  -8    3.57    0.28 
   4  -2  -8    3.33    0.26 
   4  -2  -8    3.05    0.27 
  -4   2   8    3.46    0.27 
   3  -2  -8    0.72    0.15 
   3  -2  -8    1.33    0.18 
   3  -2  -8    0.70    0.15 
  -3   2   8    1.05    0.15 
  -3   2   8    0.94    0.14 
  -3   2   8    0.93    0.15 
   2  -2  -8   16.36    0.64 
   2  -2  -8   17.46    0.62 
   2  -2  -8   16.34    0.62 
  -2   2   8   17.48    0.59 
  -2   2   8   16.98    0.62 
  -2   2   8   18.19    0.61 
   1  -2  -8   22.11    0.72 
   1  -2  -8   21.28    0.72 
   1  -2  -8   21.81    0.74 
  -1   2   8   21.54    0.71 
  -1   2   8   21.92    0.71 
  -1   2   8   21.98    0.68 
   0  -2  -8    0.06    0.06 
   0  -2  -8    0.07    0.06 
   0  -2  -8    0.06    0.07 
   0   2   8    0.10    0.06 
   0   2   8    0.01    0.04 
   0   2   8    0.01    0.06 
  -1  -2  -8   20.67    0.67 
  -1  -2  -8   20.37    0.69 
  -1  -2  -8   21.27    0.68 
   1   2   8   22.53    0.66 
   1   2   8   20.24    0.66 
  -2  -2  -8    1.02    0.13 
  -2  -2  -8    1.17    0.12 
  -2  -2  -8    1.26    0.14 
  -2  -2  -8    1.24    0.11 
   2   2   8    1.28    0.10 
   2   2   8    1.43    0.12 
   2   2   8    1.17    0.12 
  -3  -2  -8   18.05    0.60 
  -3  -2  -8   18.06    0.61 
  -3  -2  -8   17.83    0.59 
  -3  -2  -8   18.47    0.61 
   3   2   8   17.61    0.56 
   3   2   8   18.35    0.65 
   3   2   8   17.82    0.57 
   3   2   8   17.90    0.54 
  -4  -2  -8   24.36    0.77 
  -4  -2  -8   23.89    0.78 
  -4  -2  -8   23.82    0.77 
   4   2   8   25.57    0.85 
   4   2   8   24.37    0.73 
   4   2   8   25.21    0.74 
  -5  -2  -8    1.22    0.14 
  -5  -2  -8    1.06    0.14 
  -5  -2  -8    1.00    0.13 
   5   2   8    1.10    0.10 
   5   2   8    1.15    0.13 
   5   2   8    1.00    0.15 
  -6  -2  -8    3.33    0.24 
  -6  -2  -8    3.50    0.22 
  -6  -2  -8    3.66    0.24 
   6   2   8    3.01    0.25 
   6   2   8    3.26    0.19 
  -7  -2  -8    5.55    0.32 
  -7  -2  -8    5.53    0.33 
  -7  -2  -8    5.93    0.31 
   7   2   8    5.53    0.35 
  -8  -2  -8    1.45    0.14 
  -8  -2  -8    1.22    0.19 
  -8  -2  -8    1.16    0.18 
   8   2   8    1.46    0.24 
  -9  -2  -8   -0.02    0.04 
  -9  -2  -8    0.02    0.09 
   9   2   8   -0.17    0.07 
   6  -3  -8    9.66    0.51 
  -6   3   8    9.43    0.48 
   5  -3  -8    0.26    0.11 
   5  -3  -8    0.39    0.15 
  -5   3   8    0.08    0.09 
   4  -3  -8    8.67    0.43 
   4  -3  -8    8.65    0.46 
   4  -3  -8    8.94    0.46 
  -4   3   8    9.11    0.45 
   3  -3  -8    6.14    0.33 
   3  -3  -8    4.65    0.32 
   3  -3  -8    5.89    0.34 
  -3   3   8    5.61    0.32 
   2  -3  -8    8.53    0.41 
   2  -3  -8    8.97    0.41 
   2  -3  -8    9.10    0.40 
  -2   3   8    8.52    0.39 
  -2   3   8    9.49    0.39 
   1  -3  -8   64.22    1.80 
   1  -3  -8   62.72    1.75 
   1  -3  -8   63.59    1.75 
  -1   3   8   63.40    1.72 
  -1   3   8   62.41    1.75 
   0  -3  -8   75.58    2.05 
   0  -3  -8   77.81    2.06 
   0  -3  -8   78.15    2.11 
   0   3   8   74.26    2.02 
   0   3   8   76.93    2.00 
   0   3   8   76.98    2.06 
  -1  -3  -8    8.02    0.34 
  -1  -3  -8    7.85    0.35 
  -1  -3  -8    8.12    0.35 
  -1  -3  -8    9.07    0.35 
   1   3   8    8.17    0.31 
   1   3   8    8.56    0.32 
   1   3   8    8.36    0.29 
  -2  -3  -8   28.64    0.84 
  -2  -3  -8   28.03    0.87 
  -2  -3  -8   29.15    0.86 
  -2  -3  -8   29.17    0.85 
   2   3   8   27.44    0.80 
   2   3   8   28.71    0.82 
  -3  -3  -8    0.14    0.06 
  -3  -3  -8    0.00    0.05 
  -3  -3  -8    0.06    0.02 
  -3  -3  -8    0.08    0.06 
   3   3   8    0.05    0.05 
   3   3   8    0.05    0.03 
  -4  -3  -8   37.22    1.11 
  -4  -3  -8   37.51    1.08 
  -4  -3  -8   37.66    1.08 
   4   3   8   38.48    1.02 
   4   3   8   37.91    1.03 
   4   3   8   39.95    1.24 
  -5  -3  -8    0.74    0.11 
  -5  -3  -8    0.88    0.13 
  -5  -3  -8    0.69    0.11 
   5   3   8    0.63    0.14 
   5   3   8    0.59    0.08 
  -6  -3  -8    2.62    0.20 
  -6  -3  -8    2.64    0.20 
  -6  -3  -8    3.20    0.19 
   6   3   8    2.59    0.24 
  -7  -3  -8    2.44    0.20 
  -7  -3  -8    2.52    0.18 
  -7  -3  -8    2.23    0.19 
   7   3   8    2.52    0.24 
  -8  -3  -8    5.04    0.28 
  -8  -3  -8    5.14    0.32 
  -8  -3  -8    5.17    0.31 
   8   3   8    5.48    0.37 
  -9  -3  -8   -0.13    0.07 
  -9  -3  -8   -0.03    0.04 
   9   3   8    0.07    0.11 
   5  -4  -8    2.11    0.27 
   5  -4  -8    3.08    0.25 
   4  -4  -8    7.61    0.39 
   4  -4  -8    6.80    0.40 
  -4   4   8    6.38    0.36 
   3  -4  -8    2.97    0.22 
   3  -4  -8    2.68    0.25 
   3  -4  -8    3.01    0.26 
  -3   4   8    2.53    0.21 
   2  -4  -8    5.67    0.32 
   2  -4  -8    5.74    0.32 
   2  -4  -8    5.87    0.31 
  -2   4   8    5.29    0.29 
  -2   4   8    5.56    0.29 
   1  -4  -8    0.94    0.15 
   1  -4  -8    0.86    0.14 
   1  -4  -8    0.81    0.12 
  -1   4   8    1.09    0.13 
  -1   4   8    1.11    0.14 
   0  -4  -8   -0.05    0.04 
   0  -4  -8    0.03    0.07 
   0  -4  -8    0.05    0.06 
   0   4   8   -0.01    0.03 
   0   4   8   -0.08    0.05 
  -1  -4  -8   50.56    1.48 
  -1  -4  -8   51.62    1.44 
  -1  -4  -8   54.08    1.48 
  -1  -4  -8   52.95    1.45 
   1   4   8   53.64    1.39 
   1   4   8   52.85    1.41 
  -2  -4  -8   65.92    1.76 
  -2  -4  -8   66.14    1.76 
  -2  -4  -8   70.90    1.86 
  -2  -4  -8   63.63    1.80 
   2   4   8   64.61    1.69 
  -3  -4  -8    9.75    0.37 
  -3  -4  -8    9.99    0.36 
  -3  -4  -8    9.97    0.36 
   3   4   8    9.79    0.29 
  -4  -4  -8   14.76    0.48 
  -4  -4  -8   14.44    0.49 
  -4  -4  -8   14.42    0.48 
   4   4   8   14.60    0.60 
  -5  -4  -8   -0.04    0.03 
  -5  -4  -8    0.01    0.04 
  -5  -4  -8    0.00    0.05 
   5   4   8   -0.02    0.08 
  -6  -4  -8   42.46    1.25 
  -6  -4  -8   44.67    1.25 
  -6  -4  -8   44.03    1.28 
   6   4   8   46.46    1.48 
  -7  -4  -8    1.98    0.14 
  -7  -4  -8    1.99    0.17 
  -7  -4  -8    2.05    0.17 
   7   4   8    2.14    0.24 
  -8  -4  -8    0.22    0.06 
  -8  -4  -8    0.22    0.07 
  -8  -4  -8    0.14    0.08 
   8   4   8    0.26    0.13 
  -9  -4  -8    0.88    0.15 
  -9  -4  -8    0.69    0.10 
   9   4   8    0.81    0.20 
   5  -5  -8    3.89    0.29 
   5  -5  -8    3.39    0.32 
   4  -5  -8    2.69    0.23 
   4  -5  -8    2.30    0.26 
   3  -5  -8    0.19    0.08 
   3  -5  -8    0.17    0.12 
   2  -5  -8    0.64    0.14 
   2  -5  -8    0.85    0.13 
   2  -5  -8    0.80    0.15 
  -2   5   8    0.81    0.12 
   1  -5  -8   33.02    1.00 
   1  -5  -8   31.54    0.98 
   1  -5  -8   32.21    1.02 
  -1   5   8   32.64    0.94 
   0  -5  -8    0.65    0.12 
   0  -5  -8    0.78    0.11 
   0  -5  -8    0.73    0.12 
   0   5   8    0.62    0.09 
  -1  -5  -8    0.60    0.10 
  -1  -5  -8    0.61    0.10 
  -1  -5  -8    0.53    0.09 
   1   5   8    0.60    0.07 
  -2  -5  -8   24.45    0.73 
  -2  -5  -8   23.90    0.75 
  -2  -5  -8   25.32    0.73 
  -3  -5  -8   12.57    0.44 
  -3  -5  -8   12.43    0.42 
  -3  -5  -8   12.83    0.42 
  -4  -5  -8   11.10    0.38 
  -4  -5  -8   10.94    0.39 
  -4  -5  -8   11.19    0.39 
   4   5   8   11.69    0.53 
  -5  -5  -8    0.21    0.06 
  -5  -5  -8    0.16    0.06 
  -5  -5  -8    0.23    0.05 
   5   5   8    0.24    0.10 
  -6  -5  -8    0.58    0.10 
  -6  -5  -8    0.45    0.09 
  -6  -5  -8    0.51    0.07 
   6   5   8    0.43    0.13 
  -7  -5  -8    1.94    0.13 
  -7  -5  -8    1.81    0.15 
  -7  -5  -8    1.79    0.14 
   7   5   8    1.68    0.25 
  -8  -5  -8    8.51    0.37 
  -8  -5  -8    8.46    0.37 
   8   5   8    8.78    0.51 
  -9  -5  -8    0.53    0.12 
   9   5   8    0.53    0.17 
   4  -6  -8    2.76    0.23 
   4  -6  -8    2.72    0.28 
   3  -6  -8   19.57    0.75 
   3  -6  -8   20.05    0.74 
   2  -6  -8   13.66    0.57 
   2  -6  -8   13.62    0.56 
   2  -6  -8   13.53    0.54 
  -2   6   8   13.77    0.52 
   1  -6  -8    2.45    0.22 
   1  -6  -8    2.72    0.19 
   1  -6  -8    2.43    0.20 
   0  -6  -8    0.13    0.05 
   0  -6  -8    0.23    0.07 
   0  -6  -8    0.13    0.07 
  -1  -6  -8   34.66    1.00 
  -1  -6  -8   35.51    1.03 
  -1  -6  -8   33.57    1.00 
  -2  -6  -8    3.02    0.16 
  -2  -6  -8    2.54    0.17 
  -2  -6  -8    2.98    0.18 
  -3  -6  -8   36.35    1.01 
  -3  -6  -8   36.61    1.00 
  -3  -6  -8   36.77    1.04 
  -4  -6  -8   54.23    1.46 
  -4  -6  -8   56.89    1.50 
  -4  -6  -8   54.70    1.45 
  -5  -6  -8    0.09    0.04 
  -5  -6  -8    0.13    0.05 
   5   6   8    0.13    0.11 
  -6  -6  -8    0.18    0.06 
  -6  -6  -8    0.27    0.06 
   6   6   8    0.30    0.14 
  -7  -6  -8    0.09    0.03 
  -7  -6  -8    0.10    0.05 
   7   6   8    0.08    0.11 
  -8  -6  -8    5.42    0.27 
  -8  -6  -8    5.70    0.27 
   8   6   8    6.09    0.42 
  -9  -6  -8    2.86    0.18 
  -9  -6  -8    2.73    0.20 
   9   6   8    2.59    0.32 
   3  -7  -8    0.10    0.10 
   3  -7  -8    0.00    0.04 
   2  -7  -8    0.50    0.15 
   2  -7  -8    0.39    0.09 
   1  -7  -8    0.35    0.12 
   1  -7  -8    0.58    0.11 
   0  -7  -8    3.00    0.21 
   0  -7  -8    3.39    0.22 
   0  -7  -8    3.46    0.20 
  -1  -7  -8    0.12    0.03 
  -1  -7  -8   -0.01    0.04 
  -1  -7  -8    0.02    0.06 
  -2  -7  -8    2.51    0.16 
  -2  -7  -8    2.65    0.14 
  -2  -7  -8    2.37    0.16 
  -3  -7  -8   33.38    0.93 
  -3  -7  -8   33.77    0.92 
  -3  -7  -8   32.83    0.95 
  -4  -7  -8    0.03    0.04 
  -4  -7  -8    0.08    0.04 
  -5  -7  -8    5.22    0.21 
  -5  -7  -8    5.15    0.21 
   5   7   8    5.45    0.39 
  -6  -7  -8   29.37    0.83 
   6   7   8   30.87    1.14 
  -7  -7  -8    5.57    0.24 
   7   7   8    5.47    0.41 
  -8  -7  -8    0.14    0.06 
   8   7   8    0.00    0.11 
   2  -8  -8    5.79    0.32 
   2  -8  -8    5.68    0.35 
   1  -8  -8    7.22    0.38 
   1  -8  -8    8.01    0.37 
   0  -8  -8    9.64    0.40 
   0  -8  -8    9.84    0.42 
  -1  -8  -8    0.68    0.11 
  -1  -8  -8    0.52    0.10 
  -1  -8  -8    0.68    0.07 
  -2  -8  -8    0.06    0.04 
  -2  -8  -8    0.06    0.05 
  -3  -8  -8   16.17    0.51 
  -3  -8  -8   16.45    0.52 
  -4  -8  -8   18.79    0.55 
  -5  -8  -8    1.12    0.08 
  -6  -8  -8    9.09    0.30 
   6   8   8    9.00    0.54 
  -7  -8  -8    2.82    0.14 
   7   8   8    3.03    0.32 
  -8  -8  -8    7.05    0.28 
   8   8   8    6.88    0.50 
   1  -9  -8   17.75    0.69 
   1  -9  -8   18.57    0.67 
   0  -9  -8    5.73    0.29 
   0  -9  -8    6.08    0.32 
  -1  -9  -8    3.19    0.21 
  -2  -9  -8    9.16    0.36 
  -3  -9  -8    2.08    0.14 
  -4  -9  -8    1.62    0.11 
  -5  -9  -8    6.34    0.22 
  -7  -9  -8    0.19    0.04 
   7   9   8    0.16    0.14 
  -1 -10  -8   14.69    0.55 
  -2 -10  -8    0.18    0.07 
  -3 -10  -8   -0.01    0.04 
  -4 -10  -8    1.79    0.11 
   2   6  -9    1.38    0.20 
  -2  -6   9    1.40    0.23 
  -2  -6   9    0.90    0.17 
   1   6  -9    8.73    0.45 
  -1  -6   9    8.91    0.47 
  -1  -6   9    8.79    0.48 
   0   6  -9   10.84    0.52 
   0  -6   9    9.92    0.52 
   0  -6   9   10.27    0.52 
  -1   6  -9    0.72    0.16 
   1  -6   9    1.09    0.20 
   1  -6   9    0.73    0.16 
   3   5  -9    0.34    0.12 
  -3  -5   9    0.22    0.08 
  -3  -5   9    0.18    0.11 
   2   5  -9    2.97    0.26 
  -2  -5   9    2.79    0.25 
  -2  -5   9    2.63    0.27 
   1   5  -9    3.66    0.29 
   1   5  -9    2.96    0.24 
  -1  -5   9    2.93    0.26 
  -1  -5   9    3.42    0.26 
  -1  -5   9    3.02    0.28 
   0   5  -9    0.05    0.10 
   0   5  -9    0.00    0.08 
   0  -5   9    0.20    0.09 
   0  -5   9    0.17    0.09 
   0  -5   9   -0.07    0.09 
  -1   5  -9    2.07    0.23 
  -1   5  -9    1.99    0.23 
   1  -5   9    2.20    0.24 
   1  -5   9    1.76    0.20 
   1  -5   9    1.52    0.22 
  -2   5  -9    0.72    0.15 
  -2   5  -9    0.67    0.15 
   2  -5   9    0.72    0.14 
   2  -5   9    0.89    0.17 
  -3   5  -9    7.69    0.45 
  -3   5  -9    7.89    0.45 
   3  -5   9    7.99    0.46 
   4   4  -9    2.01    0.22 
  -4  -4   9    2.22    0.22 
  -4  -4   9    2.31    0.29 
   3   4  -9    6.56    0.38 
   3   4  -9    6.77    0.39 
  -3  -4   9    6.77    0.40 
  -3  -4   9    6.74    0.40 
  -3  -4   9    6.52    0.38 
   2   4  -9   -0.06    0.08 
   2   4  -9    0.09    0.08 
  -2  -4   9    0.05    0.09 
  -2  -4   9    0.14    0.08 
  -2  -4   9   -0.04    0.09 
   1   4  -9    0.25    0.11 
   1   4  -9    0.23    0.11 
  -1  -4   9   -0.01    0.10 
  -1  -4   9    0.17    0.11 
  -1  -4   9    0.15    0.10 
   0   4  -9   17.45    0.71 
   0   4  -9   18.51    0.70 
   0  -4   9   17.88    0.70 
   0  -4   9   16.98    0.71 
   0  -4   9   17.76    0.70 
  -1   4  -9   16.00    0.64 
  -1   4  -9   15.31    0.65 
   1  -4   9   15.49    0.66 
   1  -4   9   14.67    0.62 
   1  -4   9   15.66    0.65 
  -2   4  -9   11.75    0.57 
  -2   4  -9   13.17    0.57 
   2  -4   9   13.02    0.57 
   2  -4   9   11.41    0.53 
   2  -4   9   12.50    0.58 
  -3   4  -9    6.97    0.40 
  -3   4  -9    6.04    0.40 
   3  -4   9    7.06    0.40 
   3  -4   9    6.52    0.40 
  -4   4  -9    0.05    0.07 
  -4   4  -9    0.02    0.10 
   4  -4   9    0.13    0.08 
   4  -4   9    0.03    0.09 
  -5   4  -9   33.66    1.15 
   5  -4   9   32.41    1.13 
   5  -4   9   31.47    1.13 
   5   3  -9    1.35    0.21 
  -5  -3   9    1.56    0.23 
  -5  -3   9    1.75    0.20 
   4   3  -9   20.44    0.77 
   4   3  -9   19.29    0.78 
  -4  -3   9   21.01    0.83 
  -4  -3   9   20.82    0.79 
  -4  -3   9   20.56    0.80 
   3   3  -9    3.77    0.31 
   3   3  -9    4.49    0.31 
  -3  -3   9    4.18    0.32 
  -3  -3   9    4.35    0.32 
  -3  -3   9    4.24    0.31 
   2   3  -9    0.01    0.08 
   2   3  -9    0.19    0.09 
  -2  -3   9    0.24    0.11 
  -2  -3   9    0.14    0.10 
  -2  -3   9    0.21    0.11 
   1   3  -9    2.11    0.23 
   1   3  -9    1.71    0.22 
  -1  -3   9    1.86    0.24 
  -1  -3   9    2.05    0.22 
  -1  -3   9    2.05    0.22 
   0   3  -9    0.74    0.15 
   0   3  -9    0.42    0.13 
   0   3  -9    0.68    0.14 
   0  -3   9    0.55    0.13 
   0  -3   9    0.56    0.14 
   0  -3   9    0.45    0.13 
  -1   3  -9    0.08    0.11 
  -1   3  -9    0.08    0.08 
  -1   3  -9    0.20    0.12 
   1  -3   9    0.20    0.10 
   1  -3   9    0.13    0.08 
   1  -3   9    0.19    0.09 
  -2   3  -9    9.54    0.46 
  -2   3  -9    8.86    0.47 
  -2   3  -9    9.08    0.45 
   2  -3   9    9.92    0.46 
   2  -3   9    9.38    0.46 
   2  -3   9    9.40    0.44 
  -3   3  -9    9.11    0.48 
  -3   3  -9    9.55    0.47 
  -3   3  -9    9.47    0.47 
   3  -3   9    8.94    0.46 
   3  -3   9    9.57    0.46 
  -4   3  -9   12.42    0.57 
  -4   3  -9   12.37    0.57 
  -4   3  -9   12.38    0.58 
   4  -3   9   11.96    0.56 
   4  -3   9   13.17    0.57 
  -5   3  -9    0.74    0.15 
  -5   3  -9    1.23    0.21 
  -5   3  -9    1.62    0.23 
   5  -3   9    1.39    0.21 
   5  -3   9    1.43    0.22 
  -6   3  -9    3.29    0.30 
  -6   3  -9    3.52    0.31 
   6  -3   9    3.52    0.30 
   5   2  -9    0.03    0.08 
   5   2  -9    0.12    0.09 
  -5  -2   9    0.02    0.09 
  -5  -2   9    0.26    0.11 
   4   2  -9    6.77    0.40 
   4   2  -9    6.32    0.38 
  -4  -2   9    7.15    0.40 
  -4  -2   9    6.87    0.40 
  -4  -2   9    5.99    0.39 
   3   2  -9   13.93    0.57 
   3   2  -9   13.02    0.59 
  -3  -2   9   13.83    0.59 
  -3  -2   9   12.85    0.56 
  -3  -2   9   12.98    0.59 
   2   2  -9   13.92    0.56 
   2   2  -9   12.97    0.57 
   2   2  -9   12.89    0.55 
  -2  -2   9   13.63    0.57 
  -2  -2   9   13.92    0.56 
  -2  -2   9   12.85    0.57 
   1   2  -9    0.00    0.07 
   1   2  -9    0.23    0.12 
   1   2  -9    0.29    0.12 
  -1  -2   9    0.19    0.11 
  -1  -2   9    0.14    0.10 
  -1  -2   9    0.33    0.11 
   0   2  -9    3.70    0.27 
   0   2  -9    3.92    0.27 
   0   2  -9    3.60    0.28 
   0  -2   9    3.48    0.27 
   0  -2   9    3.36    0.25 
   0  -2   9    3.48    0.26 
  -1   2  -9    0.97    0.17 
  -1   2  -9    0.60    0.14 
  -1   2  -9    0.76    0.14 
   1  -2   9    0.75    0.14 
   1  -2   9    0.97    0.16 
   1  -2   9    0.90    0.17 
  -2   2  -9   12.82    0.56 
  -2   2  -9   13.01    0.54 
  -2   2  -9   13.04    0.54 
   2  -2   9   12.47    0.52 
   2  -2   9   12.05    0.53 
   2  -2   9   12.76    0.51 
  -3   2  -9   24.57    0.87 
  -3   2  -9   24.92    0.85 
  -3   2  -9   25.48    0.86 
   3  -2   9   22.30    0.84 
   3  -2   9   23.65    0.83 
  -4   2  -9    1.03    0.19 
  -4   2  -9    0.68    0.16 
  -4   2  -9    0.69    0.14 
   4  -2   9    1.07    0.18 
   4  -2   9    1.11    0.17 
  -5   2  -9    0.05    0.09 
  -5   2  -9    0.11    0.12 
  -5   2  -9    0.05    0.06 
   5  -2   9    0.04    0.07 
   5  -2   9    0.18    0.11 
  -6   2  -9    1.09    0.20 
  -6   2  -9    1.54    0.17 
   6  -2   9    1.35    0.20 
  -6  -1   9   11.79    0.58 
   5   1  -9   18.55    0.73 
   5   1  -9   17.98    0.74 
  -5  -1   9   17.29    0.73 
  -5  -1   9   16.42    0.71 
  -5  -1   9   17.85    0.73 
   4   1  -9    0.95    0.20 
   4   1  -9    0.86    0.17 
  -4  -1   9    0.75    0.15 
  -4  -1   9    0.67    0.15 
  -4  -1   9    1.03    0.18 
   3   1  -9    6.27    0.36 
   3   1  -9    6.36    0.38 
   3   1  -9    6.59    0.37 
  -3  -1   9    6.10    0.36 
  -3  -1   9    6.15    0.37 
  -3  -1   9    6.14    0.36 
   2   1  -9   13.80    0.59 
   2   1  -9   14.46    0.58 
   2   1  -9   14.08    0.57 
  -2  -1   9   13.14    0.56 
  -2  -1   9   13.41    0.57 
  -2  -1   9   14.29    0.56 
   1   1  -9   19.62    0.74 
   1   1  -9   19.89    0.71 
   1   1  -9   19.48    0.71 
  -1  -1   9   20.57    0.70 
  -1  -1   9   19.79    0.71 
  -1  -1   9   19.89    0.73 
   0   1  -9    4.42    0.30 
   0   1  -9    4.58    0.29 
   0   1  -9    3.94    0.28 
   0  -1   9    4.34    0.26 
   0  -1   9    4.41    0.29 
   0  -1   9    4.33    0.27 
  -1   1  -9    6.05    0.34 
  -1   1  -9    5.66    0.34 
  -1   1  -9    6.01    0.33 
   1  -1   9    5.91    0.32 
   1  -1   9    5.86    0.30 
   1  -1   9    6.08    0.34 
  -2   1  -9   13.71    0.54 
  -2   1  -9   13.36    0.56 
  -2   1  -9   13.19    0.54 
   2  -1   9   13.32    0.54 
   2  -1   9   13.63    0.51 
   2  -1   9   13.45    0.53 
  -3   1  -9    1.14    0.17 
  -3   1  -9    0.69    0.15 
  -3   1  -9    0.84    0.16 
   3  -1   9    0.71    0.14 
   3  -1   9    0.76    0.14 
  -4   1  -9   15.12    0.63 
  -4   1  -9   14.85    0.61 
  -4   1  -9   15.90    0.61 
   4  -1   9   14.95    0.60 
   4  -1   9   15.29    0.58 
  -5   1  -9   20.84    0.81 
  -5   1  -9   22.06    0.79 
  -5   1  -9   22.51    0.80 
   5  -1   9   21.64    0.76 
   5  -1   9   20.45    0.76 
  -6   1  -9   10.61    0.50 
  -6   1  -9    9.63    0.50 
  -6   1  -9   10.07    0.51 
   6  -1   9   10.39    0.47 
  -7   1  -9    7.01    0.43 
  -7   1  -9    6.49    0.39 
   7  -1   9    6.96    0.38 
   6   0  -9    2.97    0.28 
  -6   0   9    2.96    0.29 
   5   0  -9    4.34    0.33 
   5   0  -9    5.24    0.35 
  -5   0   9    4.25    0.33 
  -5   0   9    4.97    0.34 
   4   0  -9    6.76    0.40 
   4   0  -9    8.64    0.45 
   4   0  -9    8.02    0.43 
  -4   0   9    7.00    0.41 
  -4   0   9    8.14    0.42 
   3   0  -9    3.23    0.25 
   3   0  -9    2.77    0.26 
   3   0  -9    2.57    0.25 
  -3   0   9    2.97    0.23 
  -3   0   9    2.38    0.24 
  -3   0   9    3.00    0.24 
   2   0  -9   -0.05    0.08 
   2   0  -9   -0.04    0.08 
   2   0  -9    0.04    0.07 
  -2   0   9    0.08    0.08 
  -2   0   9   -0.04    0.07 
  -2   0   9    0.00    0.05 
   1   0  -9    0.00    0.09 
   1   0  -9    0.22    0.11 
   1   0  -9   -0.09    0.05 
  -1   0   9    0.11    0.06 
  -1   0   9    0.10    0.07 
  -1   0   9    0.09    0.09 
   0   0  -9   12.53    0.52 
   0   0  -9   12.92    0.51 
   0   0  -9   12.54    0.53 
   0   0   9   13.38    0.52 
   0   0   9   12.67    0.50 
   0   0   9   13.28    0.49 
  -1   0  -9   43.20    1.29 
  -1   0  -9   43.25    1.28 
  -1   0  -9   42.41    1.32 
   1   0   9   42.70    1.25 
   1   0   9   45.81    1.31 
   1   0   9   43.25    1.27 
  -2   0  -9   22.38    0.80 
  -2   0  -9   23.34    0.78 
  -2   0  -9   23.38    0.78 
   2   0   9   23.25    0.76 
   2   0   9   21.90    0.74 
   2   0   9   23.75    0.78 
  -3   0  -9    0.42    0.10 
  -3   0  -9    0.64    0.14 
  -3   0  -9    0.20    0.10 
   3   0   9    0.36    0.09 
   3   0   9    0.44    0.11 
  -4   0  -9    2.30    0.23 
  -4   0  -9    3.00    0.23 
  -4   0  -9    2.89    0.22 
   4   0   9    2.52    0.19 
   4   0   9    2.98    0.21 
   4   0   9    2.80    0.21 
  -5   0  -9    1.90    0.19 
  -5   0  -9    2.01    0.19 
  -5   0  -9    1.87    0.21 
   5   0   9    1.52    0.17 
   5   0   9    2.02    0.18 
   5   0   9    1.99    0.18 
  -6   0  -9    6.14    0.36 
  -6   0  -9    6.13    0.35 
  -6   0  -9    5.73    0.36 
   6   0   9    5.94    0.33 
   6   0   9    6.28    0.33 
  -7   0  -9   17.11    0.71 
  -7   0  -9   17.69    0.70 
   5  -1  -9    8.08    0.44 
   5  -1  -9    7.33    0.44 
  -5   1   9    8.32    0.44 
  -5   1   9    7.53    0.44 
   4  -1  -9   23.02    0.85 
   4  -1  -9   24.15    0.85 
   4  -1  -9   22.11    0.86 
  -4   1   9   22.66    0.85 
  -4   1   9   23.64    0.84 
   3  -1  -9   14.89    0.64 
   3  -1  -9   16.02    0.63 
   3  -1  -9   15.84    0.63 
  -3   1   9   15.90    0.62 
  -3   1   9   15.87    0.63 
   2  -1  -9    0.86    0.16 
   2  -1  -9    0.99    0.16 
   2  -1  -9    1.13    0.17 
  -2   1   9    0.93    0.15 
  -2   1   9    1.28    0.20 
  -2   1   9    1.21    0.14 
   1  -1  -9    0.09    0.08 
   1  -1  -9   -0.04    0.08 
   1  -1  -9    0.14    0.10 
  -1   1   9   -0.11    0.05 
  -1   1   9    0.06    0.05 
  -1   1   9    0.04    0.07 
   0  -1  -9    2.69    0.23 
   0  -1  -9    2.60    0.22 
   0  -1  -9    2.98    0.21 
   0   1   9    3.08    0.21 
   0   1   9    3.00    0.22 
   0   1   9    2.94    0.19 
  -1  -1  -9   15.60    0.57 
  -1  -1  -9   14.88    0.57 
  -1  -1  -9   14.66    0.55 
   1   1   9   14.00    0.54 
   1   1   9   15.60    0.54 
   1   1   9   14.74    0.51 
  -2  -1  -9    0.79    0.13 
  -2  -1  -9    0.84    0.14 
  -2  -1  -9    0.72    0.12 
   2   1   9    0.67    0.12 
   2   1   9    0.85    0.12 
  -3  -1  -9    1.34    0.17 
  -3  -1  -9    1.47    0.18 
  -3  -1  -9    1.25    0.16 
   3   1   9    1.39    0.14 
   3   1   9    1.31    0.15 
  -4  -1  -9   24.78    0.82 
  -4  -1  -9   25.11    0.84 
  -4  -1  -9   25.00    0.82 
   4   1   9   26.02    0.80 
   4   1   9   23.19    0.83 
   4   1   9   24.60    0.77 
  -5  -1  -9    1.13    0.16 
  -5  -1  -9    1.22    0.17 
  -5  -1  -9    0.76    0.13 
   5   1   9    1.49    0.14 
   5   1   9    1.24    0.15 
  -6  -1  -9    4.41    0.29 
  -6  -1  -9    4.94    0.29 
  -6  -1  -9    4.51    0.31 
   6   1   9    4.53    0.25 
   6   1   9    5.35    0.31 
  -7  -1  -9   17.22    0.67 
  -7  -1  -9   18.71    0.71 
  -7  -1  -9   17.36    0.69 
   7   1   9   17.26    0.71 
  -8  -1  -9    1.22    0.20 
  -8  -1  -9    1.17    0.18 
   8   1   9    1.30    0.21 
   5  -2  -9   14.92    0.64 
   5  -2  -9   13.44    0.64 
   5  -2  -9   15.28    0.65 
  -5   2   9   14.58    0.64 
   4  -2  -9    3.01    0.26 
   4  -2  -9    2.91    0.28 
   4  -2  -9    3.74    0.31 
  -4   2   9    3.26    0.27 
  -4   2   9    3.19    0.27 
   3  -2  -9    4.16    0.28 
   3  -2  -9    4.10    0.30 
   3  -2  -9    4.01    0.31 
  -3   2   9    4.24    0.28 
  -3   2   9    4.19    0.29 
   2  -2  -9   37.71    1.23 
   2  -2  -9   39.43    1.20 
   2  -2  -9   38.50    1.20 
  -2   2   9   40.07    1.18 
  -2   2   9   39.09    1.20 
   1  -2  -9    9.76    0.46 
   1  -2  -9   10.47    0.44 
   1  -2  -9   10.41    0.45 
  -1   2   9   10.49    0.43 
  -1   2   9    9.46    0.42 
   0  -2  -9    0.15    0.08 
   0  -2  -9    0.16    0.09 
   0  -2  -9    0.29    0.09 
   0   2   9    0.12    0.06 
   0   2   9    0.23    0.09 
  -1  -2  -9   15.54    0.59 
  -1  -2  -9   16.63    0.58 
  -1  -2  -9   15.99    0.57 
   1   2   9   16.11    0.56 
   1   2   9   15.72    0.55 
  -2  -2  -9    0.93    0.14 
  -2  -2  -9    1.14    0.15 
  -2  -2  -9    1.10    0.15 
   2   2   9    0.90    0.12 
   2   2   9    0.91    0.13 
  -3  -2  -9   25.35    0.82 
  -3  -2  -9   25.71    0.84 
  -3  -2  -9   25.66    0.82 
   3   2   9   26.00    0.79 
   3   2   9   26.92    0.78 
  -4  -2  -9    3.07    0.22 
  -4  -2  -9    3.05    0.23 
  -4  -2  -9    3.24    0.21 
   4   2   9    3.29    0.20 
   4   2   9    3.37    0.23 
   4   2   9    2.79    0.18 
  -5  -2  -9    1.80    0.19 
  -5  -2  -9    2.09    0.18 
  -5  -2  -9    1.81    0.17 
   5   2   9    2.19    0.20 
   5   2   9    1.98    0.15 
  -6  -2  -9   20.57    0.73 
  -6  -2  -9   19.79    0.70 
  -6  -2  -9   19.36    0.71 
   6   2   9   20.53    0.77 
  -7  -2  -9   11.10    0.48 
  -7  -2  -9   11.42    0.50 
  -7  -2  -9   11.08    0.50 
   7   2   9   11.06    0.54 
  -8  -2  -9    2.36    0.25 
  -8  -2  -9    2.07    0.18 
   8   2   9    2.39    0.25 
   5  -3  -9   12.56    0.58 
   5  -3  -9   12.22    0.58 
  -5   3   9   10.78    0.58 
   4  -3  -9    6.03    0.39 
   4  -3  -9    5.71    0.38 
   4  -3  -9    5.93    0.35 
  -4   3   9    5.56    0.35 
  -4   3   9    6.19    0.36 
   3  -3  -9    2.79    0.26 
   3  -3  -9    2.80    0.27 
   3  -3  -9    2.99    0.23 
  -3   3   9    2.92    0.23 
  -3   3   9    3.33    0.25 
   2  -3  -9    0.25    0.08 
   2  -3  -9    0.27    0.11 
   2  -3  -9    0.39    0.12 
  -2   3   9    0.52    0.11 
  -2   3   9    0.40    0.12 
   1  -3  -9    3.17    0.22 
   1  -3  -9    3.15    0.24 
   1  -3  -9    3.37    0.25 
  -1   3   9    3.30    0.22 
  -1   3   9    3.49    0.22 
   0  -3  -9   28.47    0.89 
   0  -3  -9   28.56    0.90 
   0  -3  -9   28.60    0.92 
   0   3   9   27.60    0.85 
   0   3   9   28.32    0.87 
  -1  -3  -9    3.84    0.24 
  -1  -3  -9    3.64    0.22 
  -1  -3  -9    3.51    0.23 
   1   3   9    3.09    0.20 
   1   3   9    3.46    0.20 
  -2  -3  -9    2.26    0.19 
  -2  -3  -9    2.62    0.18 
  -2  -3  -9    2.91    0.20 
   2   3   9    2.61    0.17 
   2   3   9    2.81    0.16 
  -3  -3  -9    2.60    0.19 
  -3  -3  -9    3.16    0.20 
  -3  -3  -9    2.79    0.20 
   3   3   9    2.81    0.15 
   3   3   9    2.58    0.16 
  -4  -3  -9    0.16    0.07 
  -4  -3  -9   -0.01    0.04 
  -4  -3  -9    0.08    0.07 
   4   3   9   -0.02    0.05 
   4   3   9    0.11    0.08 
  -5  -3  -9   14.40    0.53 
  -5  -3  -9   15.13    0.53 
  -5  -3  -9   14.17    0.54 
   5   3   9   14.32    0.60 
  -6  -3  -9   13.38    0.51 
  -6  -3  -9   12.73    0.52 
  -6  -3  -9   14.03    0.52 
   6   3   9   13.46    0.59 
  -7  -3  -9    2.20    0.20 
  -7  -3  -9    2.05    0.21 
  -7  -3  -9    2.48    0.19 
   7   3   9    2.68    0.25 
  -8  -3  -9   -0.03    0.04 
  -8  -3  -9   -0.06    0.07 
   8   3   9    0.06    0.12 
   5  -4  -9    7.16    0.44 
   5  -4  -9    6.94    0.41 
   4  -4  -9    1.88    0.25 
   4  -4  -9    1.96    0.20 
   3  -4  -9   36.07    1.15 
   3  -4  -9   36.70    1.16 
   3  -4  -9   34.41    1.17 
  -3   4   9   35.27    1.11 
   2  -4  -9   25.84    0.86 
   2  -4  -9   24.57    0.86 
   2  -4  -9   24.96    0.88 
  -2   4   9   26.06    0.83 
  -2   4   9   25.60    0.84 
   1  -4  -9    2.83    0.24 
   1  -4  -9    2.59    0.21 
   1  -4  -9    2.49    0.20 
  -1   4   9    2.46    0.18 
  -1   4   9    2.64    0.19 
   0  -4  -9    6.02    0.32 
   0  -4  -9    6.25    0.32 
   0  -4  -9    6.48    0.31 
   0   4   9    6.56    0.28 
   0   4   9    5.89    0.27 
  -1  -4  -9   56.75    1.57 
  -1  -4  -9   56.09    1.61 
  -1  -4  -9   56.47    1.56 
   1   4   9   56.72    1.51 
   1   4   9   56.06    1.54 
  -2  -4  -9   12.70    0.47 
  -2  -4  -9   13.49    0.48 
  -2  -4  -9   12.84    0.49 
   2   4   9   13.23    0.42 
  -3  -4  -9    5.24    0.25 
  -3  -4  -9    5.15    0.26 
  -3  -4  -9    4.82    0.25 
  -4  -4  -9    3.68    0.20 
  -4  -4  -9    3.78    0.22 
  -4  -4  -9    3.82    0.22 
  -5  -4  -9    3.37    0.21 
  -5  -4  -9    3.61    0.22 
  -5  -4  -9    3.47    0.20 
   5   4   9    3.46    0.28 
  -6  -4  -9    1.29    0.15 
  -6  -4  -9    1.08    0.15 
  -6  -4  -9    1.42    0.12 
   6   4   9    1.66    0.23 
  -7  -4  -9    0.76    0.13 
  -7  -4  -9    0.76    0.08 
  -7  -4  -9    0.62    0.12 
   7   4   9    0.64    0.17 
  -8  -4  -9   12.38    0.50 
  -8  -4  -9   12.74    0.53 
  -8  -4  -9   13.21    0.53 
   8   4   9   14.95    0.67 
   4  -5  -9    3.69    0.32 
   4  -5  -9    3.40    0.26 
   3  -5  -9    0.85    0.17 
   3  -5  -9    0.62    0.11 
   3  -5  -9    0.87    0.16 
  -3   5   9    0.91    0.15 
   2  -5  -9    7.98    0.41 
   2  -5  -9    8.40    0.40 
   2  -5  -9    7.09    0.39 
  -2   5   9    8.25    0.37 
   1  -5  -9    7.29    0.37 
   1  -5  -9    6.67    0.36 
   1  -5  -9    7.36    0.35 
  -1   5   9    6.84    0.31 
   0  -5  -9   19.96    0.68 
   0  -5  -9   19.41    0.66 
   0  -5  -9   19.91    0.69 
   0   5   9   18.85    0.61 
  -1  -5  -9    4.91    0.27 
  -1  -5  -9    4.94    0.27 
  -1  -5  -9    5.49    0.26 
  -2  -5  -9    9.94    0.40 
  -2  -5  -9   10.84    0.39 
  -2  -5  -9    9.98    0.40 
  -3  -5  -9   16.06    0.54 
  -3  -5  -9   16.28    0.54 
  -3  -5  -9   16.65    0.56 
  -4  -5  -9    9.47    0.36 
  -4  -5  -9    9.21    0.35 
  -4  -5  -9    9.34    0.37 
  -5  -5  -9    1.95    0.13 
  -5  -5  -9    1.72    0.15 
  -5  -5  -9    1.97    0.15 
   5   5   9    1.97    0.23 
  -6  -5  -9    0.36    0.07 
  -6  -5  -9    0.29    0.08 
  -6  -5  -9    0.22    0.07 
   6   5   9    0.38    0.14 
  -7  -5  -9   11.30    0.43 
  -7  -5  -9   11.98    0.46 
  -7  -5  -9   11.36    0.45 
   7   5   9   12.23    0.60 
  -8  -5  -9    0.83    0.14 
  -8  -5  -9    1.03    0.14 
   8   5   9    0.99    0.21 
   3  -6  -9    8.54    0.43 
   3  -6  -9    8.21    0.45 
   2  -6  -9    1.26    0.18 
   2  -6  -9    0.84    0.16 
   2  -6  -9    1.01    0.18 
   1  -6  -9    4.38    0.26 
   1  -6  -9    4.12    0.29 
   1  -6  -9    4.08    0.27 
   0  -6  -9   23.79    0.76 
   0  -6  -9   22.00    0.76 
   0  -6  -9   22.98    0.78 
  -1  -6  -9    4.61    0.24 
  -1  -6  -9    4.52    0.26 
  -1  -6  -9    4.98    0.27 
  -2  -6  -9    3.99    0.23 
  -2  -6  -9    4.23    0.21 
  -2  -6  -9    4.30    0.23 
  -3  -6  -9   15.68    0.52 
  -3  -6  -9   16.12    0.52 
  -3  -6  -9   15.32    0.53 
  -4  -6  -9    2.02    0.15 
  -4  -6  -9    2.05    0.12 
  -4  -6  -9    2.13    0.14 
  -5  -6  -9    6.74    0.28 
  -5  -6  -9    6.71    0.29 
   5   6   9    7.19    0.43 
  -6  -6  -9    8.86    0.35 
  -6  -6  -9    8.74    0.35 
   6   6   9    9.38    0.51 
  -7  -6  -9    4.08    0.22 
  -7  -6  -9    4.23    0.23 
   7   6   9    4.74    0.37 
  -8  -6  -9    1.22    0.11 
  -8  -6  -9    1.17    0.15 
   8   6   9    1.10    0.23 
   3  -7  -9    4.26    0.33 
   3  -7  -9    4.51    0.30 
   2  -7  -9    9.59    0.45 
   2  -7  -9   10.11    0.49 
   1  -7  -9    0.80    0.15 
   1  -7  -9    0.80    0.13 
   1  -7  -9    0.95    0.16 
   0  -7  -9    0.78    0.12 
   0  -7  -9    0.35    0.08 
   0  -7  -9    0.63    0.12 
  -1  -7  -9   18.74    0.62 
  -1  -7  -9   18.89    0.65 
  -1  -7  -9   18.39    0.64 
  -2  -7  -9   38.78    1.13 
  -2  -7  -9   39.65    1.12 
  -2  -7  -9   40.14    1.16 
  -3  -7  -9    7.32    0.30 
  -3  -7  -9    7.18    0.29 
  -3  -7  -9    7.34    0.30 
  -4  -7  -9    0.11    0.05 
  -4  -7  -9    0.20    0.05 
  -5  -7  -9   15.09    0.49 
  -5  -7  -9   14.68    0.48 
  -6  -7  -9    1.08    0.11 
   6   7   9    1.46    0.25 
  -7  -7  -9    2.35    0.16 
   7   7   9    2.79    0.30 
  -8  -7  -9    3.07    0.19 
   8   7   9    3.02    0.34 
   2  -8  -9   17.44    0.68 
   2  -8  -9   17.44    0.70 
   1  -8  -9    0.00    0.08 
   1  -8  -9    0.16    0.04 
   0  -8  -9    1.02    0.10 
   0  -8  -9    1.00    0.15 
  -1  -8  -9    0.81    0.08 
  -1  -8  -9    0.93    0.13 
  -1  -8  -9    0.78    0.13 
  -2  -8  -9   -0.05    0.05 
  -2  -8  -9   -0.06    0.03 
  -3  -8  -9    1.38    0.11 
  -3  -8  -9    1.11    0.12 
  -4  -8  -9   10.83    0.38 
  -5  -8  -9    3.71    0.18 
  -6  -8  -9    0.00    0.03 
  -7  -8  -9    4.47    0.21 
   7   8   9    5.33    0.42 
   0  -9  -9   18.57    0.66 
   0  -9  -9   18.33    0.68 
  -1  -9  -9    8.83    0.39 
  -2  -9  -9    2.63    0.18 
  -2  -9  -9    2.85    0.18 
  -3  -9  -9   11.43    0.41 
  -4  -9  -9    7.90    0.30 
  -5  -9  -9    2.78    0.14 
  -6  -9  -9    2.06    0.12 
  -2 -10  -9   16.84    0.59 
  -3 -10  -9    0.48    0.09 
  -4 -10  -9    0.52    0.08 
   1   5 -10    7.66    0.43 
  -1  -5  10    7.47    0.44 
  -1  -5  10    7.09    0.43 
   0   5 -10    5.61    0.37 
   0  -5  10    5.94    0.38 
  -1   5 -10    2.57    0.26 
  -1   5 -10    2.19    0.20 
   1  -5  10    2.79    0.26 
   3   4 -10    0.81    0.18 
  -3  -4  10    0.87    0.17 
  -3  -4  10    1.25    0.21 
   2   4 -10    2.48    0.22 
   2   4 -10    2.65    0.26 
  -2  -4  10    2.67    0.27 
  -2  -4  10    2.80    0.27 
   1   4 -10    4.10    0.32 
   1   4 -10    3.67    0.30 
  -1  -4  10    3.99    0.31 
  -1  -4  10    3.65    0.30 
  -1  -4  10    3.60    0.29 
   0   4 -10    4.76    0.34 
   0   4 -10    4.62    0.34 
   0  -4  10    4.57    0.33 
   0  -4  10    4.85    0.33 
   0  -4  10    4.62    0.33 
  -1   4 -10   -0.02    0.08 
  -1   4 -10    0.01    0.08 
   1  -4  10    0.23    0.11 
   1  -4  10   -0.03    0.06 
  -2   4 -10    0.03    0.08 
  -2   4 -10   -0.03    0.09 
   2  -4  10    0.10    0.08 
   2  -4  10   -0.07    0.07 
  -3   4 -10    0.15    0.07 
  -3   4 -10    0.05    0.09 
   3  -4  10    0.18    0.08 
   3  -4  10    0.30    0.11 
   4   3 -10    0.42    0.14 
  -4  -3  10    0.15    0.07 
  -4  -3  10    0.25    0.11 
   3   3 -10   12.11    0.55 
   3   3 -10   11.66    0.56 
  -3  -3  10   10.84    0.55 
  -3  -3  10   11.53    0.55 
   2   3 -10   21.88    0.82 
   2   3 -10   22.00    0.85 
  -2  -3  10   21.89    0.83 
  -2  -3  10   21.78    0.85 
  -2  -3  10   21.49    0.81 
   1   3 -10    2.24    0.24 
   1   3 -10    2.20    0.24 
  -1  -3  10    2.33    0.23 
  -1  -3  10    2.24    0.23 
  -1  -3  10    2.29    0.25 
   0   3 -10   16.54    0.66 
   0   3 -10   15.99    0.68 
   0  -3  10   16.18    0.68 
   0  -3  10   15.20    0.65 
   0  -3  10   16.63    0.65 
  -1   3 -10   17.80    0.74 
  -1   3 -10   18.75    0.73 
  -1   3 -10   17.51    0.73 
   1  -3  10   18.41    0.71 
   1  -3  10   17.59    0.72 
  -2   3 -10   14.55    0.62 
  -2   3 -10   14.74    0.64 
  -2   3 -10   15.57    0.67 
   2  -3  10   15.04    0.63 
  -3   3 -10    0.13    0.10 
  -3   3 -10    0.13    0.10 
  -3   3 -10    0.22    0.11 
   3  -3  10    0.47    0.12 
   3  -3  10    0.20    0.10 
  -4   3 -10   14.16    0.63 
  -4   3 -10   15.29    0.66 
   4  -3  10   14.50    0.64 
   4  -3  10   15.20    0.64 
  -5   3 -10    3.77    0.32 
   5  -3  10    3.54    0.30 
   4   2 -10    0.72    0.16 
   4   2 -10    0.66    0.16 
  -4  -2  10    0.71    0.18 
   3   2 -10    2.09    0.23 
   3   2 -10    2.08    0.27 
  -3  -2  10    2.37    0.25 
  -3  -2  10    2.07    0.21 
  -3  -2  10    2.05    0.23 
   2   2 -10    0.74    0.17 
   2   2 -10    0.43    0.13 
  -2  -2  10    0.72    0.17 
  -2  -2  10    0.53    0.13 
  -2  -2  10    0.56    0.14 
   1   2 -10    7.21    0.41 
   1   2 -10    6.97    0.39 
   1   2 -10    6.68    0.39 
  -1  -2  10    6.98    0.40 
  -1  -2  10    7.03    0.38 
  -1  -2  10    7.22    0.40 
   0   2 -10    2.15    0.25 
   0   2 -10    2.01    0.24 
   0   2 -10    2.48    0.24 
   0  -2  10    2.22    0.22 
   0  -2  10    1.99    0.21 
   0  -2  10    2.40    0.24 
  -1   2 -10    0.73    0.17 
  -1   2 -10    0.83    0.16 
  -1   2 -10    0.51    0.14 
   1  -2  10    0.61    0.15 
   1  -2  10    0.58    0.14 
  -2   2 -10    3.72    0.29 
  -2   2 -10    3.00    0.28 
  -2   2 -10    3.19    0.29 
   2  -2  10    3.45    0.26 
   2  -2  10    3.39    0.27 
  -3   2 -10    2.88    0.27 
  -3   2 -10    2.91    0.27 
  -3   2 -10    2.88    0.26 
   3  -2  10    2.95    0.25 
   3  -2  10    2.80    0.25 
  -4   2 -10   15.13    0.62 
  -4   2 -10   13.27    0.62 
  -4   2 -10   14.21    0.62 
   4  -2  10   13.77    0.60 
   4  -2  10   13.73    0.59 
  -5   2 -10    0.05    0.06 
  -5   2 -10    0.05    0.11 
   5  -2  10    0.17    0.09 
  -6   2 -10    4.95    0.33 
   6  -2  10    5.21    0.35 
   5   1 -10    1.05    0.16 
   5   1 -10    0.97    0.18 
  -5  -1  10    1.42    0.23 
   4   1 -10    1.56    0.23 
   4   1 -10    1.66    0.25 
  -4  -1  10    1.77    0.25 
  -4  -1  10    1.25    0.19 
   3   1 -10    1.43    0.21 
   3   1 -10    0.96    0.18 
  -3  -1  10    1.39    0.21 
  -3  -1  10    0.75    0.16 
   2   1 -10    5.05    0.35 
   2   1 -10    5.44    0.34 
   2   1 -10    5.07    0.34 
  -2  -1  10    5.36    0.34 
  -2  -1  10    5.81    0.36 
   1   1 -10    0.79    0.16 
   1   1 -10    0.60    0.15 
   1   1 -10    0.90    0.16 
  -1  -1  10    0.83    0.15 
  -1  -1  10    0.90    0.17 
   0   1 -10   14.86    0.61 
   0   1 -10   15.00    0.63 
   0   1 -10   14.39    0.61 
   0  -1  10   15.28    0.61 
   0  -1  10   15.74    0.61 
  -1   1 -10   42.61    1.32 
  -1   1 -10   43.40    1.36 
  -1   1 -10   42.31    1.32 
   1  -1  10   43.22    1.34 
   1  -1  10   43.57    1.31 
  -2   1 -10    4.23    0.31 
  -2   1 -10    3.75    0.30 
  -2   1 -10    4.21    0.28 
   2  -1  10    4.62    0.30 
   2  -1  10    4.02    0.27 
  -3   1 -10    4.77    0.33 
  -3   1 -10    4.98    0.33 
  -3   1 -10    4.97    0.31 
   3  -1  10    5.06    0.31 
   3  -1  10    5.02    0.30 
  -4   1 -10    5.71    0.36 
  -4   1 -10    5.09    0.35 
  -4   1 -10    5.30    0.33 
   4  -1  10    5.41    0.32 
   4  -1  10    5.55    0.32 
  -5   1 -10    0.03    0.07 
  -5   1 -10    0.14    0.07 
  -5   1 -10    0.09    0.10 
   5  -1  10   -0.08    0.08 
  -6   1 -10    0.24    0.14 
  -6   1 -10    0.46    0.11 
   6  -1  10    0.24    0.09 
   5   0 -10   10.07    0.52 
  -5   0  10    9.10    0.50 
   4   0 -10    1.53    0.22 
   4   0 -10    1.38    0.22 
  -4   0  10    2.19    0.27 
  -4   0  10    1.69    0.23 
   3   0 -10    0.14    0.09 
   3   0 -10    0.14    0.12 
   3   0 -10    0.32    0.13 
  -3   0  10    0.07    0.09 
  -3   0  10    0.20    0.11 
   2   0 -10    0.43    0.13 
   2   0 -10    0.91    0.17 
   2   0 -10    0.62    0.15 
  -2   0  10    0.96    0.18 
  -2   0  10    0.53    0.13 
   1   0 -10    7.11    0.41 
   1   0 -10    7.77    0.40 
   1   0 -10    7.83    0.42 
  -1   0  10    8.07    0.41 
  -1   0  10    7.51    0.38 
   0   0 -10    3.78    0.29 
   0   0 -10    3.71    0.28 
   0   0 -10    3.35    0.25 
   0   0  10    3.28    0.26 
   0   0  10    3.83    0.26 
  -1   0 -10   -0.04    0.09 
  -1   0 -10    0.08    0.07 
  -1   0 -10   -0.01    0.07 
   1   0  10   -0.02    0.08 
   1   0  10    0.15    0.07 
  -2   0 -10    6.95    0.36 
  -2   0 -10    6.17    0.36 
  -2   0 -10    6.56    0.37 
   2   0  10    6.29    0.35 
   2   0  10    6.67    0.34 
  -3   0 -10   15.02    0.62 
  -3   0 -10   15.12    0.60 
  -3   0 -10   14.96    0.61 
   3   0  10   15.43    0.59 
   3   0  10   16.24    0.59 
  -4   0 -10   16.71    0.64 
  -4   0 -10   16.53    0.63 
  -4   0 -10   15.54    0.65 
   4   0  10   16.38    0.60 
   4   0  10   14.93    0.59 
  -5   0 -10   21.34    0.81 
  -5   0 -10   22.08    0.80 
  -5   0 -10   22.71    0.82 
   5   0  10   21.83    0.76 
  -6   0 -10   10.58    0.49 
  -6   0 -10    9.91    0.50 
   6   0  10    9.48    0.43 
  -7   0 -10    2.12    0.27 
  -7   0 -10    1.67    0.18 
   5  -1 -10    5.10    0.35 
  -5   1  10    3.78    0.29 
  -5   1  10    4.44    0.34 
   4  -1 -10    0.56    0.16 
   4  -1 -10    0.37    0.13 
   4  -1 -10    0.31    0.12 
  -4   1  10    0.73    0.16 
  -4   1  10    0.35    0.12 
   3  -1 -10    2.31    0.26 
   3  -1 -10    2.57    0.25 
   3  -1 -10    2.42    0.26 
  -3   1  10    1.97    0.22 
  -3   1  10    2.67    0.24 
   2  -1 -10    9.28    0.44 
   2  -1 -10    8.32    0.45 
   2  -1 -10    8.70    0.45 
  -2   1  10    8.47    0.42 
  -2   1  10    8.61    0.43 
   1  -1 -10    0.02    0.09 
   1  -1 -10    0.03    0.06 
   1  -1 -10    0.01    0.08 
  -1   1  10   -0.10    0.06 
  -1   1  10    0.01    0.07 
   0  -1 -10    4.72    0.29 
   0  -1 -10    4.73    0.31 
   0  -1 -10    4.55    0.31 
   0   1  10    4.88    0.28 
   0   1  10    4.82    0.29 
  -1  -1 -10    3.59    0.25 
  -1  -1 -10    3.76    0.28 
  -1  -1 -10    3.86    0.27 
   1   1  10    3.48    0.24 
   1   1  10    3.41    0.24 
  -2  -1 -10    2.71    0.24 
  -2  -1 -10    2.52    0.22 
  -2  -1 -10    2.68    0.21 
   2   1  10    3.01    0.22 
   2   1  10    3.28    0.22 
  -3  -1 -10    3.65    0.25 
  -3  -1 -10    3.66    0.27 
  -3  -1 -10    3.56    0.25 
   3   1  10    3.73    0.23 
   3   1  10    3.25    0.22 
  -4  -1 -10    1.11    0.17 
  -4  -1 -10    0.99    0.16 
  -4  -1 -10    0.76    0.14 
   4   1  10    1.13    0.16 
  -5  -1 -10    4.82    0.30 
  -5  -1 -10    4.30    0.28 
  -5  -1 -10    4.36    0.31 
   5   1  10    4.35    0.27 
   5   1  10    4.43    0.26 
  -6  -1 -10    0.12    0.10 
  -6  -1 -10    0.20    0.07 
  -6  -1 -10    0.08    0.05 
  -7  -1 -10    0.80    0.17 
  -7  -1 -10    0.57    0.11 
  -5   2  10    7.47    0.44 
   4  -2 -10    1.05    0.18 
   4  -2 -10    0.83    0.17 
   4  -2 -10    0.71    0.18 
  -4   2  10    0.56    0.14 
  -4   2  10    1.16    0.18 
   3  -2 -10    2.32    0.21 
   3  -2 -10    2.17    0.24 
   3  -2 -10    1.90    0.25 
  -3   2  10    2.71    0.24 
  -3   2  10    2.12    0.22 
   2  -2 -10    0.69    0.17 
   2  -2 -10    0.55    0.13 
   2  -2 -10    0.71    0.13 
  -2   2  10    0.38    0.12 
  -2   2  10    0.60    0.13 
   1  -2 -10   -0.08    0.06 
   1  -2 -10   -0.03    0.09 
   1  -2 -10    0.09    0.09 
  -1   2  10    0.07    0.07 
  -1   2  10    0.05    0.07 
   0  -2 -10   19.22    0.72 
   0  -2 -10   19.49    0.70 
   0  -2 -10   18.48    0.70 
   0   2  10   20.12    0.67 
   0   2  10   19.89    0.69 
  -1  -2 -10   12.93    0.51 
  -1  -2 -10   11.79    0.51 
  -1  -2 -10   11.69    0.50 
   1   2  10   12.07    0.47 
   1   2  10   12.90    0.48 
  -2  -2 -10   16.23    0.59 
  -2  -2 -10   16.47    0.61 
  -2  -2 -10   15.45    0.59 
   2   2  10   15.38    0.55 
   2   2  10   15.36    0.56 
  -3  -2 -10    2.35    0.22 
  -3  -2 -10    2.38    0.21 
  -3  -2 -10    2.39    0.19 
   3   2  10    2.21    0.17 
  -4  -2 -10   21.49    0.73 
  -4  -2 -10   20.70    0.72 
  -4  -2 -10   20.04    0.74 
   4   2  10   22.09    0.68 
  -5  -2 -10   20.34    0.71 
  -5  -2 -10   20.18    0.72 
  -5  -2 -10   20.17    0.73 
   5   2  10   19.98    0.75 
  -6  -2 -10   15.76    0.64 
  -6  -2 -10   17.40    0.66 
  -6  -2 -10   17.31    0.64 
   6   2  10   16.85    0.68 
  -7  -2 -10    5.98    0.37 
  -7  -2 -10    5.60    0.32 
   7   2  10    6.27    0.38 
  -8  -2 -10    3.18    0.23 
  -8  -2 -10    2.88    0.28 
   8   2  10    2.77    0.29 
   4  -3 -10   18.89    0.75 
   4  -3 -10   18.35    0.76 
  -4   3  10   18.16    0.72 
   3  -3 -10    0.13    0.09 
   3  -3 -10    0.10    0.07 
   3  -3 -10    0.17    0.13 
  -3   3  10    0.14    0.09 
   2  -3 -10    0.73    0.17 
   2  -3 -10    0.78    0.15 
   2  -3 -10    0.41    0.14 
  -2   3  10    0.49    0.12 
  -2   3  10    0.65    0.12 
   1  -3 -10    5.77    0.32 
   1  -3 -10    5.52    0.33 
   1  -3 -10    5.52    0.34 
  -1   3  10    6.23    0.31 
  -1   3  10    5.78    0.31 
   0  -3 -10    0.55    0.13 
   0  -3 -10    0.46    0.12 
   0  -3 -10    0.55    0.12 
   0   3  10    0.55    0.10 
   0   3  10    0.73    0.12 
  -1  -3 -10    5.89    0.30 
  -1  -3 -10    5.71    0.32 
  -1  -3 -10    5.28    0.31 
   1   3  10    5.66    0.28 
  -2  -3 -10    7.07    0.35 
  -2  -3 -10    7.07    0.34 
  -2  -3 -10    6.89    0.35 
   2   3  10    7.58    0.31 
  -3  -3 -10    0.08    0.08 
  -3  -3 -10   -0.08    0.03 
  -3  -3 -10    0.02    0.05 
   3   3  10    0.14    0.06 
  -4  -3 -10    7.04    0.33 
  -4  -3 -10    6.78    0.34 
  -4  -3 -10    6.26    0.33 
  -5  -3 -10    6.00    0.33 
  -5  -3 -10    6.53    0.33 
  -5  -3 -10    6.26    0.31 
   5   3  10    6.87    0.38 
  -6  -3 -10    9.31    0.43 
  -6  -3 -10    9.44    0.44 
  -6  -3 -10    9.58    0.42 
   6   3  10   10.14    0.50 
  -7  -3 -10    2.61    0.24 
  -7  -3 -10    2.52    0.20 
  -7  -3 -10    2.42    0.19 
   7   3  10    2.83    0.27 
  -8  -3 -10   11.76    0.50 
  -8  -3 -10   11.75    0.53 
   8   3  10   11.28    0.58 
   4  -4 -10    6.38    0.39 
   4  -4 -10    7.56    0.45 
  -4   4  10    7.05    0.40 
   3  -4 -10    9.34    0.47 
   3  -4 -10    9.61    0.49 
  -3   4  10    9.92    0.46 
   2  -4 -10    1.66    0.19 
   2  -4 -10    2.25    0.20 
   2  -4 -10    1.61    0.22 
  -2   4  10    2.11    0.19 
   1  -4 -10    0.91    0.15 
   1  -4 -10    0.87    0.16 
   1  -4 -10    0.84    0.14 
  -1   4  10    1.09    0.15 
   0  -4 -10    0.79    0.15 
   0  -4 -10    0.81    0.13 
   0  -4 -10    0.60    0.12 
   0   4  10    0.52    0.10 
  -1  -4 -10   11.09    0.45 
  -1  -4 -10   11.38    0.47 
  -1  -4 -10   11.09    0.48 
   1   4  10   11.88    0.42 
  -2  -4 -10    4.24    0.26 
  -2  -4 -10    3.87    0.26 
  -2  -4 -10    4.09    0.23 
  -3  -4 -10   11.06    0.43 
  -3  -4 -10   10.55    0.44 
  -3  -4 -10   10.68    0.43 
  -4  -4 -10    0.68    0.12 
  -4  -4 -10    0.61    0.11 
  -4  -4 -10    0.69    0.10 
  -5  -4 -10    8.46    0.36 
  -5  -4 -10    8.34    0.38 
  -5  -4 -10    8.65    0.38 
   5   4  10    8.44    0.46 
  -6  -4 -10    0.72    0.11 
  -6  -4 -10    0.76    0.13 
  -6  -4 -10    0.86    0.13 
   6   4  10    1.00    0.20 
  -7  -4 -10    7.69    0.38 
  -7  -4 -10    7.71    0.35 
  -7  -4 -10    7.37    0.37 
   7   4  10    8.26    0.47 
  -8  -4 -10    0.22    0.08 
  -8  -4 -10    0.17    0.04 
   8   4  10    0.03    0.11 
   3  -5 -10   -0.14    0.08 
   3  -5 -10    0.08    0.06 
   2  -5 -10   11.00    0.52 
   2  -5 -10   11.82    0.54 
   2  -5 -10   11.36    0.50 
   1  -5 -10   23.61    0.81 
   1  -5 -10   23.49    0.82 
   1  -5 -10   23.14    0.84 
   0  -5 -10    2.92    0.25 
   0  -5 -10    2.99    0.23 
   0  -5 -10    3.51    0.22 
  -1  -5 -10    1.91    0.17 
  -1  -5 -10    1.74    0.19 
  -1  -5 -10    1.97    0.16 
  -2  -5 -10    5.24    0.29 
  -2  -5 -10    5.74    0.28 
  -2  -5 -10    5.62    0.29 
  -3  -5 -10    3.44    0.21 
  -3  -5 -10    3.54    0.22 
  -3  -5 -10    3.41    0.20 
  -4  -5 -10    7.97    0.32 
  -4  -5 -10    7.22    0.33 
  -4  -5 -10    7.14    0.33 
  -5  -5 -10   29.39    0.93 
  -5  -5 -10   30.84    0.91 
  -5  -5 -10   29.87    0.91 
  -6  -5 -10    6.12    0.31 
  -6  -5 -10    6.81    0.32 
  -6  -5 -10    6.95    0.30 
   6   5  10    7.16    0.44 
  -7  -5 -10   11.40    0.47 
  -7  -5 -10   12.74    0.49 
  -7  -5 -10   11.78    0.48 
   7   5  10   12.23    0.61 
  -8  -5 -10    4.16    0.26 
   8   5  10    4.96    0.39 
   3  -6 -10    0.66    0.14 
   3  -6 -10    0.67    0.17 
   2  -6 -10    0.53    0.15 
   2  -6 -10    0.59    0.12 
   1  -6 -10   -0.02    0.09 
   1  -6 -10   -0.04    0.05 
   1  -6 -10   -0.01    0.04 
   0  -6 -10    4.56    0.29 
   0  -6 -10    4.84    0.27 
   0  -6 -10    4.88    0.31 
  -1  -6 -10    0.07    0.05 
  -1  -6 -10    0.03    0.07 
  -1  -6 -10    0.06    0.04 
  -2  -6 -10   -0.01    0.04 
  -2  -6 -10    0.11    0.07 
  -2  -6 -10    0.05    0.03 
  -3  -6 -10    0.38    0.06 
  -3  -6 -10    0.31    0.08 
  -3  -6 -10    0.21    0.08 
  -4  -6 -10   -0.01    0.04 
  -4  -6 -10    0.07    0.02 
  -4  -6 -10    0.07    0.06 
  -5  -6 -10    0.63    0.10 
  -5  -6 -10    0.69    0.10 
  -6  -6 -10    1.64    0.14 
  -6  -6 -10    1.50    0.15 
   6   6  10    2.18    0.26 
  -7  -6 -10    0.07    0.04 
  -7  -6 -10    0.02    0.05 
   7   6  10   -0.01    0.12 
  -8  -6 -10    1.46    0.13 
   2  -7 -10    8.61    0.46 
   2  -7 -10    8.19    0.41 
   1  -7 -10    6.29    0.33 
   1  -7 -10    6.24    0.37 
   0  -7 -10    8.94    0.42 
   0  -7 -10    8.51    0.42 
   0  -7 -10    9.11    0.40 
  -1  -7 -10    7.37    0.33 
  -1  -7 -10    7.45    0.36 
  -1  -7 -10    7.49    0.36 
  -2  -7 -10    6.99    0.31 
  -2  -7 -10    7.29    0.34 
  -2  -7 -10    7.12    0.33 
  -3  -7 -10    0.03    0.04 
  -3  -7 -10    0.05    0.05 
  -4  -7 -10    1.91    0.14 
  -4  -7 -10    1.75    0.15 
  -5  -7 -10   12.85    0.46 
  -5  -7 -10   13.17    0.46 
  -6  -7 -10    7.06    0.30 
  -7  -7 -10    4.86    0.25 
   7   7  10    4.88    0.41 
   1  -8 -10    3.78    0.24 
   1  -8 -10    3.55    0.29 
   0  -8 -10   21.22    0.73 
   0  -8 -10   20.77    0.75 
  -1  -8 -10    0.18    0.08 
  -1  -8 -10    0.09    0.05 
  -1  -8 -10    0.25    0.05 
  -2  -8 -10   12.00    0.47 
  -2  -8 -10   12.31    0.47 
  -3  -8 -10    1.06    0.10 
  -3  -8 -10    1.19    0.12 
  -4  -8 -10    9.84    0.38 
  -5  -8 -10    1.77    0.13 
  -6  -8 -10    6.26    0.27 
  -1  -9 -10    1.88    0.18 
  -2  -9 -10    0.22    0.04 
  -2  -9 -10    0.02    0.06 
  -3  -9 -10    0.14    0.06 
  -4  -9 -10    2.45    0.16 
  -5  -9 -10    1.03    0.10 
   0   4 -11    1.46    0.23 
   0  -4  11    1.48    0.24 
   2   3 -11    8.97    0.49 
   2   3 -11   10.09    0.52 
  -2  -3  11    9.33    0.51 
   1   3 -11    8.72    0.48 
   1   3 -11    8.70    0.47 
  -1  -3  11    9.05    0.48 
  -1  -3  11    8.26    0.46 
   0   3 -11    4.65    0.34 
   0   3 -11    5.70    0.37 
   0  -3  11    5.25    0.35 
   0  -3  11    4.39    0.33 
  -1   3 -11   -0.08    0.06 
  -1   3 -11    0.03    0.10 
   1  -3  11    0.14    0.09 
   1  -3  11    0.01    0.09 
  -2   3 -11    3.90    0.32 
   2  -3  11    4.63    0.33 
   2  -3  11    3.95    0.30 
  -3   3 -11    3.04    0.28 
   3  -3  11    2.32    0.23 
   3  -3  11    2.81    0.27 
   3   2 -11   18.71    0.78 
   3   2 -11   19.59    0.78 
  -3  -2  11   19.66    0.79 
   2   2 -11    0.16    0.11 
   2   2 -11    0.04    0.09 
  -2  -2  11    0.28    0.10 
  -2  -2  11    0.02    0.06 
   1   2 -11   25.20    0.95 
   1   2 -11   24.85    0.92 
  -1  -2  11   26.01    0.93 
  -1  -2  11   25.22    0.94 
   0   2 -11    3.18    0.29 
   0   2 -11    3.17    0.29 
   0   2 -11    3.40    0.28 
   0  -2  11    3.45    0.29 
   0  -2  11    4.07    0.30 
  -1   2 -11   13.51    0.61 
  -1   2 -11   15.31    0.64 
  -1   2 -11   14.28    0.64 
   1  -2  11   14.24    0.63 
   1  -2  11   14.41    0.62 
  -2   2 -11    7.89    0.45 
  -2   2 -11    7.66    0.45 
  -2   2 -11    8.25    0.45 
   2  -2  11    8.07    0.43 
   2  -2  11    7.94    0.43 
  -3   2 -11    6.77    0.44 
  -3   2 -11    7.27    0.42 
  -3   2 -11    7.45    0.44 
   3  -2  11    7.60    0.41 
   3  -2  11    7.21    0.41 
  -4   2 -11   10.60    0.55 
  -4   2 -11   10.97    0.54 
   4  -2  11   11.31    0.53 
   3   1 -11    0.03    0.08 
   3   1 -11    0.16    0.09 
  -3  -1  11   -0.03    0.08 
  -3  -1  11   -0.04    0.05 
   2   1 -11    7.02    0.43 
   2   1 -11    7.38    0.42 
  -2  -1  11    7.32    0.43 
  -2  -1  11    7.82    0.43 
   1   1 -11    0.37    0.13 
   1   1 -11    0.20    0.10 
   1   1 -11    0.39    0.14 
  -1  -1  11    0.26    0.11 
  -1  -1  11    0.55    0.15 
   0   1 -11    5.53    0.38 
   0   1 -11    5.68    0.38 
   0   1 -11    6.75    0.39 
   0  -1  11    5.97    0.36 
   0  -1  11    5.28    0.35 
  -1   1 -11    1.95    0.23 
  -1   1 -11    2.58    0.27 
  -1   1 -11    2.47    0.25 
   1  -1  11    2.91    0.25 
   1  -1  11    2.75    0.25 
  -2   1 -11    1.06    0.20 
  -2   1 -11    0.95    0.19 
  -2   1 -11    1.15    0.18 
   2  -1  11    1.17    0.18 
   2  -1  11    1.47    0.22 
  -3   1 -11   18.85    0.80 
  -3   1 -11   21.37    0.80 
  -3   1 -11   21.54    0.79 
   3  -1  11   20.34    0.77 
   3  -1  11   20.79    0.76 
  -4   1 -11    1.29    0.21 
  -4   1 -11    1.32    0.20 
   4  -1  11    1.41    0.20 
  -5   1 -11    0.32    0.13 
  -5   1 -11    0.29    0.08 
   5  -1  11    0.34    0.11 
   4   0 -11    6.37    0.40 
  -4   0  11    5.78    0.39 
  -4   0  11    6.03    0.39 
   3   0 -11   13.13    0.59 
   3   0 -11   12.32    0.59 
  -3   0  11   13.05    0.59 
  -3   0  11   12.25    0.59 
   2   0 -11    3.48    0.29 
   2   0 -11    3.33    0.30 
   2   0 -11    2.86    0.28 
  -2   0  11    3.25    0.27 
  -2   0  11    3.17    0.27 
   1   0 -11   31.70    1.05 
   1   0 -11   30.91    1.05 
   1   0 -11   31.48    1.09 
  -1   0  11   30.70    1.03 
  -1   0  11   30.65    1.06 
   0   0 -11   18.75    0.73 
   0   0 -11   18.73    0.75 
   0   0 -11   18.59    0.71 
   0   0  11   18.61    0.72 
   0   0  11   18.61    0.70 
  -1   0 -11    3.04    0.24 
  -1   0 -11    3.07    0.28 
  -1   0 -11    2.77    0.27 
   1   0  11    2.94    0.24 
   1   0  11    3.03    0.25 
  -2   0 -11   15.29    0.61 
  -2   0 -11   13.73    0.61 
  -2   0 -11   14.54    0.63 
   2   0  11   14.65    0.58 
   2   0  11   14.15    0.58 
  -3   0 -11    7.90    0.42 
  -3   0 -11    8.54    0.46 
  -3   0 -11    8.28    0.44 
   3   0  11    8.78    0.41 
  -4   0 -11   19.85    0.75 
  -4   0 -11   18.05    0.75 
  -4   0 -11   19.64    0.74 
   4   0  11   19.10    0.70 
  -5   0 -11    0.15    0.11 
  -5   0 -11    0.23    0.08 
   5   0  11    0.14    0.08 
  -6   0 -11   11.07    0.56 
  -6   0 -11   12.53    0.56 
   4  -1 -11    0.19    0.11 
  -4   1  11   -0.03    0.05 
  -4   1  11    0.09    0.09 
   3  -1 -11    0.45    0.13 
   3  -1 -11    0.23    0.11 
  -3   1  11    0.50    0.13 
  -3   1  11    0.27    0.12 
   2  -1 -11    4.79    0.34 
   2  -1 -11    4.86    0.35 
   2  -1 -11    5.15    0.33 
  -2   1  11    4.56    0.32 
  -2   1  11    4.78    0.32 
   1  -1 -11    3.88    0.31 
   1  -1 -11    3.69    0.30 
   1  -1 -11    3.84    0.27 
  -1   1  11    3.54    0.27 
  -1   1  11    3.63    0.27 
   0  -1 -11    0.52    0.15 
   0  -1 -11    0.37    0.14 
   0  -1 -11    0.66    0.13 
   0   1  11    0.72    0.15 
   0   1  11    0.59    0.13 
  -1  -1 -11   12.56    0.53 
  -1  -1 -11   12.32    0.56 
  -1  -1 -11   12.25    0.54 
   1   1  11   12.16    0.51 
   1   1  11   12.53    0.51 
  -2  -1 -11    8.85    0.43 
  -2  -1 -11    8.69    0.45 
  -2  -1 -11    9.49    0.46 
   2   1  11    9.56    0.42 
  -3  -1 -11   22.81    0.82 
  -3  -1 -11   22.61    0.84 
  -3  -1 -11   23.85    0.82 
   3   1  11   22.94    0.77 
  -4  -1 -11    3.85    0.30 
  -4  -1 -11    3.70    0.28 
  -4  -1 -11    3.85    0.26 
   4   1  11    3.89    0.25 
  -5  -1 -11   14.68    0.59 
  -5  -1 -11   13.99    0.60 
  -5  -1 -11   13.40    0.60 
  -6  -1 -11   11.32    0.55 
  -6  -1 -11   12.64    0.55 
   4  -2 -11    0.53    0.14 
  -4   2  11    0.39    0.14 
   3  -2 -11    5.49    0.35 
   3  -2 -11    5.70    0.39 
  -3   2  11    6.15    0.37 
   2  -2 -11    2.50    0.23 
   2  -2 -11    2.46    0.25 
   2  -2 -11    2.70    0.28 
  -2   2  11    2.44    0.22 
   1  -2 -11   20.89    0.77 
   1  -2 -11   20.26    0.76 
   1  -2 -11   20.01    0.79 
  -1   2  11   19.31    0.74 
  -1   2  11   20.56    0.73 
   0  -2 -11    0.27    0.10 
   0  -2 -11    0.26    0.08 
   0  -2 -11    0.36    0.14 
   0   2  11    0.29    0.09 
  -1  -2 -11    5.07    0.30 
  -1  -2 -11    4.51    0.32 
  -1  -2 -11    5.44    0.33 
   1   2  11    5.49    0.29 
  -2  -2 -11    2.99    0.24 
  -2  -2 -11    2.85    0.26 
  -2  -2 -11    2.62    0.21 
   2   2  11    2.75    0.20 
  -3  -2 -11    0.35    0.10 
  -3  -2 -11    0.12    0.10 
   3   2  11    0.28    0.08 
  -4  -2 -11    0.26    0.11 
  -4  -2 -11    0.28    0.09 
  -4  -2 -11    0.07    0.06 
  -5  -2 -11    0.65    0.15 
  -5  -2 -11    0.53    0.11 
  -5  -2 -11    0.33    0.09 
  -6  -2 -11    2.09    0.25 
  -6  -2 -11    2.87    0.21 
  -7  -2 -11    5.77    0.38 
  -7  -2 -11    5.65    0.33 
   3  -3 -11    6.08    0.36 
   3  -3 -11    4.93    0.37 
  -3   3  11    5.30    0.34 
   2  -3 -11    2.37    0.21 
   2  -3 -11    1.89    0.22 
   2  -3 -11    2.43    0.26 
  -2   3  11    2.18    0.21 
   1  -3 -11   21.68    0.79 
   1  -3 -11   21.65    0.82 
   1  -3 -11   21.71    0.80 
  -1   3  11   21.40    0.75 
   0  -3 -11   15.55    0.61 
   0  -3 -11   14.87    0.62 
   0  -3 -11   15.32    0.62 
   0   3  11   15.44    0.57 
  -1  -3 -11   14.32    0.58 
  -1  -3 -11   14.70    0.56 
  -1  -3 -11   13.17    0.57 
   1   3  11   14.19    0.52 
  -2  -3 -11    2.56    0.19 
  -2  -3 -11    2.29    0.23 
  -2  -3 -11    2.40    0.21 
   2   3  11    2.24    0.17 
  -3  -3 -11   48.54    1.43 
  -3  -3 -11   47.84    1.43 
  -3  -3 -11   49.63    1.48 
  -4  -3 -11    8.55    0.41 
  -4  -3 -11    7.76    0.40 
  -4  -3 -11    8.83    0.39 
  -5  -3 -11   14.27    0.55 
  -5  -3 -11   13.23    0.55 
  -5  -3 -11   13.11    0.55 
  -6  -3 -11    4.76    0.32 
  -6  -3 -11    4.47    0.28 
  -6  -3 -11    4.82    0.28 
   6   3  11    4.78    0.34 
  -7  -3 -11    2.18    0.24 
  -7  -3 -11    2.33    0.18 
   7   3  11    2.15    0.26 
   3  -4 -11    2.67    0.29 
   3  -4 -11    3.08    0.25 
  -3   4  11    2.72    0.24 
   2  -4 -11    1.11    0.21 
   2  -4 -11    1.09    0.18 
  -2   4  11    1.11    0.17 
   1  -4 -11    0.02    0.05 
   1  -4 -11    0.02    0.06 
   1  -4 -11    0.11    0.11 
  -1   4  11    0.09    0.06 
   0  -4 -11    1.05    0.17 
   0  -4 -11    0.64    0.12 
   0  -4 -11    0.73    0.16 
  -1  -4 -11    2.76    0.21 
  -1  -4 -11    2.70    0.22 
  -1  -4 -11    2.70    0.25 
  -2  -4 -11    4.56    0.26 
  -2  -4 -11    4.25    0.29 
  -2  -4 -11    5.00    0.29 
  -3  -4 -11   10.70    0.44 
  -3  -4 -11    9.76    0.45 
  -3  -4 -11   10.84    0.46 
  -4  -4 -11    0.29    0.09 
  -4  -4 -11    0.22    0.10 
  -4  -4 -11    0.46    0.09 
  -5  -4 -11   13.02    0.52 
  -5  -4 -11   13.12    0.50 
  -5  -4 -11   12.11    0.50 
  -6  -4 -11    1.03    0.12 
  -6  -4 -11    0.66    0.11 
  -6  -4 -11    0.64    0.14 
   6   4  11    1.05    0.20 
  -7  -4 -11    9.24    0.44 
  -7  -4 -11    9.55    0.42 
   7   4  11   10.62    0.55 
   2  -5 -11   14.58    0.61 
   2  -5 -11   14.90    0.65 
   1  -5 -11    4.80    0.33 
   1  -5 -11    5.38    0.31 
   1  -5 -11    4.52    0.31 
   0  -5 -11   12.00    0.49 
   0  -5 -11   10.99    0.50 
   0  -5 -11   10.41    0.50 
  -1  -5 -11    0.36    0.07 
  -1  -5 -11    0.26    0.08 
  -1  -5 -11    0.23    0.11 
  -2  -5 -11   13.02    0.53 
  -2  -5 -11   13.38    0.51 
  -2  -5 -11   12.88    0.52 
  -3  -5 -11    4.50    0.26 
  -3  -5 -11    4.24    0.24 
  -3  -5 -11    4.11    0.26 
  -4  -5 -11    0.26    0.05 
  -4  -5 -11    0.18    0.07 
  -4  -5 -11    0.18    0.08 
  -5  -5 -11    7.04    0.34 
  -5  -5 -11    6.53    0.33 
  -5  -5 -11    7.35    0.32 
  -6  -5 -11    5.43    0.30 
  -6  -5 -11    5.64    0.27 
  -6  -5 -11    4.99    0.28 
   6   5  11    5.68    0.41 
  -7  -5 -11    4.50    0.28 
   7   5  11    4.46    0.37 
   2  -6 -11    4.81    0.31 
   2  -6 -11    5.72    0.37 
   1  -6 -11    0.98    0.15 
   1  -6 -11    0.68    0.16 
   0  -6 -11   15.96    0.64 
   0  -6 -11   14.86    0.59 
   0  -6 -11   16.68    0.64 
  -1  -6 -11    2.57    0.21 
  -1  -6 -11    2.21    0.22 
  -1  -6 -11    2.30    0.17 
  -2  -6 -11    9.99    0.44 
  -2  -6 -11    9.97    0.41 
  -2  -6 -11    9.81    0.43 
  -3  -6 -11    7.82    0.36 
  -3  -6 -11    7.77    0.36 
  -3  -6 -11    8.46    0.35 
  -4  -6 -11   24.47    0.80 
  -4  -6 -11   25.47    0.83 
  -4  -6 -11   25.55    0.79 
  -5  -6 -11    4.65    0.25 
  -5  -6 -11    4.45    0.25 
  -6  -6 -11    1.36    0.15 
  -6  -6 -11    1.38    0.12 
  -7  -6 -11    9.33    0.41 
  -7  -6 -11    9.22    0.39 
   7   6  11    9.56    0.57 
   1  -7 -11    0.14    0.12 
   1  -7 -11    0.22    0.05 
   0  -7 -11    3.80    0.29 
   0  -7 -11    4.73    0.26 
  -1  -7 -11    0.13    0.05 
  -1  -7 -11    0.06    0.04 
  -1  -7 -11    0.00    0.07 
  -2  -7 -11    0.81    0.13 
  -2  -7 -11    0.80    0.12 
  -2  -7 -11    0.75    0.10 
  -3  -7 -11    0.62    0.10 
  -3  -7 -11    0.67    0.12 
  -4  -7 -11    2.93    0.20 
  -4  -7 -11    2.98    0.19 
  -5  -7 -11    1.16    0.11 
  -5  -7 -11    1.13    0.14 
  -6  -7 -11    3.09    0.20 
  -1  -8 -11    0.20    0.09 
  -1  -8 -11    0.17    0.04 
  -2  -8 -11    9.78    0.41 
  -2  -8 -11    8.86    0.41 
  -3  -8 -11    6.23    0.29 
  -3  -8 -11    5.10    0.28 
  -4  -8 -11    6.74    0.31 
  -5  -8 -11    2.05    0.16 
   1   2 -12    7.25    0.43 
  -1  -2  12    6.29    0.41 
   0   2 -12    7.56    0.44 
   0  -2  12    5.99    0.38 
   0  -2  12    6.68    0.41 
  -1   2 -12    7.86    0.45 
   1  -2  12    7.35    0.43 
   1  -2  12    6.86    0.40 
  -2   2 -12    1.37    0.21 
   2  -2  12    1.07    0.19 
   2   1 -12    7.31    0.43 
  -2  -1  12    6.94    0.43 
  -2  -1  12    6.91    0.40 
   1   1 -12    1.60    0.23 
  -1  -1  12    1.74    0.20 
  -1  -1  12    1.58    0.22 
   0   1 -12    3.20    0.30 
   0   1 -12    4.01    0.32 
   0  -1  12    3.82    0.29 
   0  -1  12    3.69    0.29 
  -1   1 -12   13.12    0.60 
  -1   1 -12   13.12    0.60 
   1  -1  12   12.84    0.58 
   1  -1  12   11.77    0.55 
  -2   1 -12   14.31    0.62 
  -2   1 -12   13.61    0.63 
   2  -1  12   14.12    0.60 
  -3   1 -12   17.42    0.72 
  -3   1 -12   17.39    0.74 
   3  -1  12   17.96    0.70 
  -4   1 -12    3.36    0.26 
  -4   1 -12    2.57    0.29 
   4  -1  12    2.86    0.26 
   2   0 -12   -0.03    0.08 
  -2   0  12    0.10    0.05 
  -2   0  12    0.12    0.10 
   1   0 -12    1.11    0.19 
   1   0 -12    1.07    0.21 
  -1   0  12    0.86    0.14 
  -1   0  12    1.18    0.19 
   0   0 -12    0.26    0.09 
   0   0 -12    0.21    0.13 
   0   0 -12    0.34    0.10 
   0   0  12    0.58    0.13 
   0   0  12    0.26    0.11 
  -1   0 -12    0.09    0.06 
  -1   0 -12    0.25    0.10 
  -1   0 -12    0.26    0.14 
   1   0  12    0.37    0.11 
  -2   0 -12   -0.03    0.05 
  -2   0 -12    0.09    0.11 
   2   0  12    0.02    0.08 
  -3   0 -12    4.49    0.35 
  -3   0 -12    4.62    0.32 
   3   0  12    5.17    0.31 
  -4   0 -12    4.72    0.34 
  -4   0 -12    4.20    0.30 
   4   0  12    3.69    0.27 
  -5   0 -12    3.07    0.30 
  -5   0 -12    3.91    0.28 
   2  -1 -12    3.96    0.34 
   2  -1 -12    4.30    0.32 
  -2   1  12    3.88    0.30 
   1  -1 -12    6.33    0.41 
   1  -1 -12    6.31    0.37 
  -1   1  12    6.08    0.36 
   0  -1 -12    5.75    0.39 
   0  -1 -12    6.03    0.36 
   0  -1 -12    6.06    0.38 
   0   1  12    6.63    0.37 
  -1  -1 -12   10.37    0.49 
  -1  -1 -12    9.54    0.50 
  -1  -1 -12    9.55    0.50 
   1   1  12   10.60    0.47 
  -2  -1 -12    6.45    0.37 
  -2  -1 -12    6.16    0.38 
  -2  -1 -12    6.25    0.39 
   2   1  12    6.83    0.35 
  -3  -1 -12   16.35    0.72 
  -3  -1 -12   18.99    0.73 
  -3  -1 -12   17.60    0.70 
   3   1  12   18.56    0.66 
  -4  -1 -12    4.20    0.29 
  -4  -1 -12    4.10    0.31 
  -5  -1 -12   15.16    0.66 
  -5  -1 -12   15.07    0.63 
   2  -2 -12    5.34    0.35 
   2  -2 -12    5.98    0.41 
  -2   2  12    6.01    0.36 
   1  -2 -12    0.14    0.06 
   1  -2 -12    0.03    0.12 
  -1   2  12    0.03    0.08 
   0  -2 -12    1.81    0.24 
   0  -2 -12    1.79    0.24 
   0  -2 -12    1.99    0.19 
   0   2  12    1.90    0.19 
  -1  -2 -12    7.94    0.43 
  -1  -2 -12    8.17    0.44 
  -1  -2 -12    8.10    0.41 
   1   2  12    8.03    0.39 
  -2  -2 -12   10.02    0.49 
  -2  -2 -12    9.55    0.46 
  -2  -2 -12    9.89    0.49 
   2   2  12   10.33    0.44 
  -3  -2 -12    0.00    0.04 
  -3  -2 -12    0.05    0.05 
  -3  -2 -12    0.08    0.11 
  -4  -2 -12    9.51    0.44 
  -4  -2 -12    8.50    0.45 
  -5  -2 -12    3.65    0.25 
  -5  -2 -12    3.16    0.28 
  -6  -2 -12    4.78    0.30 
  -6  -2 -12    4.31    0.33 
   2  -3 -12    0.73    0.14 
   2  -3 -12    0.65    0.16 
  -2   3  12    1.10    0.17 
   1  -3 -12    1.98    0.27 
   1  -3 -12    1.90    0.19 
  -1   3  12    1.85    0.19 
   0  -3 -12    0.01    0.04 
   0  -3 -12   -0.02    0.11 
   0  -3 -12    0.12    0.07 
   0   3  12    0.01    0.06 
  -1  -3 -12    4.21    0.27 
  -1  -3 -12    3.90    0.31 
  -1  -3 -12    3.89    0.28 
  -2  -3 -12    1.19    0.19 
  -2  -3 -12    1.10    0.17 
  -2  -3 -12    0.84    0.14 
  -3  -3 -12    5.57    0.33 
  -3  -3 -12    5.57    0.35 
  -3  -3 -12    5.73    0.32 
  -4  -3 -12    0.04    0.09 
  -4  -3 -12    0.10    0.04 
  -4  -3 -12    0.04    0.05 
  -5  -3 -12    6.97    0.39 
  -5  -3 -12    6.91    0.36 
  -6  -3 -12    2.18    0.18 
  -6  -3 -12    2.41    0.24 
   2  -4 -12   13.13    0.62 
   2  -4 -12   13.37    0.59 
   1  -4 -12    1.26    0.21 
   1  -4 -12    1.33    0.15 
   0  -4 -12    1.10    0.16 
   0  -4 -12    0.91    0.18 
  -1  -4 -12    7.77    0.42 
  -1  -4 -12    8.38    0.44 
  -1  -4 -12    9.36    0.42 
  -2  -4 -12    6.95    0.39 
  -2  -4 -12    7.22    0.36 
  -2  -4 -12    7.16    0.38 
  -3  -4 -12    5.30    0.32 
  -3  -4 -12    5.66    0.31 
  -3  -4 -12    5.79    0.34 
  -4  -4 -12   10.80    0.49 
  -4  -4 -12   10.95    0.47 
  -4  -4 -12   11.17    0.49 
  -5  -4 -12    1.41    0.20 
  -5  -4 -12    1.36    0.13 
  -6  -4 -12    1.77    0.20 
  -6  -4 -12    1.72    0.15 
   1  -5 -12    0.00    0.05 
   1  -5 -12    0.13    0.10 
   0  -5 -12    4.36    0.27 
   0  -5 -12    4.25    0.32 
  -1  -5 -12    1.99    0.23 
  -1  -5 -12    1.79    0.16 
  -1  -5 -12    2.00    0.20 
  -2  -5 -12   -0.03    0.05 
  -2  -5 -12    0.18    0.04 
  -2  -5 -12   -0.04    0.09 
  -3  -5 -12    1.52    0.19 
  -3  -5 -12    1.45    0.13 
  -3  -5 -12    1.35    0.15 
  -4  -5 -12    0.61    0.10 
  -4  -5 -12    0.72    0.10 
  -4  -5 -12    0.47    0.11 
  -5  -5 -12    0.42    0.07 
  -5  -5 -12    0.17    0.07 
  -5  -5 -12    0.34    0.06 
  -6  -5 -12    5.38    0.28 
  -6  -5 -12    5.58    0.32 
   0  -6 -12    0.08    0.10 
   0  -6 -12    0.03    0.04 
  -1  -6 -12    6.86    0.34 
  -1  -6 -12    6.20    0.37 
  -2  -6 -12    0.02    0.03 
  -2  -6 -12    0.01    0.04 
  -2  -6 -12   -0.15    0.06 
  -3  -6 -12    0.41    0.09 
  -3  -6 -12    0.25    0.05 
  -3  -6 -12    0.08    0.07 
  -4  -6 -12   10.63    0.43 
  -4  -6 -12   10.93    0.46 
  -4  -6 -12   11.75    0.48 
  -5  -6 -12    1.59    0.13 
  -5  -6 -12    1.61    0.16 
  -1  -7 -12    6.35    0.38 
  -1  -7 -12    7.08    0.34 
  -2  -7 -12    2.76    0.19 
  -2  -7 -12    3.12    0.23 
  -3  -7 -12    3.15    0.23 
  -3  -7 -12    2.87    0.22 
  -4  -7 -12    0.08    0.06 
  -4  -7 -12    0.12    0.04 
  -5  -7 -12    1.28    0.14 
  -5  -7 -12    1.16    0.11 
  -1   0 -13    8.82    0.48 
  -1   0 -13    9.58    0.51 
   1   0  13    8.81    0.47 
  -2   0 -13    2.02    0.20 
  -2   0 -13    2.18    0.28 
   2   0  13    2.03    0.22 
   0  -1 -13   -0.07    0.05 
   0  -1 -13    0.13    0.12 
   0   1  13    0.03    0.08 
  -1  -1 -13   23.13    0.87 
  -1  -1 -13   22.77    0.88 
   1   1  13   23.20    0.83 
  -2  -1 -13    0.06    0.12 
   2   1  13    0.10    0.07 
  -3  -1 -13    2.30    0.20 
  -3  -1 -13    1.80    0.26 
   0  -2 -13    8.60    0.45 
   0  -2 -13    9.32    0.51 
   0   2  13    9.01    0.44 
  -1  -2 -13    2.96    0.24 
  -1  -2 -13    3.34    0.31 
  -2  -2 -13    4.66    0.30 
  -2  -2 -13    3.98    0.33 
  -3  -2 -13   16.48    0.71 
  -3  -2 -13   17.99    0.70 
  -4  -2 -13    5.35    0.33 
  -4  -2 -13    5.03    0.36 
   0  -3 -13    0.77    0.18 
   0  -3 -13    0.55    0.11 
  -1  -3 -13    0.41    0.09 
  -1  -3 -13    0.54    0.17 
  -2  -3 -13    0.49    0.16 
  -2  -3 -13    0.31    0.08 
  -3  -3 -13    0.32    0.13 
  -3  -3 -13    0.36    0.08 
  -4  -3 -13    0.08    0.11 
  -4  -3 -13   -0.04    0.05 
   0  -4 -13   16.27    0.68 
   0  -4 -13   17.90    0.73 
  -1  -4 -13   22.88    0.86 
  -1  -4 -13   22.54    0.82 
  -2  -4 -13   12.70    0.53 
  -2  -4 -13   12.27    0.57 
  -3  -4 -13    0.38    0.09 
  -3  -4 -13    0.37    0.13 
  -4  -4 -13    4.43    0.32 
  -4  -4 -13    4.88    0.29 
  -1  -5 -13   11.62    0.50 
  -1  -5 -13   11.32    0.54 
  -2  -5 -13   10.82    0.47 
  -2  -5 -13   10.27    0.50 
  -3  -5 -13   11.13    0.51 
  -3  -5 -13   10.77    0.47 
  -4  -5 -13    8.19    0.43 
  -4  -5 -13    9.28    0.41 
   0   0   0    0.00    0.00 
;
_shelx_hkl_checksum              43947
#END Tags that were not found in dictionaries
loop_
_space_group_symop_operation_xyz
'x, y, z'
'-x, -y, -z'
loop_
_atom_site_label
_atom_site_type_symbol
_atom_site_fract_x
_atom_site_fract_y
_atom_site_fract_z
_atom_site_U_iso_or_equiv
_atom_site_adp_type
_atom_site_occupancy
_atom_site_site_symmetry_order
_atom_site_calc_flag
_atom_site_refinement_flags_posn
_atom_site_refinement_flags_adp
Cl1 Cl 0.98888(4) 0.19183(3) 0.35748(2) 0.01697(8) Uani 1 1 d . .
O1 O 0.61847(11) 0.71670(9) 0.14286(7) 0.01362(16) Uani 1 1 d . .
O2 O 0.73468(10) 0.56242(9) 0.34149(7) 0.01323(16) Uani 1 1 d . .
N1 N 0.80876(12) 0.40319(11) 0.00988(9) 0.01245(18) Uani 1 1 d . .
N2 N 0.90306(13) 0.25304(12) -0.01974(9) 0.01577(19) Uani 1 1 d . .
C1 C 0.51039(17) 0.99845(13) 0.18789(11) 0.0189(2) Uani 1 1 d . .
H14 H 0.6329 1.0152 0.1440 0.028 Uiso 1 1 calc R U
H13 H 0.4623 1.0629 0.2605 0.028 Uiso 1 1 calc R U
H1 H 0.4259 1.0369 0.1189 0.028 Uiso 1 1 calc R U
C2 C 0.52589(15) 0.81285(13) 0.25034(10) 0.0129(2) Uani 1 1 d . .
C3 C 0.81671(14) 0.41438(13) 0.14072(10) 0.01094(19) Uani 1 1 d . .
C4 C 0.92456(14) 0.25749(13) 0.19585(10) 0.01235(19) Uani 1 1 d . .
C5 C 0.97452(15) 0.16316(13) 0.09417(11) 0.0151(2) Uani 1 1 d . .
H2 H 1.0487 0.0510 0.1044 0.018 Uiso 1 1 calc R U
C6 C 0.33461(15) 0.77778(14) 0.29635(12) 0.0178(2) Uani 1 1 d . .
H15 H 0.2714 0.8027 0.2159 0.027 Uiso 1 1 calc R U
H16 H 0.2619 0.8488 0.3607 0.027 Uiso 1 1 calc R U
H3 H 0.3475 0.6593 0.3421 0.027 Uiso 1 1 calc R U
C7 C 0.65613(14) 0.73464(13) 0.36311(10) 0.01213(19) Uani 1 1 d . .
C8 C 0.81957(16) 0.81274(15) 0.34015(11) 0.0181(2) Uani 1 1 d . .
H4 H 0.9088 0.7431 0.4019 0.027 Uiso 1 1 calc R U
H6 H 0.7756 0.9259 0.3594 0.027 Uiso 1 1 calc R U
H5 H 0.8795 0.8196 0.2444 0.027 Uiso 1 1 calc R U
C9 C 0.55730(16) 0.72639(14) 0.51037(11) 0.0168(2) Uani 1 1 d . .
H7 H 0.4697 0.6557 0.5290 0.025 Uiso 1 1 calc R U
H8 H 0.4900 0.8399 0.5225 0.025 Uiso 1 1 calc R U
H9 H 0.6485 0.6783 0.5744 0.025 Uiso 1 1 calc R U
C10 C 0.71651(15) 0.53102(14) -0.09787(11) 0.0156(2) Uani 1 1 d . .
H10 H 0.8058 0.5464 -0.1819 0.023 Uiso 1 1 calc R U
H11 H 0.6671 0.6375 -0.0671 0.023 Uiso 1 1 calc R U
H12 H 0.6148 0.4948 -0.1168 0.023 Uiso 1 1 calc R U
B1 B 0.72260(15) 0.56839(14) 0.20790(12) 0.0116(2) Uani 1 1 d . .
loop_
_atom_site_aniso_label
_atom_site_aniso_U_11
_atom_site_aniso_U_22
_atom_site_aniso_U_33
_atom_site_aniso_U_23
_atom_site_aniso_U_13
_atom_site_aniso_U_12
Cl1 0.02065(14) 0.01550(13) 0.01262(13) -0.00285(9) -0.00584(9) 0.00117(10)
O1 0.0166(4) 0.0121(3) 0.0112(3) -0.0048(3) -0.0030(3) 0.0007(3)
O2 0.0167(4) 0.0100(3) 0.0125(3) -0.0041(3) -0.0037(3) 0.0001(3)
N1 0.0142(4) 0.0123(4) 0.0109(4) -0.0039(3) -0.0019(3) -0.0020(3)
N2 0.0175(4) 0.0145(4) 0.0155(4) -0.0075(3) -0.0011(3) -0.0014(3)
C1 0.0274(6) 0.0108(5) 0.0161(5) -0.0025(4) -0.0036(4) -0.0012(4)
C2 0.0159(5) 0.0108(5) 0.0112(4) -0.0045(4) -0.0017(4) -0.0002(4)
C3 0.0108(4) 0.0123(5) 0.0101(4) -0.0032(3) -0.0010(3) -0.0031(4)
C4 0.0124(5) 0.0131(5) 0.0113(4) -0.0032(4) -0.0020(4) -0.0020(4)
C5 0.0155(5) 0.0132(5) 0.0161(5) -0.0058(4) -0.0013(4) -0.0008(4)
C6 0.0140(5) 0.0170(5) 0.0220(5) -0.0067(4) -0.0031(4) -0.0004(4)
C7 0.0155(5) 0.0100(4) 0.0111(4) -0.0040(3) -0.0014(4) -0.0023(4)
C8 0.0194(5) 0.0219(5) 0.0168(5) -0.0075(4) -0.0011(4) -0.0092(4)
C9 0.0226(5) 0.0156(5) 0.0114(5) -0.0044(4) 0.0006(4) -0.0043(4)
C10 0.0192(5) 0.0157(5) 0.0115(5) -0.0014(4) -0.0050(4) -0.0028(4)
B1 0.0111(5) 0.0113(5) 0.0125(5) -0.0035(4) -0.0011(4) -0.0026(4)
loop_
_atom_type_symbol
_atom_type_description
_atom_type_scat_dispersion_real
_atom_type_scat_dispersion_imag
_atom_type_scat_source
C C 0.0033 0.0016 'International Tables Vol C Tables 4.2.6.8 and 6.1.1.4'
H H 0.0000 0.0000 'International Tables Vol C Tables 4.2.6.8 and 6.1.1.4'
N N 0.0061 0.0033 'International Tables Vol C Tables 4.2.6.8 and 6.1.1.4'
O O 0.0106 0.0060 'International Tables Vol C Tables 4.2.6.8 and 6.1.1.4'
B B 0.0013 0.0007 'International Tables Vol C Tables 4.2.6.8 and 6.1.1.4'
Cl Cl 0.1484 0.1585 'International Tables Vol C Tables 4.2.6.8 and 6.1.1.4'
loop_
_geom_angle_atom_site_label_1
_geom_angle_atom_site_label_2
_geom_angle_atom_site_label_3
_geom_angle
B1 O1 C2 106.17(8)
B1 O2 C7 106.28(8)
N2 N1 C3 113.32(9)
N2 N1 C10 117.92(8)
C3 N1 C10 128.75(9)
C5 N2 N1 105.36(8)
O1 C2 C1 108.51(8)
O1 C2 C6 106.26(8)
C1 C2 C6 110.82(9)
O1 C2 C7 102.22(8)
C1 C2 C7 115.01(9)
C6 C2 C7 113.19(9)
N1 C3 C4 103.79(9)
N1 C3 B1 126.54(9)
C4 C3 B1 129.66(9)
C3 C4 C5 107.27(9)
C3 C4 Cl1 126.89(8)
C5 C4 Cl1 125.84(8)
N2 C5 C4 110.27(9)
O2 C7 C9 108.63(8)
O2 C7 C8 106.08(8)
C9 C7 C8 110.63(9)
O2 C7 C2 102.22(7)
C9 C7 C2 114.57(9)
C8 C7 C2 113.89(9)
O2 B1 O1 114.48(9)
O2 B1 C3 121.23(9)
O1 B1 C3 124.26(9)
loop_
_geom_bond_atom_site_label_1
_geom_bond_atom_site_label_2
_geom_bond_distance
Cl1 C4 1.7177(10)
O1 B1 1.3666(13)
O1 C2 1.4726(12)
O2 B1 1.3661(13)
O2 C7 1.4691(12)
N1 N2 1.3484(12)
N1 C3 1.3717(13)
N1 C10 1.4624(13)
N2 C5 1.3359(14)
C1 C2 1.5203(14)
C2 C6 1.5243(15)
C2 C7 1.5614(14)
C3 C4 1.3939(14)
C3 B1 1.5536(15)
C4 C5 1.3945(14)
C7 C9 1.5223(14)
C7 C8 1.5224(14)
