#------------------------------------------------------------------------------
#$Date: 2016-03-22 21:29:58 +0200 (Tue, 22 Mar 2016) $
#$Revision: 179020 $
#$URL: svn://www.crystallography.net/cod/cif/4/12/18/4121821.cif $
#------------------------------------------------------------------------------
#
# This file is available in the Crystallography Open Database (COD),
# http://www.crystallography.net/
#
# All data on this site have been placed in the public domain by the
# contributors.
#
data_4121821
loop_
_publ_author_name
'Galer, Petra'
'Koro\<sec, Romana C'
'Vidmar, Maja'
'Sket, Boris'
_publ_section_title
;
 Crystal Structures and Emission Properties of the BF2 Complex
 1-Phenyl-3-(3,5-dimethoxyphenyl)-propane-1,3-dione: Multiple Chromisms,
 Aggregation- or Crystallization-Induced Emission, and the Self-Assembly
 Effect.
;
_journal_issue                   20
_journal_name_full               'Journal of the American Chemical Society'
_journal_page_first              7383
_journal_page_last               7394
_journal_paper_doi               10.1021/ja501977a
_journal_volume                  136
_journal_year                    2014
_chemical_formula_moiety         'C17 H15 B F2 O4'
_chemical_formula_sum            'C17 H15 B F2 O4'
_chemical_formula_weight         332.10
_chemical_name_systematic
;
 ?
;
_space_group_IT_number           2
_symmetry_cell_setting           triclinic
_symmetry_Int_Tables_number      2
_symmetry_space_group_name_Hall  '-P 1'
_symmetry_space_group_name_H-M   'P -1'
_atom_sites_solution_hydrogens   geom
_atom_sites_solution_primary     direct
_atom_sites_solution_secondary   difmap
_audit_creation_method           SHELXL-97
_cell_angle_alpha                75.349(2)
_cell_angle_beta                 88.759(2)
_cell_angle_gamma                85.077(2)
_cell_formula_units_Z            2
_cell_length_a                   7.4698(2)
_cell_length_b                   7.4840(3)
_cell_length_c                   14.4041(5)
_cell_measurement_reflns_used    3331
_cell_measurement_temperature    294(2)
_cell_measurement_theta_max      27.48
_cell_measurement_theta_min      2.55
_cell_volume                     776.19(5)
_computing_cell_refinement       'DENZO-SMN (Otwinowski & Minor, 1997)'
_computing_data_collection       'COLLECT (Nonius, 2000)'
_computing_data_reduction        'DENZO-SMN (Otwinowski & Minor, 1997)'
_computing_molecular_graphics
;
Ortep-3 for Windows (Farrugia, 1997)
and Mercury 3.1 (C. F. Macrae et al., 2008)
;
_computing_publication_material
;
WinGX publication routines (Farrugia, 1999) and
Encifer 1.4 (F. H. Allen et al., 2004)
;
_computing_structure_refinement  'SHELXL-97 (Sheldrick, 2008)'
_computing_structure_solution    'SUPERFLIP (Palatinus & Chapuis, 2007)'
_diffrn_ambient_temperature      294(2)
_diffrn_measured_fraction_theta_full 0.983
_diffrn_measured_fraction_theta_max 0.983
_diffrn_measurement_device_type  'Nonius Kappa CCD'
_diffrn_measurement_method       '\f and \w scans '
_diffrn_radiation_monochromator  graphite
_diffrn_radiation_source         'fine-focus sealed tube'
_diffrn_radiation_type           MoK\a
_diffrn_radiation_wavelength     0.71073
_diffrn_reflns_av_R_equivalents  0.0159
_diffrn_reflns_av_sigmaI/netI    0.0295
_diffrn_reflns_limit_h_max       9
_diffrn_reflns_limit_h_min       -9
_diffrn_reflns_limit_k_max       9
_diffrn_reflns_limit_k_min       -9
_diffrn_reflns_limit_l_max       15
_diffrn_reflns_limit_l_min       -18
_diffrn_reflns_number            5645
_diffrn_reflns_theta_full        27.46
_diffrn_reflns_theta_max         27.46
_diffrn_reflns_theta_min         2.74
_exptl_absorpt_coefficient_mu    0.115
_exptl_absorpt_correction_T_max  0.989
_exptl_absorpt_correction_T_min  0.977
_exptl_absorpt_correction_type   multi-scan
_exptl_absorpt_process_details   'DENZO-SMN (Otwinovski & Minor, 1997)'
_exptl_crystal_colour            yellow
_exptl_crystal_density_diffrn    1.421
_exptl_crystal_density_method    'not measured'
_exptl_crystal_description       prism
_exptl_crystal_F_000             344
_exptl_crystal_size_max          0.20
_exptl_crystal_size_mid          0.20
_exptl_crystal_size_min          0.10
_refine_diff_density_max         0.339
_refine_diff_density_min         -0.328
_refine_diff_density_rms         0.104
_refine_ls_extinction_coef       0.71(5)
_refine_ls_extinction_expression Fc^*^=kFc[1+0.001xFc^2^\l^3^/sin(2\q)]^-1/4^
_refine_ls_extinction_method     SHELXL
_refine_ls_goodness_of_fit_ref   1.119
_refine_ls_hydrogen_treatment    constr
_refine_ls_matrix_type           full
_refine_ls_number_parameters     218
_refine_ls_number_reflns         3506
_refine_ls_number_restraints     0
_refine_ls_restrained_S_all      1.119
_refine_ls_R_factor_all          0.0760
_refine_ls_R_factor_gt           0.0548
_refine_ls_shift/su_max          0.000
_refine_ls_shift/su_mean         0.000
_refine_ls_structure_factor_coef Fsqd
_refine_ls_weighting_details
'calc w=1/[\s^2^(Fo^2^)+(0.1021P)^2^+0.0635P] where P=(Fo^2^+2Fc^2^)/3'
_refine_ls_weighting_scheme      calc
_refine_ls_wR_factor_gt          0.1441
_refine_ls_wR_factor_ref         0.1734
_reflns_number_gt                2631
_reflns_number_total             3506
_reflns_threshold_expression     >2\s(I)
_iucr_refine_instructions_details
;
TITL PolymorphA in P -1
CELL  0.71073   7.4698   7.4840  14.4041   75.349   88.759   85.077
ZERR     2.00   0.0002   0.0003   0.0005    0.002    0.002    0.002
LATT   1
SFAC  C    H    B    F    O
UNIT  34   30   2    4    8
MERG   2
EXTI    0.71176
MPLA 5 O1 C1 C2 C3 O3 B2
MPLA 6 C1' C2' C3' C4' C5' C6'
MPLA 6 C1" C2" C3" C4" C5" C6"
MPLA 5 O1 C1 C2 C3 O3 B2
FMAP   2
PLAN   10
SIZE     0.100   0.100   0.200
ACTA
BOND   $H
WGHT     0.10210     0.06350
L.S.   4
TEMP    21.00
FVAR     1.90196
F1    4    0.498947    0.682749    0.317534    11.00000    0.09923    0.10238 =
         0.06203    0.01776    0.02479    0.04154
F2    4    0.550237    0.948653    0.355052    11.00000    0.06457    0.14054 =
         0.06883    0.02547   -0.02078   -0.03399
O3    5    0.315918    0.949281    0.255034    11.00000    0.03844    0.09208 =
         0.03737    0.01170   -0.00190    0.00674
O1    5    0.310444    0.787373    0.424720    11.00000    0.03946    0.08712 =
         0.03711    0.00755   -0.00477    0.00634
O5"   5   -0.360205    1.357810    0.069022    11.00000    0.04871    0.07787 =
         0.05341    0.00264   -0.01213    0.01456
O3"   5    0.171341    1.253939   -0.088870    11.00000    0.06789    0.07453 =
         0.03290    0.00063   -0.00027    0.00765
C8"   1   -0.464051    1.352823    0.152496    11.00000    0.04462    0.06824 =
         0.06923   -0.00062   -0.00045    0.00719
AFIX  33
H8"A  2   -0.580129    1.416735    0.134960    11.00000   -1.50000
H8"B  2   -0.404683    1.412014    0.193619    11.00000   -1.50000
H8"C  2   -0.477999    1.226327    0.185705    11.00000   -1.50000
AFIX   0
C3    1    0.142322    0.979965    0.257463    11.00000    0.03903    0.04510 =
         0.03538   -0.00335   -0.00501    0.00167
C2"   1    0.161963    1.117372    0.083451    11.00000    0.04413    0.04730 =
         0.03615   -0.00365   -0.00420    0.00234
AFIX  43
H2"   2    0.279875    1.065440    0.085080    11.00000   -1.20000
AFIX   0
C2'   1    0.146794    0.620921    0.590234    11.00000    0.05311    0.05865 =
         0.03712   -0.00262   -0.00590    0.00196
AFIX  43
H2'   2    0.270887    0.602482    0.584752    11.00000   -1.20000
AFIX   0
C1    1    0.137264    0.813355    0.423135    11.00000    0.04134    0.04542 =
         0.03493   -0.00452   -0.00453    0.00157
C1'   1    0.045834    0.732306    0.513414    11.00000    0.04777    0.04570 =
         0.03200   -0.00597   -0.00208   -0.00063
C4'   1   -0.121004    0.565394    0.682701    11.00000    0.07843    0.06948 =
         0.03947   -0.00590    0.01175   -0.01395
AFIX  43
H4'   2   -0.177193    0.508882    0.739498    11.00000   -1.20000
AFIX   0
C1"   1    0.059613    1.091913    0.166989    11.00000    0.04299    0.04125 =
         0.03363   -0.00239   -0.00709   -0.00080
C6'   1   -0.139176    0.759270    0.523023    11.00000    0.04897    0.06351 =
         0.04147   -0.00425   -0.00127    0.00111
AFIX  43
H6'   2   -0.207447    0.833785    0.472368    11.00000   -1.20000
AFIX   0
C2    1    0.047178    0.911196    0.339834    11.00000    0.03797    0.05730 =
         0.03685    0.00045   -0.00399    0.00348
AFIX  43
H2    2   -0.077507    0.930183    0.339784    11.00000   -1.20000
AFIX   0
C6"   1   -0.116621    1.169529    0.165982    11.00000    0.04368    0.04700 =
         0.03708   -0.00282   -0.00553    0.00088
AFIX  43
H6"   2   -0.184165    1.151374    0.222098    11.00000   -1.20000
AFIX   0
C3'   1    0.061955    0.538095    0.674459    11.00000    0.07730    0.06385 =
         0.03428    0.00154   -0.00513   -0.00386
AFIX  43
H3'   2    0.129078    0.463727    0.725622    11.00000   -1.20000
AFIX   0
C5"   1   -0.189817    1.274949    0.079243    11.00000    0.04308    0.04637 =
         0.04691   -0.00343   -0.01199    0.00366
C7"   1    0.352081    1.179035   -0.090444    11.00000    0.06837    0.07097 =
         0.04242   -0.00549    0.01009    0.00041
AFIX  33
H7"A  2    0.397192    1.211713   -0.154921    11.00000   -1.50000
H7"C  2    0.357406    1.046553   -0.067636    11.00000   -1.50000
H7"B  2    0.423945    1.228153   -0.049840    11.00000   -1.50000
AFIX   0
C4"   1   -0.089487    1.299437   -0.004013    11.00000    0.05680    0.05182 =
         0.03731    0.00104   -0.01496    0.00468
AFIX  43
H4"   2   -0.140177    1.369024   -0.061651    11.00000   -1.20000
AFIX   0
C5'   1   -0.222319    0.675489    0.607848    11.00000    0.05316    0.07813 =
         0.05359   -0.01029    0.01129   -0.00624
AFIX  43
H5'   2   -0.346259    0.693591    0.614192    11.00000   -1.20000
AFIX   0
C3"   1    0.085117    1.221846   -0.002673    11.00000    0.05651    0.04664 =
         0.03307   -0.00418   -0.00411   -0.00274
B2    3    0.423981    0.840644    0.338498    11.00000    0.03533    0.08402 =
         0.04385    0.01312   -0.00261    0.00994
HKLF    4
END
;
_cod_data_source_file            ja501977a_si_002.cif
_cod_data_source_block           PolymorphA
_cod_depositor_comments
'Adding full bibliography for 4121820--4121821.cif.'
_cod_database_code               4121821
#BEGIN Tags that were not found in dictionaries:
_shelx_hkl_file
;
   0   0  -4 3118.50   57.00   1
   0   0   5 1888.30   59.10   1
   0   0  -5 1901.60   34.60   1
   0   0   6    9.80    1.60   1
   0   0  -6   11.00    1.00   1
   0   0   7  244.30    8.70   1
   0   0  -7  247.20    5.20   1
   0   0   8  531.40   18.90   1
   0   0  -8  528.70   10.70   1
   0   0   9   83.60    4.80   1
   0   0  -9   82.60    2.10   1
   0   0  10   17.60    2.40   1
   0   0 -10   18.50    1.20   1
   0   0  11   98.00    5.40   1
   0   0 -11   90.50    2.60   1
   0   0  13  122.30    7.00   1
   0   0 -13  121.80    3.40   1
   0   0 -14    6.00    1.80   1
   0   0 -15   61.40    2.80   1
   0   0 -16    4.30    1.50   1
   0   0 -17   14.90    3.00   1
   0   0 -18   14.70    3.20   1
   0   1 -17   -0.80    2.60   1
   0   1 -16   36.70    3.30   1
   0   1 -15   37.40    2.20   1
   0   1 -14    0.20    1.10   1
   0   1 -13  158.00    4.60   1
   0  -1  13  162.00    9.20   1
   0   1 -12  202.20    4.60   1
   0  -1  12  217.00   10.30   1
   0   1 -11 1617.00   27.30   1
   0  -1  11 1635.30   54.70   1
   0   1 -10 4557.30  100.70   1
   0   1  -9  191.70    4.70   1
   0  -1   9  198.40    8.40   1
   0   1  -8 1738.10   28.30   1
   0  -1   8 1788.30   59.30   1
   0   1  -7   24.90    1.20   1
   0  -1   7   21.80    1.40   1
   0   1  -6    0.80    0.60   1
   0  -1   6   -0.80    0.80   1
   0   1  -5   32.10    1.20   1
   0  -1   5   33.60    1.40   1
   0   1  -4 1624.20   30.00   1
   0  -1   4 1614.30   29.60   1
   0   1  -3   26.50    0.80   1
   0  -1   3   26.30    0.80   1
   0   1  -2 1127.50   25.40   1
   0  -1   2 1144.20   25.70   1
   0  -1   0   -0.40    0.20   1
   0  -1  -1   -0.20    0.20   1
   0   1   3  771.40   18.40   1
   0  -1  -3  751.60   17.80   1
   0   1   4 2848.20   63.40   1
   0  -1  -4 2873.60   63.90   1
   0   1   5  256.90    6.40   1
   0  -1  -5  261.60    6.40   1
   0   1   6  809.00   19.70   1
   0  -1  -6  812.50   18.70   1
   0   1   7  897.50   21.30   1
   0  -1  -7  895.90   20.80   1
   0   1   8  184.90    5.10   1
   0  -1  -8  180.60    4.20   1
   0   1   9  240.50    6.60   1
   0  -1  -9  236.40    5.40   1
   0   1  10  134.10    6.30   1
   0  -1 -10  129.70    3.50   1
   0   1  11  283.10   11.20   1
   0  -1 -11  287.00    6.60   1
   0   1  12 2077.30   70.40   1
   0  -1 -12 2198.50   42.60   1
   0   1  13  248.50   11.50   1
   0  -1 -13  242.60    6.30   1
   0   1  14   11.50    3.20   1
   0  -1 -14   15.10    3.00   1
   0  -1 -15   21.70    2.00   1
   0  -1 -16    3.20    1.50   1
   0  -1 -17   12.20    1.80   1
   0  -1 -18   15.00    3.20   1
   0   2 -16   -6.30    2.90   1
   0   2 -15   -0.10    2.90   1
   0   2 -14    0.20    2.20   1
   0   2 -13  225.80    7.50   1
   0   2 -12  190.80    5.40   1
   0  -2  12  174.10    9.60   1
   0   2 -11  147.20    4.30   1
   0  -2  11  142.00    7.80   1
   0   2 -10 2308.90   53.50   1
   0  -2  10 2246.00   52.70   1
   0   2  -9   39.40    2.40   1
   0  -2   9   38.70    2.50   1
   0   2  -8  465.90   12.40   1
   0  -2   8  458.20   11.70   1
   0   2  -7  110.90    3.70   1
   0  -2   7  109.40    3.60   1
   0   2  -6   36.30    1.70   1
   0  -2   6   32.80    1.30   1
   0   2  -5  133.60    3.90   1
   0  -2   5  136.20    3.20   1
   0   2  -4   83.90    2.70   1
   0  -2   4   87.70    2.10   1
   0   2  -3  356.70    9.10   1
   0  -2   3  358.20    7.40   1
   0   2  -2 2781.10   87.20   1
   0  -2   2 2894.10   91.80   1
   0   2   1 1912.80   43.00   1
   0  -2  -1 1858.30   59.70   1
   0   2   4  393.30   10.00   1
   0  -2  -4  389.30    9.40   1
   0   2   5  101.30    3.00   1
   0  -2  -5   99.70    2.90   1
   0   2   6  362.90    9.00   1
   0  -2  -6  374.60    9.10   1
   0   2   7  808.70   19.00   1
   0  -2  -7  823.20   19.20   1
   0   2   8   50.50    2.20   1
   0  -2  -8   50.50    2.30   1
   0   2   9   35.50    2.20   1
   0  -2  -9   33.20    2.20   1
   0   2  10  644.00   15.80   1
   0  -2 -10  662.70   17.00   1
   0   2  11  496.90   13.10   1
   0  -2 -11  488.20   10.40   1
   0   2  12  289.90    9.00   1
   0  -2 -12  296.00    7.30   1
   0   2  13   83.40    6.20   1
   0  -2 -13   92.20    3.30   1
   0   2  14 1174.10   43.40   1
   0  -2 -14 1165.80   31.70   1
   0  -2 -15   50.10    3.20   1
   0  -2 -16   57.20    4.00   1
   0  -2 -17   -1.30    2.50   1
   0  -2 -18   -3.40    3.10   1
   0   3 -15   85.80    5.70   1
   0   3 -14  140.20    6.90   1
   0   3 -13   93.70    4.80   1
   0   3 -12   57.00    3.20   1
   0   3 -11   31.60    2.80   1
   0  -3  11   37.90    3.60   1
   0   3 -10  117.50    4.40   1
   0  -3  10  114.20    4.50   1
   0   3  -9 2904.70   93.20   1
   0  -3   9 3049.00   71.00   1
   0   3  -8 1131.50   27.30   1
   0  -3   8 1132.10   22.20   1
   0   3  -7   20.80    1.70   1
   0  -3   7   27.50    1.50   1
   0   3  -6  253.10    6.90   1
   0  -3   6  235.00    5.40   1
   0   3  -5   44.70    2.10   1
   0  -3   5   46.10    1.70   1
   0   3  -4   97.50    2.60   1
   0  -3   4  100.00    3.10   1
   0   3  -2  324.40    6.50   1
   0  -3   2  306.50   10.70   1
   0   3  -1  473.70    9.40   1
   0  -3   1  461.60   11.10   1
   0   3   0  560.20   13.70   1
   0  -3   0  522.30   12.30   1
   0   3   1  141.50    4.00   1
   0  -3  -1  139.70    3.90   1
   0   3   2 1526.90   36.00   1
   0  -3  -2 1538.30   35.10   1
   0   3   3  358.60    9.30   1
   0  -3  -3  367.20    9.30   1
   0   3   4  171.70    4.70   1
   0  -3  -4  173.00    4.60   1
   0   3   5    0.50    1.00   1
   0  -3  -5    1.00    1.90   1
   0   3   6   26.40    1.50   1
   0  -3  -6   28.90    1.50   1
   0   3   7  157.50    4.70   1
   0  -3  -7  160.80    4.80   1
   0   3   8   11.20    1.50   1
   0  -3  -8   12.20    1.60   1
   0   3   9  809.00   19.90   1
   0  -3  -9  801.00   20.70   1
   0   3  10  363.30    9.90   1
   0  -3 -10  359.40    9.80   1
   0   3  11   32.30    2.40   1
   0  -3 -11   28.60    2.30   1
   0   3  12   45.50    3.20   1
   0  -3 -12   39.40    2.60   1
   0   3  13   -1.30    1.80   1
   0  -3 -13   -1.80    1.80   1
   0   3  14  269.80   13.70   1
   0  -3 -14  320.80   14.60   1
   0  -3 -15   69.50    3.90   1
   0  -3 -16    8.40    2.70   1
   0  -3 -17    2.30    2.50   1
   0  -3 -18   -1.60    2.80   1
   0   4 -14    3.10    2.70   1
   0   4 -13   47.50    4.00   1
   0   4 -12   -1.00    4.50   1
   0  -4  12   12.20    2.90   1
   0   4 -11   52.80    3.40   1
   0  -4  11   58.00    4.40   1
   0   4 -10   -1.20    1.70   1
   0  -4  10   -0.40    2.00   1
   0   4  -9   30.20    2.80   1
   0  -4   9   37.40    2.30   1
   0   4  -8  587.50   13.30   1
   0  -4   8  586.70   12.70   1
   0   4  -7  205.20    5.30   1
   0  -4   7  206.80    6.30   1
   0   4  -6    0.60    1.10   1
   0  -4   6    2.30    1.20   1
   0   4  -5   76.40    2.50   1
   0  -4   5   78.30    2.80   1
   0   4  -4   22.10    1.40   1
   0  -4   4   19.20    1.40   1
   0   4  -3 2091.80   38.70   1
   0  -4   3 2064.40   66.10   1
   0   4  -2 1456.40   28.40   1
   0  -4   2 1415.90   48.10   1
   0   4  -1 1062.60   20.40   1
   0  -4   1  996.60   32.80   1
   0   4   0  104.10    3.50   1
   0  -4   0  104.80    3.20   1
   0   4   1  151.70    4.70   1
   0  -4  -1  154.30    4.40   1
   0   4   2   69.20    2.70   1
   0  -4  -2   70.20    2.80   1
   0   4   3 2312.20   52.30   1
   0  -4  -3 2339.70   52.60   1
   0   4   5 1332.90   32.90   1
   0  -4  -5 1330.60   32.70   1
   0   4   6   49.00    2.30   1
   0  -4  -6   45.30    2.10   1
   0   4   7  318.30    8.30   1
   0  -4  -7  328.90    9.10   1
   0   4   8  139.70    4.50   1
   0  -4  -8  154.30    5.30   1
   0   4   9  706.40   17.50   1
   0  -4  -9  728.40   18.40   1
   0   4  10  338.70    9.60   1
   0  -4 -10  346.10   10.00   1
   0   4  11   43.80    2.50   1
   0  -4 -11   45.90    2.80   1
   0   4  12    2.30    1.90   1
   0  -4 -12    2.10    1.90   1
   0   4  13   11.30    2.20   1
   0  -4 -13   10.10    2.30   1
   0  -4 -14    5.60    2.20   1
   0  -4 -15   69.80    3.80   1
   0  -4 -16  117.90    5.80   1
   0  -4 -17   13.60    3.20   1
   0  -4 -18    5.10    3.40   1
   0   5 -13   27.60    5.00   1
   0  -5  13   29.20    4.20   1
   0   5 -12   37.00    5.40   1
   0  -5  12   38.10    4.50   1
   0   5 -11   33.90    5.80   1
   0  -5  11   38.80    4.10   1
   0   5 -10   30.30    4.10   1
   0  -5  10   30.40    2.50   1
   0   5  -9    9.80    2.20   1
   0  -5   9   16.60    1.80   1
   0   5  -8   95.10    4.20   1
   0  -5   8   96.00    3.80   1
   0   5  -7 1042.70   27.70   1
   0  -5   7 1049.60   27.20   1
   0   5  -6  775.40   17.00   1
   0  -5   6  780.70   19.70   1
   0   5  -5   49.20    2.30   1
   0  -5   5   49.50    2.30   1
   0   5  -4   46.90    2.00   1
   0  -5   4   45.70    2.20   1
   0   5  -3  230.60    5.60   1
   0  -5   3  225.90    8.70   1
   0   5  -2   83.10    2.50   1
   0  -5   2   93.20    5.00   1
   0   5  -1  531.10   10.90   1
   0  -5   1  505.30   18.50   1
   0   5   0    0.70    1.40   1
   0  -5   0    0.60    1.10   1
   0   5   1   19.20    1.60   1
   0  -5  -1   21.70    1.70   1
   0   5   2  399.80   10.60   1
   0  -5  -2  388.90   11.30   1
   0   5   3    2.20    0.30   1
   0  -5  -3    2.50    1.30   1
   0   5   4   -0.30    1.30   1
   0  -5  -4    0.00    1.20   1
   0   5   5  453.10   12.20   1
   0  -5  -5  455.00   13.00   1
   0   5   6   42.10    2.40   1
   0  -5  -6   45.00    2.50   1
   0   5   7   20.40    1.90   1
   0  -5  -7   20.70    1.90   1
   0   5   8  178.90    5.90   1
   0  -5  -8  177.10    5.80   1
   0   5   9    9.70    1.90   1
   0  -5  -9   11.30    0.60   1
   0   5  10   88.80    4.00   1
   0  -5 -10   91.80    4.00   1
   0   5  11  230.90    7.80   1
   0  -5 -11  231.60    7.70   1
   0   5  12   42.10    4.60   1
   0  -5 -12   41.50    3.00   1
   0  -5 -13   82.50    4.30   1
   0  -5 -14   28.00    3.10   1
   0  -5 -15    0.70    2.10   1
   0  -5 -16   26.70    3.60   1
   0  -5 -17    1.10    3.00   1
   0   6 -11    7.40    4.40   1
   0  -6  11    8.20    3.10   1
   0   6 -10    3.90    3.80   1
   0  -6  10    6.60    2.70   1
   0   6  -9    2.80    3.60   1
   0  -6   9   -0.60    2.40   1
   0   6  -8   -2.70    4.50   1
   0  -6   8    3.00    1.60   1
   0   6  -7  145.40    5.60   1
   0  -6   7  148.10    5.30   1
   0   6  -6    1.50    1.90   1
   0  -6   6    2.90    1.50   1
   0   6  -5   -3.10    1.90   1
   0  -6   5   -0.30    1.30   1
   0   6  -4   48.30    3.50   1
   0  -6   4   47.90    2.80   1
   0   6  -3    1.40    1.40   1
   0   6  -2   27.00    2.00   1
   0  -6   2   23.30    2.70   1
   0   6  -1  122.50    3.80   1
   0  -6   1  116.90    5.70   1
   0   6   0    5.90    1.50   1
   0  -6   0    7.90    1.40   1
   0   6   1  152.90    5.80   1
   0  -6  -1  164.10    5.40   1
   0   6   2  129.70    5.20   1
   0  -6  -2  145.30    4.90   1
   0   6   3   37.80    1.40   1
   0  -6  -3   35.80    2.20   1
   0   6   4   -0.50    1.40   1
   0  -6  -4    1.00    1.20   1
   0   6   5  302.60    9.30   1
   0  -6  -5  313.70    7.80   1
   0   6   6  114.70    4.80   1
   0  -6  -6  123.90    4.70   1
   0   6   7   29.40    2.50   1
   0  -6  -7   32.10    2.50   1
   0   6   8   25.10    2.30   1
   0  -6  -8   23.40    2.20   1
   0   6   9   37.20    2.70   1
   0  -6  -9   41.30    2.60   1
   0  -6 -10   32.70    2.50   1
   0  -6 -11   53.20    3.50   1
   0  -6 -12    1.80    2.30   1
   0  -6 -13   14.20    1.10   1
   0  -6 -14   -4.90    2.40   1
   0  -6 -15    2.50    2.30   1
   0  -6 -16    9.90    3.30   1
   0  -6 -17   11.40    3.20   1
   0   7  -9   -0.70    3.70   1
   0  -7   9    2.00    2.70   1
   0   7  -8    3.20    3.50   1
   0  -7   8   -0.30    3.60   1
   0   7  -7   12.20    5.40   1
   0  -7   7    1.20    2.50   1
   0   7  -6    4.60    3.60   1
   0  -7   6    8.20    1.90   1
   0   7  -5  327.00   16.00   1
   0  -7   5  307.10    9.40   1
   0   7  -4   24.80    4.10   1
   0  -7   4   28.20    2.40   1
   0   7  -3    5.20    3.10   1
   0  -7   3    5.60    1.70   1
   0   7  -2    6.10    2.60   1
   0  -7   2   -2.20    2.00   1
   0   7  -1   20.60    3.50   1
   0  -7   1   18.10    3.50   1
   0   7   0    1.80    2.40   1
   0  -7   0   12.60    2.50   1
   0   7   1   56.70    4.70   1
   0  -7  -1   49.90    2.80   1
   0  -7  -2    5.60    1.80   1
   0   7   3   30.80    1.40   1
   0  -7  -3   34.30    2.50   1
   0  -7  -4    8.00    1.80   1
   0  -7  -5    5.50    1.70   1
   0  -7  -6   16.20    2.10   1
   0  -7  -7  104.50    4.90   1
   0  -7  -8   -2.40    2.00   1
   0  -7  -9    1.40    1.80   1
   0  -7 -10    3.10    2.20   1
   0  -7 -11   -0.80    2.10   1
   0  -7 -12   -3.80    2.10   1
   0  -7 -13   19.00    2.70   1
   0  -7 -14    8.80    3.10   1
   0  -7 -15    8.80    3.30   1
   0   8  -6    6.90    4.00   1
   0  -8   6   12.70    4.10   1
   0   8  -5   12.70    4.20   1
   0  -8   5   12.90    3.20   1
   0   8  -4    9.60    5.30   1
   0  -8   4   -1.10    3.70   1
   0   8  -3    9.70    3.60   1
   0  -8   3    2.80    2.80   1
   0   8  -2    4.60    3.60   1
   0  -8   2    5.40    3.50   1
   0   8  -1    1.60    3.00   1
   0  -8   1    5.10    2.60   1
   0   8   0    0.50    2.80   1
   0  -8   0    4.00    3.20   1
   0   8   1   37.00    5.40   1
   0  -8  -1   27.50    3.40   1
   0   8   2   43.30    4.40   1
   0  -8  -2   39.00    2.90   1
   0  -8  -3   45.00    3.30   1
   0  -8  -4    5.20    2.00   1
   0  -8  -5   32.80    3.00   1
   0  -8  -6   19.30    2.40   1
   0  -8  -7   57.90    4.00   1
   0  -8  -8   15.30    2.60   1
   0  -8  -9   -1.00    2.40   1
   0  -8 -10    1.80    2.70   1
   0  -8 -11    0.80    2.40   1
   0  -8 -12   -1.90    2.50   1
   0  -8 -13    4.00    2.60   1
   0  -8 -14    3.80    3.30   1
   0   9  -2   14.60    4.70   1
   0  -9   2   14.60    3.60   1
   0   9  -1   10.00    5.50   1
   0  -9   1    4.70    2.90   1
   0   9   0    4.20    3.70   1
   0  -9   0   -1.90    4.10   1
   0   9   1   -0.90    3.30   1
   0  -9  -1    3.10    3.00   1
   0   9   2   11.60    5.00   1
   0  -9  -2    2.00    2.90   1
   0   9   3    1.50    3.50   1
   0  -9  -3    0.00    2.20   1
   0  -9  -4   -1.70    2.40   1
   0  -9  -5   -0.70    2.10   1
   0  -9  -6   12.20    2.90   1
   0  -9  -7    2.90    2.80   1
   0  -9  -8    7.70    2.60   1
   0  -9  -9   13.30    3.00   1
   0  -9 -10    6.30    2.90   1
   1  -9 -10   17.80    3.10   1
   1  -9  -9   -5.80    2.90   1
   1  -9  -8    1.50    2.60   1
   1  -9  -7   -0.70    2.30   1
   1  -9  -6    2.30    2.80   1
   1  -9  -5    1.20    2.30   1
   1  -9  -4    2.90    2.30   1
  -1   9   4   -2.80    3.20   1
   1  -9  -3   23.80    4.10   1
  -1   9   3   30.70    4.80   1
   1  -9  -2   64.60    6.00   1
  -1   9   2   62.50    6.30   1
   1  -9  -1   28.00    4.00   1
  -1   9   1   33.80    5.40   1
   1  -9   0   -7.60    3.00   1
  -1   9   0   -5.10    5.50   1
   1  -9   1   12.40    3.90   1
  -1   9  -1    8.20    4.20   1
   1  -8 -13    3.70    2.60   1
   1  -8 -12   -1.70    2.30   1
   1  -8 -11    0.20    2.70   1
   1  -8 -10    3.70    2.20   1
   1  -8  -9    7.00    2.20   1
   1  -8  -8    1.40    2.10   1
   1  -8  -7   22.50    2.90   1
   1  -8  -6   30.60    2.90   1
   1  -8  -5   33.90    3.20   1
   1  -8  -4    3.10    2.20   1
   1  -8  -3   36.90    3.20   1
  -1   8   3   35.00    4.60   1
   1  -8  -2   21.10    3.50   1
  -1   8   2   28.10    5.10   1
   1  -8  -1   36.80    4.20   1
  -1   8   1   40.80    4.70   1
   1  -8   0   27.90    3.70   1
  -1   8   0   26.30    3.80   1
   1  -8   1    3.50    2.70   1
  -1   8  -1    1.30    3.20   1
   1  -8   2   13.50    4.30   1
  -1   8  -2   10.50    5.10   1
   1  -8   3   26.90    4.00   1
  -1   8  -3   21.80    4.30   1
   1  -8   4   -3.90    2.80   1
  -1   8  -4    7.10    4.10   1
   1  -8   5   20.10    4.10   1
  -1   8  -5   24.30    6.30   1
   1  -7 -15    3.90    3.00   1
   1  -7 -14    6.10    2.40   1
   1  -7 -13    1.20    2.20   1
   1  -7 -12   32.60    2.90   1
   1  -7 -11   10.00    2.20   1
   1  -7 -10    3.40    2.00   1
   1  -7  -9    1.80    1.80   1
   1  -7  -8   25.80    2.00   1
   1  -7  -7   61.90    3.50   1
   1  -7  -6   12.30    2.00   1
   1  -7  -5    8.00    1.70   1
   1  -7  -4   37.60    2.50   1
   1  -7  -3   -0.10    1.60   1
  -1   7   3    0.00    0.60   1
   1  -7  -2   23.60    2.50   1
  -1   7   2   28.00    1.80   1
   1  -7  -1   17.60    2.90   1
  -1   7   1   17.70    1.50   1
   1  -7   0   11.10    3.30   1
  -1   7   0    4.10    2.90   1
   1  -7   1    9.80    2.80   1
  -1   7  -1   14.60    2.90   1
   1  -7   2    0.00    2.30   1
  -1   7  -2   -1.00    3.60   1
   1  -7   3    2.70    2.20   1
  -1   7  -3    8.10    4.10   1
   1  -7   4    6.90    1.80   1
  -1   7  -4    5.80    3.20   1
   1  -7   5   92.00    4.50   1
  -1   7  -5   84.50    6.20   1
   1  -7   6   12.40    3.10   1
  -1   7  -6    9.80    4.20   1
   1  -7   7    0.90    2.80   1
  -1   7  -7   -7.40    5.10   1
   1  -7   8   17.40    3.60   1
  -1   7  -8   19.30    4.60   1
   1  -6 -16   25.20    3.30   1
   1  -6 -15    1.00    2.20   1
   1  -6 -14   -1.80    2.20   1
   1  -6 -13    4.10    0.90   1
   1  -6 -12   93.50    3.00   1
   1  -6 -11    3.20    2.10   1
   1  -6 -10   -0.80    2.20   1
  -1   6  10    0.70    1.90   1
   1  -6  -9    2.10    1.60   1
  -1   6   9    2.30    1.70   1
   1  -6  -8   39.90    2.70   1
  -1   6   8   37.00    2.70   1
   1  -6  -7    2.40    1.70   1
  -1   6   7    3.10    1.70   1
   1  -6  -6   12.80    1.60   1
  -1   6   6   17.80    2.20   1
   1  -6  -5  231.40    7.40   1
  -1   6   5  203.90    7.30   1
   1  -6  -4  286.90    9.00   1
  -1   6   4  278.30    9.30   1
   1  -6  -3   24.60    2.00   1
  -1   6   3   24.60    1.20   1
   1  -6  -2    5.30    1.80   1
  -1   6   2    5.10    1.00   1
   1  -6  -1  190.30    6.00   1
  -1   6   1  181.90    5.10   1
   1  -6   0  830.30   29.20   1
  -1   6   0  849.70   18.60   1
   1  -6   1    0.40    2.70   1
  -1   6  -1    1.20    1.60   1
   1  -6   2    9.10    2.40   1
  -1   6  -2    8.00    1.50   1
   1  -6   3    8.90    2.20   1
  -1   6  -3    7.90    1.80   1
   1  -6   4   -1.50    2.00   1
  -1   6  -4   -5.50    1.90   1
   1  -6   5   37.60    2.40   1
  -1   6  -5   33.70    2.70   1
   1  -6   6   36.40    2.50   1
  -1   6  -6   43.80    4.70   1
   1  -6   7   15.50    1.80   1
  -1   6  -7   18.90    3.90   1
   1  -6   8   83.30    5.70   1
  -1   6  -8   85.20    7.80   1
   1  -6   9   36.50    5.00   1
  -1   6  -9   51.00    5.50   1
   1  -6  10    5.90    4.10   1
  -1   6 -10    0.30    3.50   1
  -1   6 -11   33.50    6.80   1
   1  -5 -17   26.40    3.20   1
   1  -5 -16   -0.70    2.40   1
   1  -5 -15    2.90    2.10   1
   1  -5 -14    4.90    2.30   1
   1  -5 -13    4.60    1.80   1
   1  -5 -12   35.30    3.50   1
  -1   5  12   30.90    3.00   1
   1  -5 -11  124.80    4.90   1
  -1   5  11  126.70    5.00   1
   1  -5 -10  117.60    3.50   1
  -1   5  10  115.20    4.70   1
   1  -5  -9    4.40    0.70   1
  -1   5   9    6.50    1.90   1
   1  -5  -8   63.10    1.90   1
  -1   5   8   61.20    2.90   1
   1  -5  -7   19.80    1.80   1
  -1   5   7   16.90    1.70   1
   1  -5  -6    2.00    1.20   1
  -1   5   6    2.60    1.30   1
   1  -5  -5  118.20    4.00   1
  -1   5   5  121.80    4.10   1
   1  -5  -4    0.40    1.20   1
  -1   5   4   -3.30    1.30   1
   1  -5  -3   25.10    1.90   1
  -1   5   3   23.00    1.10   1
   1  -5  -2   33.80    1.90   1
  -1   5   2   33.80    1.40   1
   1  -5  -1   74.30    2.90   1
  -1   5   1   73.10    3.00   1
   1  -5   0   -3.90    2.20   1
  -1   5   0    1.10    1.30   1
   1  -5   1   -2.70    2.40   1
  -1   5  -1    1.80    0.90   1
   1  -5   2   78.50    4.30   1
  -1   5  -2   81.20    2.60   1
   1  -5   3   95.40    5.40   1
  -1   5  -3   93.00    3.20   1
   1  -5   4    6.60    2.70   1
  -1   5  -4    3.80    1.30   1
   1  -5   5    9.70    1.30   1
  -1   5  -5   12.80    1.60   1
   1  -5   6   76.10    3.40   1
  -1   5  -6   80.80    3.80   1
   1  -5   7  168.20    5.60   1
  -1   5  -7  164.70    6.00   1
   1  -5   8   47.20    2.50   1
  -1   5  -8   45.50    3.10   1
   1  -5   9   27.80    2.10   1
  -1   5  -9   27.50    4.30   1
   1  -5  10   12.40    2.80   1
  -1   5 -10   13.30    5.00   1
   1  -5  11    2.40    2.80   1
  -1   5 -11    7.60    4.00   1
   1  -5  12  124.60    8.70   1
  -1   5 -12  129.80    9.60   1
   1  -4 -18    0.00    2.50   1
   1  -4 -17    4.70    2.40   1
   1  -4 -16    0.50    3.00   1
   1  -4 -15   13.20    2.30   1
   1  -4 -14   30.60    2.60   1
  -1   4  14   16.40    3.70   1
   1  -4 -13    0.60    1.80   1
  -1   4  13    0.30    1.80   1
   1  -4 -12   -1.60    2.10   1
  -1   4  12   -0.90    1.60   1
   1  -4 -11  159.20    5.60   1
  -1   4  11  146.70    5.30   1
   1  -4 -10  197.20    6.30   1
  -1   4  10  185.00    5.90   1
   1  -4  -9   66.10    3.10   1
  -1   4   9   68.20    3.10   1
   1  -4  -8   94.70    3.40   1
  -1   4   8   98.60    3.60   1
   1  -4  -7   48.90    1.60   1
  -1   4   7   49.80    2.50   1
   1  -4  -6    4.80    0.60   1
  -1   4   6    6.80    1.20   1
   1  -4  -5  132.20    4.50   1
  -1   4   5  130.90    3.90   1
   1  -4  -4  574.50   13.60   1
  -1   4   4  573.70   14.40   1
   1  -4  -3  291.40    7.50   1
  -1   4   3  284.80    6.00   1
   1  -4  -2  116.00    3.60   1
  -1   4   2  110.00    2.80   1
   1  -4  -1  163.10    4.60   1
  -1   4   1  165.50    4.80   1
   1  -4   0  294.20   10.80   1
  -1   4   0  306.40    6.50   1
   1  -4   1  376.20   13.40   1
  -1   4  -1  386.90    8.10   1
   1  -4   2  666.50   22.60   1
  -1   4  -2  675.70   13.60   1
   1  -4   3    3.20    1.40   1
  -1   4  -3    0.70    1.00   1
   1  -4   4   65.40    3.60   1
  -1   4  -4   68.50    2.30   1
   1  -4   5   28.70    1.80   1
  -1   4  -5   23.30    1.70   1
   1  -4   6   90.80    2.80   1
  -1   4  -6   86.70    2.90   1
   1  -4   7    1.10    1.30   1
  -1   4  -7    2.40    1.70   1
   1  -4   8  240.50    5.70   1
  -1   4  -8  231.60    7.80   1
   1  -4   9   25.60    1.60   1
  -1   4  -9   29.00    2.70   1
   1  -4  10   19.30    3.00   1
  -1   4 -10   18.00    3.60   1
   1  -4  11    2.90    2.60   1
  -1   4 -11    1.50    4.40   1
   1  -4  12   11.70    3.00   1
  -1   4 -12   13.20    4.10   1
   1  -4  13    7.90    3.20   1
  -1   4 -13   17.30    3.00   1
  -1   4 -14  166.70    8.30   1
   1  -3 -18   10.60    2.90   1
   1  -3 -17    2.30    3.30   1
   1  -3 -16    6.30    2.30   1
   1  -3 -15   71.00    3.80   1
   1  -3 -14   -0.10    2.50   1
  -1   3  14    1.70    2.20   1
   1  -3 -13   11.00    1.80   1
  -1   3  13    9.20    2.20   1
   1  -3 -12   61.30    3.00   1
  -1   3  12   70.70    3.50   1
   1  -3 -11  235.60    7.30   1
  -1   3  11  232.30    7.50   1
   1  -3 -10   15.50    1.70   1
  -1   3  10   17.00    1.70   1
   1  -3  -9 1086.50   26.80   1
  -1   3   9 1107.40   26.20   1
   1  -3  -8    0.80    1.10   1
  -1   3   8    2.00    1.20   1
   1  -3  -7   -0.50    0.90   1
  -1   3   7    1.60    1.00   1
   1  -3  -6  475.30   12.10   1
  -1   3   6  483.80   12.00   1
   1  -3  -5  323.60    6.60   1
  -1   3   5  332.80    8.80   1
   1  -3  -4    5.90    0.50   1
  -1   3   4    4.50    0.90   1
   1  -3  -3 2124.60   47.70   1
  -1   3   3 2123.20   48.10   1
   1  -3  -2 1153.20   26.70   1
  -1   3   2 1136.70   21.00   1
   1  -3  -1  141.20    3.90   1
  -1   3   1  130.20    3.80   1
   1  -3   0 2535.70   56.00   1
  -1   3   0 2655.40   48.70   1
   1  -3   1    4.50    1.20   1
  -1   3  -1    6.10    0.80   1
   1  -3   2  426.50   15.30   1
  -1   3  -2  443.80    9.20   1
   1  -3   3  588.30   19.80   1
  -1   3  -3  607.60   12.10   1
   1  -3   4   56.10    2.50   1
  -1   3  -4   47.00    2.30   1
   1  -3   5  117.70    3.00   1
  -1   3  -5  117.40    3.80   1
   1  -3   6    0.50    0.80   1
  -1   3  -6    1.70    1.40   1
   1  -3   7   22.70    1.20   1
  -1   3  -7   19.80    2.00   1
   1  -3   8    8.90    1.20   1
  -1   3  -8    6.60    1.70   1
   1  -3   9  299.00    9.00   1
  -1   3  -9  306.40    9.20   1
   1  -3  10  262.80   10.70   1
  -1   3 -10  254.30    8.20   1
   1  -3  11   62.10    4.60   1
  -1   3 -11   62.50    4.10   1
   1  -3  12    0.60    3.40   1
  -1   3 -12    1.00    2.10   1
   1  -3  13  101.50    6.30   1
  -1   3 -13   93.20    4.60   1
  -1   3 -14  169.40    8.00   1
  -1   3 -15    7.80    3.50   1
   1  -2 -18   18.40    2.30   1
   1  -2 -17    2.90    2.80   1
   1  -2 -16   25.50    2.70   1
   1  -2 -15   11.00    2.20   1
   1  -2 -14   23.30    2.30   1
  -1   2  14   20.00    3.60   1
   1  -2 -13  359.90    8.90   1
  -1   2  13  371.00   15.40   1
   1  -2 -12   -1.20    1.50   1
  -1   2  12    0.30    1.60   1
   1  -2 -11   37.70    2.10   1
  -1   2  11   36.60    2.50   1
   1  -2 -10   10.40    1.60   1
  -1   2  10    8.10    1.70   1
   1  -2  -9   86.70    3.40   1
  -1   2   9   90.50    3.20   1
   1  -2  -7  839.70   20.30   1
  -1   2   7  846.50   20.10   1
   1  -2  -6  762.00   18.30   1
  -1   2   6  773.10   18.50   1
   1  -2  -5  577.10   14.20   1
  -1   2   5  564.80   13.40   1
   1  -2  -4  873.80   20.50   1
  -1   2   4  877.90   20.60   1
   1  -2  -3  440.30    8.50   1
  -1   2   3  446.70   10.80   1
   1  -2  -2  723.90   13.80   1
  -1   2   2  727.90   14.00   1
   1  -2  -1 3399.80   76.40   1
   1  -2   0   20.50    1.50   1
  -1   2   0   18.40    0.90   1
   1  -2   1  682.40   22.80   1
  -1   2  -1  701.10   13.40   1
   1  -2   2  330.60    8.20   1
  -1   2  -2  334.70    8.30   1
   1  -2   3 3461.20  109.80   1
  -1   2  -3 3364.70  106.50   1
   1  -2   5 2881.60   65.90   1
  -1   2  -5 2888.70   64.20   1
   1  -2   6  110.30    2.80   1
  -1   2  -6  118.30    4.00   1
   1  -2   7    0.70    1.20   1
  -1   2  -7    0.70    1.70   1
   1  -2   8  504.50   13.20   1
  -1   2  -8  517.90   13.30   1
   1  -2   9  155.00    5.20   1
  -1   2  -9  163.70    5.40   1
   1  -2  10   11.70    2.00   1
  -1   2 -10   12.20    1.80   1
   1  -2  11  171.00    6.10   1
  -1   2 -11  169.20    4.90   1
  -1   2 -12   29.90    2.20   1
  -1   2 -13   15.20    2.50   1
  -1   2 -14   22.00    3.00   1
  -1   2 -15  139.60    6.70   1
  -1   2 -16  184.40    8.30   1
   1  -1 -18   27.30    3.60   1
   1  -1 -17   -3.00    1.90   1
   1  -1 -16    1.80    1.60   1
   1  -1 -15    1.30    1.70   1
   1  -1 -14  143.50    3.80   1
  -1   1  14  144.10    8.00   1
   1  -1 -13  121.40    4.00   1
  -1   1  13  123.80    6.20   1
   1  -1 -12   79.60    2.70   1
  -1   1  12   89.60    5.50   1
   1  -1 -11    1.20    1.20   1
  -1   1  11    6.20    2.10   1
   1  -1 -10  111.60    3.30   1
  -1   1  10  114.40    5.60   1
   1  -1  -9  106.20    3.40   1
  -1   1   9  106.70    3.40   1
   1  -1  -8  693.00   16.60   1
  -1   1   8  720.70   17.50   1
   1  -1  -7 3833.80   85.70   1
  -1   1   7 3965.30  126.10   1
   1  -1  -6  826.10   19.60   1
  -1   1   6  851.80   20.00   1
   1  -1  -5  501.50   11.80   1
  -1   1   5  503.50   11.60   1
   1  -1  -4  233.30    5.90   1
  -1   1   4  230.50    5.80   1
   1  -1  -3 2586.20   83.10   1
   1  -1  -1 1920.20   46.90   1
  -1   1   0  497.90    9.50   1
   1  -1   2 1909.40   42.60   1
  -1   1  -2 1903.10   42.60   1
   1  -1   3 2271.30   50.60   1
  -1   1  -3 2316.50   51.30   1
   1  -1   4   15.10    0.60   1
  -1   1  -4   12.70    1.40   1
   1  -1   6   23.20    1.60   1
  -1   1  -6   26.90    1.80   1
   1  -1   7  915.00   21.50   1
  -1   1  -7  900.90   21.60   1
   1  -1   8   69.50    2.70   1
  -1   1  -8   65.10    1.70   1
   1  -1   9  172.00    5.20   1
  -1   1  -9  170.80    3.50   1
   1  -1  10  150.50    5.00   1
  -1   1 -10  144.10    3.30   1
   1  -1  11 1374.30   49.20   1
  -1   1 -11 1312.00   22.60   1
   1  -1  12  331.10   14.40   1
  -1   1 -12  358.00    7.00   1
  -1   1 -13  503.10   13.80   1
  -1   1 -14   15.80    2.50   1
  -1   1 -15   24.90    3.00   1
  -1   1 -16  244.70   10.10   1
  -1   1 -17   71.70    4.90   1
   1   0 -17   72.70    3.50   1
   1   0 -16    3.90    1.60   1
   1   0 -15   23.90    2.30   1
   1   0 -14  140.70    3.80   1
  -1   0  14  124.60    7.00   1
   1   0 -13  110.20    3.10   1
  -1   0  13  115.10    6.80   1
   1   0 -12  657.40   12.10   1
  -1   0  12  642.30   24.10   1
   1   0 -11    4.30    1.20   1
  -1   0  11    1.50    2.10   1
   1   0 -10 1595.40   26.80   1
  -1   0  10 1663.70   56.90   1
   1   0  -9  372.20    6.70   1
  -1   0   9  389.80   14.10   1
   1   0  -8 1412.10   27.40   1
  -1   0   8 1386.60   46.00   1
   1   0  -7   50.30    1.70   1
  -1   0   7   44.00    2.40   1
   1   0  -6   26.80    1.10   1
  -1   0   6   30.00    2.20   1
   1   0  -5 1270.80   29.60   1
  -1   0   5 1296.70   40.50   1
   1   0  -4   11.10    0.90   1
  -1   0   4   12.50    1.30   1
   1   0  -1  187.30    7.30   1
   1   0   0    0.30    0.30   1
  -1   0   0    0.30    0.20   1
  -1   0  -1  392.90    8.80   1
   1   0   3  802.50   26.30   1
  -1   0  -3  803.00   26.00   1
   1   0   5  183.40    5.10   1
  -1   0  -5  191.30    4.10   1
   1   0   6 1561.50   36.20   1
  -1   0  -6 1527.50   28.30   1
   1   0   7  908.40   30.80   1
  -1   0  -7  922.10   17.40   1
   1   0   8  212.40    8.40   1
  -1   0  -8  208.50    4.80   1
   1   0   9  382.90   14.70   1
  -1   0  -9  385.60    6.90   1
   1   0  10   30.50    3.20   1
  -1   0 -10   34.70    1.40   1
   1   0  11  102.10    6.30   1
  -1   0 -11  104.30    2.70   1
   1   0  12  364.90   15.30   1
  -1   0 -12  340.30    6.90   1
   1   0  13    0.80    3.20   1
  -1   0 -13    4.30    1.10   1
  -1   0 -14   48.50    2.20   1
  -1   0 -15  130.60    4.20   1
  -1   0 -16   -0.40    2.60   1
  -1   0 -17   11.60    3.00   1
   1   1 -17  124.10    6.40   1
   1   1 -16    0.70    1.80   1
   1   1 -15    0.80    1.50   1
   1   1 -14    0.00    1.20   1
   1   1 -13  144.80    3.70   1
  -1  -1  13  132.90    7.50   1
   1   1 -12   26.60    1.50   1
  -1  -1  12   26.00    4.10   1
   1   1 -11  781.20   13.80   1
  -1  -1  11  757.20   27.40   1
   1   1 -10  549.90    9.80   1
  -1  -1  10  545.20   20.50   1
   1   1  -9  346.50    6.40   1
  -1  -1   9  358.40   13.80   1
   1   1  -8 1082.20   17.90   1
  -1  -1   8 1078.60   36.00   1
   1   1  -7 1918.60   35.90   1
  -1  -1   7 1911.60   61.60   1
   1   1  -6 1071.30   24.40   1
  -1  -1   6 1095.70   36.20   1
   1   1  -5 3638.10  114.50   1
   1   1  -4  396.40    7.80   1
  -1  -1   4  394.70    9.30   1
   1   1  -3 2521.70   57.30   1
  -1  -1   3 2504.10   78.00   1
   1   1  -2 1564.40   28.80   1
  -1  -1   2 1576.50   51.30   1
   1   1   0  475.30   11.20   1
  -1  -1   0  468.40   15.90   1
  -1  -1  -1 1692.10   43.00   1
   1   1   2  648.10   15.10   1
  -1  -1  -2  585.40   11.40   1
   1   1   4    6.60    0.80   1
  -1  -1  -4    8.90    0.70   1
   1   1   5  118.30    3.40   1
  -1  -1  -5  121.40    2.80   1
   1   1   6   92.30    3.00   1
  -1  -1  -6   91.20    2.40   1
   1   1   7 1281.70   29.80   1
  -1  -1  -7 1262.00   23.80   1
   1   1   8  618.20   14.90   1
  -1  -1  -8  614.70   12.20   1
   1   1   9  185.60    5.60   1
  -1  -1  -9  186.70    4.40   1
   1   1  10  189.70    8.20   1
  -1  -1 -10  184.60    4.60   1
   1   1  11   46.90    3.80   1
  -1  -1 -11   44.90    2.40   1
   1   1  12  490.10   18.70   1
  -1  -1 -12  464.60   10.70   1
   1   1  13  928.70   35.20   1
  -1  -1 -13  928.90   20.10   1
  -1  -1 -14  467.80   11.30   1
  -1  -1 -15   13.40    1.60   1
  -1  -1 -16   35.70    2.30   1
  -1  -1 -17    6.50    2.70   1
  -1  -1 -18   57.80    4.50   1
   1   2 -16   71.80    4.70   1
   1   2 -15    2.30    1.50   1
   1   2 -14    2.50    1.60   1
   1   2 -13   12.10    1.40   1
   1   2 -12   23.80    2.00   1
  -1  -2  12   18.60    3.40   1
   1   2 -11 1958.40   33.10   1
  -1  -2  11 2016.10   70.60   1
   1   2 -10 3355.80   62.90   1
   1   2  -9  343.00    7.20   1
  -1  -2   9  356.00   14.30   1
   1   2  -8 1132.00   21.80   1
  -1  -2   8 1125.70   37.90   1
   1   2  -7   37.40    1.50   1
  -1  -2   7   38.90    1.90   1
   1   2  -6  145.60    3.40   1
  -1  -2   6  149.60    3.50   1
   1   2  -5  125.30    2.90   1
  -1  -2   5  127.90    3.90   1
   1   2  -4  289.10    6.10   1
  -1  -2   4  290.70    6.10   1
   1   2  -3  525.60   10.20   1
  -1  -2   3  523.10   12.70   1
   1   2  -2 1213.00   22.50   1
  -1  -2   2 1198.50   27.20   1
   1   2  -1  135.40    3.70   1
  -1  -2   1  133.20    2.90   1
   1   2   0  807.20   19.50   1
  -1  -2   0  805.40   18.80   1
   1   2   3  538.40   12.70   1
  -1  -2  -3  523.00   10.20   1
   1   2   4 3056.80   67.90   1
  -1  -2  -4 3096.30   68.70   1
   1   2   5   91.90    2.80   1
  -1  -2  -5   94.60    2.70   1
   1   2   6    1.50    1.00   1
  -1  -2  -6    1.00    1.20   1
   1   2   7 3093.50   69.10   1
  -1  -2  -7 3097.40   69.50   1
   1   2   8  179.20    5.10   1
  -1  -2  -8  192.40    5.50   1
   1   2   9    8.70    1.60   1
  -1  -2  -9    3.90    1.30   1
   1   2  10  686.70   16.80   1
  -1  -2 -10  687.50   13.90   1
   1   2  11   14.50    2.30   1
  -1  -2 -11   10.90    1.50   1
   1   2  12  175.70    6.40   1
  -1  -2 -12  170.00    4.80   1
   1   2  13  434.50   19.50   1
  -1  -2 -13  432.00   10.40   1
  -1  -2 -14 1623.90   41.90   1
  -1  -2 -15   27.90    2.90   1
  -1  -2 -16   10.70    2.90   1
  -1  -2 -17   33.30    3.40   1
  -1  -2 -18    7.90    3.90   1
   1   3 -15    4.30    2.50   1
   1   3 -14   39.10    3.30   1
   1   3 -13    5.30    1.80   1
   1   3 -12   37.50    2.40   1
   1   3 -11   90.50    4.00   1
  -1  -3  11   90.90    6.20   1
   1   3 -10    1.60    1.80   1
  -1  -3  10   -2.10    2.30   1
   1   3  -9   74.30    3.20   1
  -1  -3   9   77.80    3.30   1
   1   3  -8 1389.80   32.50   1
  -1  -3   8 1445.90   27.20   1
   1   3  -7  385.50    9.90   1
  -1  -3   7  394.80    8.00   1
   1   3  -6  322.10    6.90   1
  -1  -3   6  331.40    6.90   1
   1   3  -5  194.50    4.30   1
  -1  -3   5  185.00    4.90   1
   1   3  -4  973.50   19.20   1
  -1  -3   4  938.00   22.30   1
   1   3  -3 1957.70   35.90   1
  -1  -3   3 1936.50   43.90   1
   1   3  -2  363.40    7.70   1
  -1  -3   2  361.10    9.00   1
   1   3  -1  602.50   14.80   1
  -1  -3   1  594.10   14.00   1
   1   3   0  846.80   20.50   1
  -1  -3   0  831.50   19.70   1
   1   3   1  441.20   10.60   1
  -1  -3  -1  424.10   10.70   1
   1   3   2   81.10    2.00   1
  -1  -3  -2   78.40    2.60   1
   1   3   3 1102.80   26.20   1
  -1  -3  -3 1073.10   24.40   1
   1   3   4 1060.10   24.90   1
  -1  -3  -4 1071.10   20.20   1
   1   3   5  863.10   20.90   1
  -1  -3  -5  866.10   16.40   1
   1   3   6 1654.30   37.90   1
  -1  -3  -6 1659.60   38.60   1
   1   3   7   68.50    2.60   1
  -1  -3  -7   72.10    2.90   1
   1   3   8  414.90   10.60   1
  -1  -3  -8  421.10   11.50   1
   1   3   9   79.30    3.50   1
  -1  -3  -9   79.20    3.40   1
   1   3  10  100.80    4.20   1
  -1  -3 -10  106.30    4.00   1
   1   3  11   24.30    2.30   1
  -1  -3 -11   18.40    2.10   1
   1   3  12  111.20    5.00   1
  -1  -3 -12  122.70    3.90   1
   1   3  13  295.60   11.10   1
  -1  -3 -13  333.70   10.30   1
  -1  -3 -14  451.70   13.50   1
  -1  -3 -15  429.40   13.30   1
  -1  -3 -16  102.70    5.00   1
  -1  -3 -17   36.80    3.90   1
  -1  -3 -18   -3.90    2.70   1
   1   4 -14   36.70    4.10   1
   1   4 -13   21.30    3.10   1
   1   4 -12   11.90    2.90   1
   1   4 -11   67.50    3.80   1
  -1  -4  11   82.60    5.50   1
   1   4 -10   15.90    2.10   1
  -1  -4  10   19.80    2.60   1
   1   4  -9  197.60    5.30   1
  -1  -4   9  187.30    6.20   1
   1   4  -8 1161.50   24.20   1
  -1  -4   8 1138.70   28.30   1
   1   4  -7  201.40    5.10   1
  -1  -4   7  207.00    6.30   1
   1   4  -6   18.20    1.40   1
  -1  -4   6   16.40    1.50   1
   1   4  -5  408.60    8.60   1
  -1  -4   5  407.30   10.40   1
   1   4  -4  219.40    5.10   1
  -1  -4   4  233.00    6.10   1
   1   4  -3    9.10    0.90   1
  -1  -4   3    9.10    1.40   1
   1   4  -2  166.40    3.80   1
  -1  -4   2  156.00    4.40   1
   1   4  -1 1163.80   27.90   1
  -1  -4   1 1123.00   25.70   1
   1   4   0  473.30   11.80   1
  -1  -4   0  460.20   10.90   1
   1   4   1 1127.50   26.90   1
  -1  -4  -1 1127.60   26.80   1
   1   4   2 1275.50   28.90   1
  -1  -4  -2 1259.70   29.10   1
   1   4   3  604.10   11.80   1
  -1  -4  -3  577.80   15.00   1
   1   4   6   69.70    2.90   1
  -1  -4  -6   72.70    2.70   1
   1   4   7   56.00    2.50   1
  -1  -4  -7   56.20    1.80   1
   1   4   8    5.80    1.70   1
  -1  -4  -8    1.20    1.30   1
   1   4   9   10.80    1.80   1
  -1  -4  -9    9.60    1.90   1
   1   4  10   42.50    3.20   1
  -1  -4 -10   32.30    2.40   1
   1   4  11   34.60    2.90   1
  -1  -4 -11   34.60    2.40   1
   1   4  12   34.60    3.10   1
  -1  -4 -12   35.20    3.20   1
  -1  -4 -13  212.00    8.10   1
  -1  -4 -14  112.50    5.50   1
  -1  -4 -15  165.60    7.30   1
  -1  -4 -16  297.50   11.50   1
  -1  -4 -17   49.50    4.10   1
  -1  -4 -18    7.40    3.50   1
   1   5 -13   33.40    5.60   1
   1   5 -12   55.70    5.70   1
   1   5 -11   41.30    5.10   1
  -1  -5  11   38.60    4.00   1
   1   5 -10    6.60    2.00   1
  -1  -5  10    5.00    1.80   1
   1   5  -9   16.80    2.30   1
  -1  -5   9   20.20    2.20   1
   1   5  -8   16.10    2.00   1
  -1  -5   8   19.20    1.90   1
   1   5  -7  245.10    6.40   1
  -1  -5   7  252.00    7.30   1
   1   5  -6  499.20   11.50   1
  -1  -5   6  516.40   13.70   1
   1   5  -5  152.30    4.40   1
  -1  -5   5  150.30    4.80   1
   1   5  -4   64.90    2.40   1
  -1  -5   4   65.30    2.90   1
   1   5  -3   23.10    1.50   1
  -1  -5   3   24.80    1.50   1
   1   5  -2  702.50   14.60   1
  -1  -5   2  664.00   23.00   1
   1   5  -1   90.00    3.60   1
  -1  -5   1   89.80    3.30   1
   1   5   0  255.60    7.80   1
  -1  -5   0  243.60    6.30   1
   1   5   1  280.70    8.10   1
  -1  -5  -1  264.30    6.70   1
   1   5   2   -0.80    1.20   1
  -1  -5  -2    2.90    1.10   1
   1   5   3   49.70    1.50   1
  -1  -5  -3   46.80    2.20   1
   1   5   4  255.40    7.20   1
  -1  -5  -4  243.10    7.10   1
   1   5   5   41.00    2.60   1
  -1  -5  -5   40.70    3.30   1
   1   5   6   44.10    2.40   1
  -1  -5  -6   45.30    2.40   1
   1   5   7    1.80    1.40   1
  -1  -5  -7    0.40    1.40   1
   1   5   8  161.20    5.30   1
  -1  -5  -8  158.50    5.30   1
   1   5   9   46.60    2.70   1
  -1  -5  -9   45.80    1.60   1
   1   5  10   35.70    2.70   1
  -1  -5 -10   36.20    1.50   1
   1   5  11    0.00    2.10   1
  -1  -5 -11   -0.70    1.70   1
  -1  -5 -12    3.00    1.90   1
  -1  -5 -13    1.30    2.40   1
  -1  -5 -14   21.30    3.00   1
  -1  -5 -15    5.30    3.00   1
  -1  -5 -16   63.30    4.40   1
  -1  -5 -17  118.70    6.70   1
   1   6 -11    0.90    5.30   1
  -1  -6  11    0.50    2.60   1
   1   6 -10   11.80    5.10   1
  -1  -6  10    6.50    2.30   1
   1   6  -9   26.60    4.50   1
  -1  -6   9   27.00    3.70   1
   1   6  -8    3.30    1.90   1
  -1  -6   8    2.30    1.50   1
   1   6  -7    4.80    2.00   1
  -1  -6   7    5.00    2.20   1
   1   6  -6  304.40    9.60   1
  -1  -6   6  308.80    9.40   1
   1   6  -5  324.10    9.60   1
  -1  -6   5  327.00    9.10   1
   1   6  -4   13.50    2.80   1
  -1  -6   4   17.50    1.90   1
   1   6  -3    1.30    1.50   1
  -1  -6   3    2.80    1.30   1
   1   6  -2  291.20    7.80   1
  -1  -6   2  298.00   12.60   1
   1   6  -1  214.20    5.70   1
  -1  -6   1  205.20    8.30   1
   1   6   0   51.50    2.90   1
  -1  -6   0   48.50    2.70   1
   1   6   1   -0.40    1.40   1
  -1  -6  -1   -0.30    1.20   1
   1   6   2    0.50    1.60   1
  -1  -6  -2   -2.80    1.60   1
   1   6   3   43.00    1.50   1
  -1  -6  -3   38.20    2.30   1
   1   6   4   16.30    1.90   1
  -1  -6  -4   16.60    1.50   1
   1   6   5   79.00    3.60   1
  -1  -6  -5   85.00    3.90   1
   1   6   6 1117.80   28.00   1
  -1  -6  -6 1127.00   30.00   1
   1   6   7  814.40   22.80   1
  -1  -6  -7  876.40   23.40   1
   1   6   8   39.80    2.90   1
  -1  -6  -8   36.30    2.70   1
   1   6   9   48.50    3.30   1
  -1  -6  -9   45.20    2.80   1
  -1  -6 -10   83.80    4.30   1
  -1  -6 -11   66.90    3.50   1
  -1  -6 -12   45.40    3.20   1
  -1  -6 -13   11.60    2.70   1
  -1  -6 -14    4.70    2.70   1
  -1  -6 -15    6.40    2.60   1
  -1  -6 -16    1.30    3.00   1
  -1  -6 -17    5.60    3.40   1
   1   7  -9    5.40    5.10   1
  -1  -7   9    4.60    2.70   1
   1   7  -8   15.80    5.40   1
  -1  -7   8    7.60    3.30   1
   1   7  -7   11.30    3.90   1
  -1  -7   7   12.50    2.60   1
   1   7  -6    3.70    3.10   1
  -1  -7   6    2.80    2.90   1
   1   7  -5  208.50   11.00   1
  -1  -7   5  188.60    9.80   1
   1   7  -4  340.40   15.70   1
  -1  -7   4  346.30   15.80   1
   1   7  -3   96.10    6.00   1
  -1  -7   3   90.70    5.60   1
   1   7  -2   20.90    4.30   1
  -1  -7   2   17.60    2.50   1
   1   7  -1   77.60    5.40   1
  -1  -7   1   87.30    5.10   1
   1   7   0  167.90    8.50   1
  -1  -7   0  175.40    6.00   1
  -1  -7  -1    4.70    1.70   1
  -1  -7  -2    5.10    1.80   1
   1   7   3    0.10    0.50   1
  -1  -7  -3    2.30    1.70   1
  -1  -7  -4   53.20    2.90   1
  -1  -7  -5    0.40    1.70   1
  -1  -7  -6   19.00    2.40   1
  -1  -7  -7   -0.20    2.10   1
  -1  -7  -8    6.00    2.00   1
  -1  -7  -9    2.80    2.70   1
  -1  -7 -10   61.90    3.70   1
  -1  -7 -11    7.40    2.30   1
  -1  -7 -12   19.60    2.80   1
  -1  -7 -13    7.60    2.60   1
  -1  -7 -14    4.60    2.90   1
  -1  -7 -15    8.90    3.50   1
   1   8  -6   11.90    4.10   1
  -1  -8   6    2.80    2.60   1
   1   8  -5   32.90    6.50   1
  -1  -8   5   31.70    4.40   1
   1   8  -4   36.00    6.20   1
  -1  -8   4   36.80    4.50   1
   1   8  -3    5.70    3.70   1
  -1  -8   3    5.90    2.70   1
   1   8  -2   28.60    4.40   1
  -1  -8   2   29.60    3.30   1
   1   8  -1   -2.20    2.70   1
  -1  -8   1    2.10    2.00   1
   1   8   0   57.00    5.50   1
  -1  -8   0   56.00    4.80   1
   1   8   1    7.60    3.10   1
  -1  -8  -1    6.60    1.80   1
  -1  -8  -2    3.80    1.80   1
  -1  -8  -3    4.00    2.10   1
  -1  -8  -4    6.60    2.10   1
  -1  -8  -5    0.60    1.70   1
  -1  -8  -6    8.60    2.10   1
  -1  -8  -7   32.70    3.00   1
  -1  -8  -8  106.80    5.50   1
  -1  -8  -9   55.40    3.80   1
  -1  -8 -10   40.20    3.50   1
  -1  -8 -11   13.00    3.60   1
  -1  -8 -12   13.50    3.90   1
  -1  -8 -13    3.70    3.00   1
  -1  -8 -14    0.80    2.90   1
   1   9  -2   33.80    5.60   1
  -1  -9   2   36.20    4.40   1
   1   9  -1   10.10    4.30   1
  -1  -9   1   23.70    3.70   1
   1   9   0   -1.40    3.50   1
  -1  -9   0    3.30    2.90   1
   1   9   1   -1.90    3.20   1
  -1  -9  -1   -4.10    2.40   1
   1   9   2   -3.10    3.20   1
  -1  -9  -2    5.30    2.20   1
  -1  -9  -3    2.30    2.80   1
  -1  -9  -4    1.20    2.10   1
  -1  -9  -5    7.10    2.50   1
  -1  -9  -6    3.10    2.20   1
  -1  -9  -7   -0.40    3.10   1
  -1  -9  -8   12.50    2.70   1
  -1  -9  -9    5.60    2.60   1
  -1  -9 -10   -2.00    2.10   1
  -1  -9 -11   -0.40    2.90   1
   2  -9  -8    1.80    2.30   1
   2  -9  -7   -3.20    2.80   1
   2  -9  -6    3.90    2.90   1
   2  -9  -5    2.30    4.60   1
  -2   9   5   -4.40    3.30   1
   2  -9  -4   11.60    4.00   1
  -2   9   4   11.40    4.00   1
   2  -9  -3    6.40    3.80   1
  -2   9   3   11.50    4.10   1
   2  -9  -2   37.40    5.20   1
  -2   9   2   39.40    5.50   1
   2  -9  -1   50.70    6.90   1
  -2   9   1   38.80    5.50   1
   2  -8 -12   41.10    3.10   1
   2  -8 -11   67.80    4.50   1
   2  -8 -10   30.80    3.30   1
   2  -8  -9   18.50    2.70   1
   2  -8  -8    3.10    2.40   1
   2  -8  -7    2.80    2.10   1
   2  -8  -6   -1.90    1.80   1
   2  -8  -5    2.20    2.00   1
   2  -8  -4    1.50    2.60   1
  -2   8   4   -4.40    4.00   1
   2  -8  -3    4.00    2.80   1
  -2   8   3    7.80    3.20   1
   2  -8  -2    6.50    3.10   1
  -2   8   2    9.80    3.50   1
   2  -8  -1   39.50    5.10   1
  -2   8   1   37.00    4.60   1
   2  -8   0  145.30    9.70   1
  -2   8   0  147.30   10.30   1
   2  -8   1   87.80    7.40   1
  -2   8  -1  100.00    8.90   1
   2  -8   2   83.90    7.30   1
  -2   8  -2   91.20    7.70   1
   2  -8   3    5.20    3.20   1
  -2   8  -3    4.40    3.80   1
   2  -8   4    3.00    3.30   1
  -2   8  -4   -3.00    5.30   1
   2  -8   5    3.40    3.40   1
   2  -7 -14   -4.90    2.50   1
   2  -7 -13   21.00    3.10   1
   2  -7 -12   60.00    4.20   1
   2  -7 -11   16.20    2.40   1
   2  -7 -10   16.40    2.60   1
   2  -7  -9    0.40    1.40   1
   2  -7  -8   56.10    3.30   1
   2  -7  -7   16.50    2.60   1
   2  -7  -6    1.30    1.60   1
   2  -7  -5    6.60    1.60   1
   2  -7  -4    1.80    2.00   1
   2  -7  -3    1.90    1.80   1
  -2   7   3    0.80    0.80   1
   2  -7  -2   40.70    4.00   1
  -2   7   2   37.50    2.20   1
   2  -7  -1  235.00   11.40   1
  -2   7   1  228.70    8.00   1
   2  -7   0  189.40   10.20   1
  -2   7   0  179.70    6.60   1
   2  -7   1  134.60    7.70   1
  -2   7  -1  136.20    5.40   1
   2  -7   2   25.80    3.80   1
  -2   7  -2   30.50    5.00   1
   2  -7   3   86.10    6.00   1
  -2   7  -3   80.30    6.40   1
   2  -7   4   35.70    4.30   1
  -2   7  -4   42.00    4.70   1
   2  -7   5   -3.90    2.90   1
  -2   7  -5   -2.30    3.80   1
   2  -7   6    9.80    4.40   1
  -2   7  -6    6.30    3.90   1
   2  -7   7   -1.30    4.50   1
  -2   7  -7    2.40    4.10   1
   2  -7   8    3.90    4.50   1
  -2   7  -8   -4.60    5.90   1
   2  -6 -16   11.40    2.80   1
   2  -6 -15   17.20    3.00   1
   2  -6 -14    0.90    2.10   1
   2  -6 -13   22.60    1.60   1
   2  -6 -12   -1.60    1.00   1
   2  -6 -11   34.00    1.60   1
   2  -6 -10   -1.30    1.80   1
  -2   6  10    0.50    1.70   1
   2  -6  -9   18.50    2.10   1
  -2   6   9   22.10    2.60   1
   2  -6  -8   -0.20    1.60   1
  -2   6   8   -0.90    1.60   1
   2  -6  -7  110.70    3.70   1
  -2   6   7  107.80    4.40   1
   2  -6  -6   57.50    3.20   1
  -2   6   6   62.70    3.50   1
   2  -6  -5   61.50    3.20   1
  -2   6   5   61.60    3.40   1
   2  -6  -4  125.60    4.80   1
  -2   6   4  124.60    5.20   1
   2  -6  -3  150.60    5.30   1
  -2   6   3  152.30    4.60   1
   2  -6  -2   59.80    4.10   1
  -2   6   2   59.40    2.00   1
   2  -6  -1   24.00    3.40   1
  -2   6   1   24.40    1.40   1
   2  -6   0    2.60    2.40   1
  -2   6   0    6.30    1.10   1
   2  -6   1  299.90   12.80   1
  -2   6  -1  301.00    7.80   1
   2  -6   2   17.30    2.90   1
  -2   6  -2   10.90    1.70   1
   2  -6   3   -0.90    2.10   1
  -2   6  -3   -0.20    2.70   1
   2  -6   4   17.40    3.00   1
  -2   6  -4   15.90    3.30   1
   2  -6   5  188.70    9.10   1
  -2   6  -5  184.50    9.40   1
   2  -6   6    8.90    1.60   1
  -2   6  -6    9.90    4.70   1
   2  -6   7  124.30    5.40   1
  -2   6  -7  128.20    8.10   1
   2  -6   8   -7.50    4.10   1
  -2   6  -8   -2.40    3.40   1
   2  -6   9   69.40    6.60   1
  -2   6  -9   59.00    6.30   1
   2  -6  10    3.70    4.20   1
  -2   6 -10    1.60    4.20   1
   2  -5 -17   17.90    3.10   1
   2  -5 -16   -1.50    2.20   1
   2  -5 -15    4.60    2.40   1
   2  -5 -14    4.00    2.30   1
   2  -5 -13    0.40    1.00   1
  -2   5  13   -3.70    2.40   1
   2  -5 -12    0.20    0.90   1
  -2   5  12    0.00    2.00   1
   2  -5 -11   44.00    2.10   1
  -2   5  11   41.20    3.00   1
   2  -5 -10   65.00    2.20   1
  -2   5  10   65.80    3.30   1
   2  -5  -9    7.90    1.00   1
  -2   5   9    6.60    1.70   1
   2  -5  -8    1.40    0.90   1
  -2   5   8    2.50    1.30   1
   2  -5  -7   23.80    2.00   1
  -2   5   7   28.20    2.10   1
   2  -5  -6  224.50    5.70   1
  -2   5   6  232.90    7.20   1
   2  -5  -5  239.50    7.40   1
  -2   5   5  253.10    7.40   1
   2  -5  -4   45.50    2.60   1
  -2   5   4   49.40    2.40   1
   2  -5  -3  169.30    5.40   1
  -2   5   3  168.20    4.30   1
   2  -5  -2  191.60    5.60   1
  -2   5   2  178.70    4.40   1
   2  -5  -1    3.70    1.70   1
  -2   5   1    1.90    0.80   1
   2  -5   0   93.90    4.90   1
  -2   5   0   97.70    2.50   1
   2  -5   1  309.30   12.30   1
  -2   5  -1  309.00    7.30   1
   2  -5   2    6.90    2.00   1
  -2   5  -2    4.70    1.30   1
   2  -5   3  111.70    5.80   1
  -2   5  -3  108.20    3.60   1
   2  -5   4    2.60    2.90   1
  -2   5  -4   -1.20    1.30   1
   2  -5   5   21.60    2.80   1
  -2   5  -5   25.20    2.30   1
   2  -5   6   90.30    3.80   1
  -2   5  -6   91.00    4.10   1
   2  -5   7  123.90    4.50   1
  -2   5  -7  121.60    7.30   1
   2  -5   8  109.30    4.10   1
  -2   5  -8  118.50    7.40   1
   2  -5   9   39.40    4.30   1
  -2   5  -9   38.40    4.50   1
   2  -5  10  134.40    8.60   1
  -2   5 -10  117.90    9.30   1
   2  -5  11   25.50    4.20   1
  -2   5 -11   15.10    4.10   1
   2  -5  12    7.00    4.90   1
  -2   5 -12   15.30    4.80   1
   2  -4 -17    6.00    2.40   1
   2  -4 -16    4.50    2.30   1
   2  -4 -15   91.20    4.30   1
   2  -4 -14   87.50    4.30   1
  -2   4  14   85.30    6.10   1
   2  -4 -13    1.00    1.70   1
  -2   4  13   -0.40    2.60   1
   2  -4 -12   10.80    1.90   1
  -2   4  12    7.20    1.70   1
   2  -4 -11   11.20    1.60   1
  -2   4  11   13.20    2.00   1
   2  -4 -10  363.70   11.00   1
  -2   4  10  368.10   10.60   1
   2  -4  -9  123.30    3.30   1
  -2   4   9  132.20    4.60   1
   2  -4  -8   10.60    1.00   1
  -2   4   8   10.40    1.40   1
   2  -4  -7    9.70    0.90   1
  -2   4   7   10.40    1.50   1
   2  -4  -6  180.20    4.40   1
  -2   4   6  178.70    5.10   1
   2  -4  -5   96.50    2.50   1
  -2   4   5   98.10    3.40   1
   2  -4  -4  117.80    3.70   1
  -2   4   4  129.30    4.00   1
   2  -4  -3  748.80   18.60   1
  -2   4   3  760.90   14.80   1
   2  -4  -2 2329.80   52.50   1
  -2   4   2 2381.90   54.50   1
   2  -4  -1   61.00    3.40   1
  -2   4   1   63.10    1.70   1
   2  -4   0   39.40    2.90   1
  -2   4   0   37.60    1.20   1
   2  -4   1   23.50    2.50   1
  -2   4  -1   19.20    1.40   1
   2  -4   2 2390.70   78.20   1
  -2   4  -2 2429.10   45.90   1
   2  -4   3  131.80    5.60   1
  -2   4  -3  140.20    3.60   1
   2  -4   4    2.50    1.80   1
  -2   4  -4    7.50    1.30   1
   2  -4   5  214.30    6.70   1
  -2   4  -5  211.10    5.90   1
   2  -4   6  140.70    3.90   1
  -2   4  -6  149.20    5.30   1
   2  -4   7   84.70    3.00   1
  -2   4  -7   82.60    3.80   1
   2  -4   8   19.40    1.40   1
  -2   4  -8   20.80    2.40   1
   2  -4   9  226.00   10.70   1
  -2   4  -9  235.00   11.20   1
   2  -4  10   86.60    5.80   1
  -2   4 -10   93.40    6.70   1
   2  -4  11   92.30    6.20   1
  -2   4 -11   90.30    7.00   1
   2  -4  12   14.90    4.50   1
  -2   4 -12   10.20    4.00   1
   2  -4  13    2.70    3.30   1
  -2   4 -13    3.90    2.90   1
   2  -3 -18    4.30    2.90   1
   2  -3 -17   24.20    2.80   1
   2  -3 -16   15.90    2.40   1
   2  -3 -15   44.50    3.10   1
  -2   3  15   34.40    4.20   1
   2  -3 -14   -0.90    1.80   1
  -2   3  14   -0.90    2.80   1
   2  -3 -13    8.90    1.90   1
  -2   3  13    7.00    1.70   1
   2  -3 -12   24.50    2.00   1
  -2   3  12   23.50    2.20   1
   2  -3 -11   96.50    3.90   1
  -2   3  11  100.70    4.30   1
   2  -3 -10    4.40    1.50   1
  -2   3  10    5.00    1.40   1
   2  -3  -9   16.60    1.80   1
  -2   3   9   16.00    1.40   1
   2  -3  -8  567.80   14.20   1
  -2   3   8  546.70   13.20   1
   2  -3  -7  194.20    5.40   1
  -2   3   7  202.00    5.70   1
   2  -3  -6  711.30   14.10   1
  -2   3   6  748.20   17.90   1
   2  -3  -5  843.70   17.00   1
  -2   3   5  843.30   20.70   1
   2  -3  -4   87.50    2.20   1
  -2   3   4   83.50    2.60   1
   2  -3  -3   13.80    0.90   1
  -2   3   3   14.60    0.80   1
   2  -3  -2  629.50   15.10   1
  -2   3   2  639.80   12.60   1
   2  -3  -1  793.80   27.50   1
  -2   3   1  821.20   14.00   1
   2  -3   0  166.20    6.80   1
  -2   3   0  169.20    3.30   1
   2  -3   1   32.60    2.30   1
  -2   3  -1   36.30    1.40   1
   2  -3   2   20.90    2.10   1
  -2   3  -2   18.50    1.10   1
   2  -3   3  755.10   18.10   1
  -2   3  -3  771.20   18.20   1
   2  -3   4    0.60    1.20   1
  -2   3  -4    1.10    1.10   1
   2  -3   5    8.50    1.40   1
  -2   3  -5   11.30    2.20   1
   2  -3   6    6.60    0.80   1
  -2   3  -6    2.80    1.40   1
   2  -3   7   30.30    1.30   1
  -2   3  -7   33.10    2.40   1
   2  -3   8   -0.60    1.60   1
  -2   3  -8   -0.60    1.60   1
   2  -3   9  136.60    5.10   1
  -2   3  -9  135.00    5.20   1
   2  -3  10    0.70    2.40   1
  -2   3 -10    0.80    3.00   1
   2  -3  11   43.50    4.10   1
  -2   3 -11   35.90    4.40   1
   2  -3  12   19.90    3.70   1
  -2   3 -12   28.30    3.30   1
   2  -3  13  112.80    8.10   1
  -2   3 -13  104.50    5.90   1
   2  -3  14  139.70    9.70   1
  -2   3 -14  136.30    7.10   1
  -2   3 -15  162.00    8.40   1
   2  -2 -18    4.40    2.00   1
   2  -2 -17    4.20    1.90   1
   2  -2 -16   22.60    2.50   1
   2  -2 -15   68.00    3.60   1
  -2   2  15   59.00    4.90   1
   2  -2 -14    7.60    1.70   1
  -2   2  14   14.50    3.90   1
   2  -2 -13   13.40    1.80   1
  -2   2  13   11.80    2.40   1
   2  -2 -12  219.40    6.80   1
  -2   2  12  197.30    6.70   1
   2  -2 -11   28.30    1.90   1
  -2   2  11   31.80    2.20   1
   2  -2 -10   10.10    1.50   1
  -2   2  10   10.30    1.60   1
   2  -2  -9  188.90    5.60   1
  -2   2   9  185.60    5.20   1
   2  -2  -8  652.40   16.00   1
  -2   2   8  656.10   15.40   1
   2  -2  -7   24.10    1.40   1
  -2   2   7   24.50    1.40   1
   2  -2  -6  294.50    7.30   1
  -2   2   6  292.60    7.30   1
   2  -2  -5  119.70    3.40   1
  -2   2   5  113.90    3.10   1
   2  -2  -4   45.90    1.40   1
  -2   2   4   40.20    1.50   1
   2  -2  -3  191.80    3.50   1
  -2   2   3  189.80    5.00   1
   2  -2  -2 1610.40   30.30   1
  -2   2   2 1633.30   30.30   1
   2  -2  -1   22.80    1.70   1
  -2   2   1   22.70    0.70   1
   2  -2   0   24.10    1.80   1
  -2   2   0   19.70    0.80   1
   2  -2   1  981.20   23.00   1
  -2   2  -1  984.00   22.70   1
   2  -2   2  141.10    3.90   1
  -2   2  -2  132.90    3.70   1
   2  -2   3   10.20    1.30   1
  -2   2  -3   15.10    1.20   1
   2  -2   4 2575.90   58.10   1
  -2   2  -4 2614.30   59.30   1
   2  -2   5 2264.20   50.80   1
  -2   2  -5 2259.70   52.60   1
   2  -2   6  735.90   14.20   1
  -2   2  -6  725.10   18.00   1
   2  -2   7   63.50    2.70   1
  -2   2  -7   68.30    4.10   1
   2  -2   8  368.90   10.40   1
  -2   2  -8  384.80   10.50   1
   2  -2   9   15.10    2.10   1
  -2   2  -9   15.10    1.90   1
   2  -2  10   88.10    3.80   1
  -2   2 -10   81.10    3.00   1
   2  -2  11  223.40    9.70   1
  -2   2 -11  235.50    6.20   1
   2  -2  12    5.40    3.70   1
  -2   2 -12    3.80    2.20   1
   2  -2  13   -3.20    2.60   1
  -2   2 -13    4.30    2.90   1
  -2   2 -14   -1.60    2.50   1
  -2   2 -15   59.50    4.80   1
  -2   2 -16   68.70    5.10   1
   2  -1 -18   70.70    3.50   1
   2  -1 -17   -0.10    2.40   1
   2  -1 -16   14.10    1.90   1
   2  -1 -15   21.30    2.20   1
  -2   1  15   27.00    4.00   1
   2  -1 -14    0.80    1.20   1
  -2   1  14    4.60    3.50   1
   2  -1 -13   51.70    2.50   1
  -2   1  13   48.70    4.20   1
   2  -1 -12    9.30    1.60   1
  -2   1  12    8.20    2.20   1
   2  -1 -11  163.60    5.30   1
  -2   1  11  156.10    7.00   1
   2  -1 -10    3.30    1.70   1
  -2   1  10    0.70    1.50   1
   2  -1  -9   67.30    2.60   1
  -2   1   9   71.00    3.80   1
   2  -1  -8  393.30    9.70   1
  -2   1   8  400.60   10.00   1
   2  -1  -7  744.70   17.30   1
  -2   1   7  749.70   17.90   1
   2  -1  -6  650.20   15.30   1
  -2   1   6  628.50   14.80   1
   2  -1  -5  663.30   15.60   1
  -2   1   5  666.10   16.00   1
   2  -1  -4  665.10   15.30   1
  -2   1   4  680.30   15.40   1
   2  -1  -3 1210.20   27.80   1
  -2   1   3 1240.80   28.50   1
   2  -1  -2 1301.70   24.10   1
  -2   1   2 1279.80   41.70   1
   2  -1  -1  384.20    9.20   1
  -2   1   1  367.60    5.60   1
   2  -1   0  251.90    5.30   1
  -2   1   0  253.20    5.20   1
   2  -1   1  952.70   21.90   1
  -2   1  -1  959.20   18.30   1
   2  -1   3   15.50    1.10   1
  -2   1  -3   14.90    1.00   1
   2  -1   5  802.30   19.00   1
  -2   1  -5  836.90   20.10   1
   2  -1   6  166.30    4.90   1
  -2   1  -6  162.00    4.80   1
   2  -1   7  670.40   16.70   1
  -2   1  -7  654.90   12.70   1
   2  -1   8  177.80    5.40   1
  -2   1  -8  174.30    4.40   1
   2  -1   9   16.00    2.10   1
  -2   1  -9   14.80    1.60   1
   2  -1  10   87.60    3.60   1
  -2   1 -10   95.10    3.10   1
   2  -1  11   95.40    4.20   1
  -2   1 -11   86.80    3.10   1
  -2   1 -12   31.30    2.70   1
  -2   1 -13    2.20    2.20   1
  -2   1 -14   57.10    3.70   1
  -2   1 -15    1.40    2.50   1
  -2   1 -16  183.90    8.70   1
  -2   1 -17   55.60    4.90   1
   2   0 -17   44.90    2.80   1
   2   0 -16    6.40    1.90   1
   2   0 -15    3.30    1.60   1
  -2   0  15    5.20    3.80   1
   2   0 -14    1.30    1.20   1
  -2   0  14    1.70    2.30   1
   2   0 -13   16.30    1.50   1
  -2   0  13   14.30    2.50   1
   2   0 -12    6.90    1.20   1
  -2   0  12   11.30    2.40   1
   2   0 -11   99.20    2.60   1
  -2   0  11  100.50    5.70   1
   2   0 -10  424.30    7.90   1
  -2   0  10  435.70   15.60   1
   2   0  -9  442.50    8.10   1
  -2   0   9  447.50   15.50   1
   2   0  -8  184.30    3.70   1
  -2   0   8  181.80    6.90   1
   2   0  -7  170.80    6.90   1
   2   0  -4  463.50   10.90   1
  -2   0   4  452.80   14.30   1
   2   0  -2  648.20   12.20   1
   2   0  -1    8.40    0.30   1
  -2   0   1    8.80    0.70   1
   2   0   0  787.80   12.90   1
  -2   0   0  796.20   15.10   1
   2   0   1 1243.10   20.00   1
  -2   0  -1 1243.70   22.90   1
   2   0   2 2882.70   64.60   1
  -2   0  -2 2822.30   51.30   1
   2   0   3  343.70    8.50   1
  -2   0  -3  346.70    6.00   1
   2   0   4 1629.60   37.10   1
  -2   0  -4 1641.20   30.70   1
   2   0   5   64.70    2.50   1
  -2   0  -5   64.00    1.50   1
   2   0   7  325.50    8.40   1
  -2   0  -7  325.30    5.70   1
   2   0   8  198.90    5.70   1
  -2   0  -8  196.20    3.90   1
   2   0   9   99.90    3.70   1
  -2   0  -9  105.70    2.60   1
   2   0  10   -0.30    2.20   1
  -2   0 -10    2.90    0.50   1
   2   0  11   29.10    3.50   1
  -2   0 -11   33.90    1.20   1
   2   0  12   13.80    4.40   1
  -2   0 -12   15.50    0.90   1
  -2   0 -13   30.10    1.20   1
  -2   0 -14    2.80    2.30   1
  -2   0 -15    4.00    2.40   1
  -2   0 -16   -0.70    2.60   1
  -2   0 -17    2.00    3.20   1
   2   1 -17   67.70    4.80   1
   2   1 -16  241.50    8.30   1
   2   1 -15   38.60    2.30   1
   2   1 -14   11.20    1.40   1
  -2  -1  14   11.50    3.90   1
   2   1 -13   23.20    1.70   1
  -2  -1  13   31.20    3.80   1
   2   1 -12   71.90    2.40   1
  -2  -1  12   68.60    4.80   1
   2   1 -11   15.80    1.30   1
  -2  -1  11   14.50    3.00   1
   2   1 -10  111.00    2.80   1
  -2  -1  10  121.50    5.70   1
   2   1  -9   13.40    1.10   1
  -2  -1   9   18.60    2.50   1
   2   1  -8  135.50    2.90   1
  -2  -1   8  141.10    5.80   1
   2   1  -7  467.40    8.40   1
  -2  -1   7  457.80   15.70   1
   2   1  -6  100.80    2.40   1
  -2  -1   6   98.20    3.90   1
   2   1  -5 2421.20   76.90   1
  -2  -1   5 2489.00   77.50   1
   2   1  -3 1126.10   21.00   1
  -2  -1   3 1124.80   36.20   1
   2   1  -2  620.40   10.20   1
  -2  -1   2  620.90   20.70   1
   2   1  -1  662.30   12.70   1
  -2  -1   1  675.30   15.60   1
   2   1   0  386.00    5.80   1
  -2  -1   0  386.80    6.50   1
   2   1   1  769.90   11.10   1
  -2  -1  -1  765.70   11.30   1
   2   1   2  438.80    7.30   1
  -2  -1  -2  443.90    6.60   1
   2   1   3   47.30    1.40   1
  -2  -1  -3   51.20    1.00   1
   2   1   4   42.30    1.60   1
  -2  -1  -4   41.50    1.40   1
   2   1   5 1584.80   35.80   1
  -2  -1  -5 1633.50   30.20   1
   2   1   6 2266.90   50.60   1
  -2  -1  -6 2273.40   41.80   1
   2   1   7   48.20    2.40   1
  -2  -1  -7   45.20    1.80   1
   2   1   8    8.80    1.70   1
  -2  -1  -8   10.90    1.20   1
   2   1   9   54.20    3.80   1
  -2  -1  -9   52.50    2.10   1
   2   1  10    2.80    3.20   1
  -2  -1 -10    1.90    1.30   1
   2   1  11   58.60    5.00   1
  -2  -1 -11   47.80    2.40   1
   2   1  12  187.60    8.90   1
  -2  -1 -12  188.80    5.40   1
  -2  -1 -13  291.80    9.60   1
  -2  -1 -14   46.70    2.30   1
  -2  -1 -15  177.40    5.20   1
  -2  -1 -16    0.60    2.50   1
  -2  -1 -17   47.00    4.90   1
  -2  -1 -18  138.90    7.50   1
   2   2 -16   53.20    4.00   1
   2   2 -15   98.70    4.40   1
   2   2 -14  109.90    3.90   1
   2   2 -13   28.90    1.70   1
  -2  -2  13   25.00    4.20   1
   2   2 -12    9.90    1.30   1
  -2  -2  12   12.00    3.60   1
   2   2 -11    6.60    1.40   1
  -2  -2  11   -3.90    3.20   1
   2   2 -10  132.20    3.20   1
  -2  -2  10  127.00    6.60   1
   2   2  -9  434.90    9.30   1
  -2  -2   9  436.70   15.80   1
   2   2  -8  148.40    3.70   1
  -2  -2   8  143.30    6.10   1
   2   2  -7 1053.60   20.20   1
  -2  -2   7 1104.30   35.50   1
   2   2  -6  253.30    5.30   1
  -2  -2   6  265.10    7.00   1
   2   2  -5   19.20    0.80   1
  -2  -2   5   18.80    2.00   1
   2   2  -3  246.00    4.40   1
  -2  -2   3  246.20    6.40   1
   2   2  -2    3.50    0.70   1
  -2  -2   2    4.80    0.40   1
   2   2  -1  689.70   16.50   1
  -2  -2   1  684.90   16.30   1
   2   2   0  739.30   17.40   1
  -2  -2   0  736.40   14.10   1
   2   2   1 1264.60   24.00   1
  -2  -2  -1 1240.10   23.50   1
   2   2   2   16.10    0.90   1
  -2  -2  -2   16.80    0.80   1
   2   2   3   41.10    1.30   1
  -2  -2  -3   40.80    1.30   1
  -2  -2  -4 4811.70  151.20   1
   2   2   5  683.50   16.20   1
  -2  -2  -5  692.40   11.70   1
   2   2   6  380.20    9.40   1
  -2  -2  -6  389.10    8.10   1
   2   2   7  275.10    7.30   1
  -2  -2  -7  274.60    6.00   1
   2   2   8 2376.00   54.10   1
  -2  -2  -8 2413.80   44.10   1
   2   2   9  317.40    8.60   1
  -2  -2  -9  318.40    7.00   1
   2   2  10    7.50    1.90   1
  -2  -2 -10    9.00    1.50   1
   2   2  11   78.10    4.00   1
  -2  -2 -11   77.90    2.90   1
   2   2  12   42.50    3.10   1
  -2  -2 -12   38.50    2.30   1
  -2  -2 -13   64.40    3.90   1
  -2  -2 -14   51.20    3.60   1
  -2  -2 -15   26.10    3.00   1
  -2  -2 -16   11.10    2.60   1
  -2  -2 -17   23.50    3.70   1
  -2  -2 -18    2.00    2.90   1
   2   3 -15  191.00    9.00   1
   2   3 -14   98.00    5.40   1
   2   3 -13   21.80    2.00   1
   2   3 -12   51.60    2.40   1
   2   3 -11   60.60    2.90   1
  -2  -3  11   63.40    4.60   1
   2   3 -10    0.60    1.20   1
  -2  -3  10    0.70    2.10   1
   2   3  -9  818.00   14.90   1
  -2  -3   9  819.80   30.30   1
   2   3  -8  305.40    6.20   1
  -2  -3   8  289.00   11.40   1
   2   3  -7  440.70    9.20   1
  -2  -3   7  428.40   10.70   1
   2   3  -6  229.90    5.00   1
  -2  -3   6  225.80    6.20   1
   2   3  -5   88.40    2.30   1
  -2  -3   5   80.40    2.60   1
   2   3  -4   74.00    2.00   1
  -2  -3   4   71.80    2.40   1
   2   3  -3  785.50   15.20   1
  -2  -3   3  786.90   18.40   1
   2   3  -2 1319.50   31.00   1
  -2  -3   2 1257.10   23.70   1
   2   3  -1  208.90    5.70   1
  -2  -3   1  203.30    4.50   1
   2   3   0   70.10    2.30   1
  -2  -3   0   71.10    1.90   1
   2   3   1 2021.40   37.50   1
  -2  -3  -1 1977.80   46.20   1
   2   3   2   20.00    0.90   1
  -2  -3  -2   20.50    1.30   1
   2   3   3 1804.50   33.90   1
  -2  -3  -3 1776.20   42.10   1
   2   3   4  124.30    3.70   1
  -2  -3  -4  115.80    2.80   1
   2   3   5  299.50    7.80   1
  -2  -3  -5  294.90    6.10   1
   2   3   6   47.20    2.30   1
  -2  -3  -6   44.80    1.60   1
   2   3   7  167.40    4.80   1
  -2  -3  -7  153.00    3.80   1
   2   3   8  315.90    8.40   1
  -2  -3  -8  308.40    8.10   1
   2   3   9    0.30    1.40   1
  -2  -3  -9    0.10    1.60   1
   2   3  10   71.60    3.30   1
  -2  -3 -10   74.60    2.70   1
   2   3  11   63.50    3.50   1
  -2  -3 -11   69.40    2.90   1
   2   3  12   -1.30    1.90   1
  -2  -3 -12    3.00    1.70   1
  -2  -3 -13   54.20    3.30   1
  -2  -3 -14    1.70    2.40   1
  -2  -3 -15  148.10    6.20   1
  -2  -3 -16  113.60    5.50   1
  -2  -3 -17   42.10    3.70   1
  -2  -3 -18   25.90    3.70   1
   2   4 -14    0.60    2.40   1
   2   4 -13    1.20    2.70   1
   2   4 -12   17.10    2.40   1
   2   4 -11   12.40    2.20   1
   2   4 -10   54.60    2.40   1
   2   4  -9 1158.50   24.50   1
  -2  -4   9 1165.00   41.50   1
   2   4  -8  781.30   16.40   1
  -2  -4   8  812.20   19.70   1
   2   4  -7   71.80    2.50   1
  -2  -4   7   67.50    2.70   1
   2   4  -6  213.10    5.20   1
  -2  -4   6  212.00    6.10   1
   2   4  -5   85.50    2.40   1
  -2  -4   5   86.80    2.90   1
   2   4  -4  187.50    4.40   1
  -2  -4   4  188.10    5.10   1
   2   4  -3   75.10    2.80   1
  -2  -4   3   74.70    2.60   1
   2   4  -2  473.90   10.10   1
  -2  -4   2  457.80    9.60   1
   2   4  -1 1539.80   36.50   1
  -2  -4   1 1477.10   27.30   1
   2   4   0   45.20    2.00   1
  -2  -4   0   46.70    1.90   1
   2   4   1   60.70    2.40   1
  -2  -4  -1   53.30    1.90   1
   2   4   2  473.60    9.50   1
  -2  -4  -2  468.50   12.50   1
   2   4   5    4.80    1.40   1
  -2  -4  -5    2.90    1.40   1
   2   4   6  969.60   23.10   1
  -2  -4  -6  934.40   18.40   1
   2   4   7   22.30    1.80   1
  -2  -4  -7   19.50    1.20   1
   2   4   8   14.80    1.90   1
  -2  -4  -8   15.20    1.30   1
   2   4   9  177.40    6.00   1
  -2  -4  -9  158.90    4.50   1
   2   4  10  195.70    6.60   1
  -2  -4 -10  191.80    6.90   1
   2   4  11   95.90    4.50   1
  -2  -4 -11  101.00    4.20   1
  -2  -4 -12   35.20    2.60   1
  -2  -4 -13    3.10    2.10   1
  -2  -4 -14  180.30    7.20   1
  -2  -4 -15  245.40    8.90   1
  -2  -4 -16  222.10    9.50   1
  -2  -4 -17   17.60    4.40   1
  -2  -4 -18   -3.20    4.20   1
   2   5 -12  121.10    8.70   1
   2   5 -11   12.70    3.30   1
   2   5 -10    9.80    1.90   1
   2   5  -9   41.40    2.60   1
  -2  -5   9   45.80    2.80   1
   2   5  -8    4.40    1.50   1
  -2  -5   8    4.20    1.40   1
   2   5  -7  435.70   10.30   1
  -2  -5   7  460.00   12.30   1
   2   5  -6  186.20    5.10   1
  -2  -5   6  190.40    5.90   1
   2   5  -5  108.60    3.40   1
  -2  -5   5  108.10    3.90   1
   2   5  -4   25.30    1.70   1
  -2  -5   4   22.40    1.60   1
   2   5  -3    0.60    1.30   1
  -2  -5   3    4.50    1.20   1
   2   5  -2   10.70    1.30   1
  -2  -5   2   14.70    1.40   1
   2   5  -1  360.60   10.60   1
  -2  -5   1  356.40    7.70   1
   2   5   0  330.90    9.30   1
  -2  -5   0  306.40    8.20   1
   2   5   1   33.80    2.10   1
  -2  -5  -1   32.00    1.80   1
   2   5   2   64.70    2.00   1
  -2  -5  -2   63.60    2.50   1
   2   5   3  216.10    4.70   1
  -2  -5  -3  217.70    6.20   1
   2   5   4  266.60    5.90   1
  -2  -5  -4  286.60    7.90   1
   2   5   5  689.50   17.40   1
  -2  -5  -5  730.80   18.40   1
   2   5   6    1.30    1.80   1
  -2  -5  -6    3.50    1.50   1
   2   5   7  147.40    5.10   1
  -2  -5  -7  146.20    5.20   1
   2   5   8  122.40    4.60   1
  -2  -5  -8  134.20    5.40   1
   2   5   9    0.70    1.90   1
  -2  -5  -9    3.10    0.80   1
   2   5  10    9.40    2.10   1
  -2  -5 -10   13.40    1.10   1
  -2  -5 -11    0.00    1.00   1
  -2  -5 -12   19.90    1.60   1
  -2  -5 -13    1.90    1.50   1
  -2  -5 -14   70.50    4.20   1
  -2  -5 -15   83.00    5.50   1
  -2  -5 -16    1.90    3.00   1
  -2  -5 -17   87.50    5.70   1
   2   6 -11   14.10    5.40   1
   2   6 -10    5.80    4.70   1
  -2  -6  10    0.30    2.40   1
   2   6  -9   22.50    5.30   1
  -2  -6   9   26.60    3.10   1
   2   6  -8   25.10    3.70   1
  -2  -6   8   26.40    3.30   1
   2   6  -7  327.90   14.30   1
  -2  -6   7  312.10   13.90   1
   2   6  -6  163.10    8.60   1
  -2  -6   6  145.30    5.20   1
  -2  -6   5  139.70    4.70   1
   2   6  -4   50.40    2.60   1
  -2  -6   4   49.40    2.50   1
   2   6  -3   46.50    2.50   1
  -2  -6   3   43.80    2.30   1
   2   6  -2    1.00    1.20   1
  -2  -6   2    2.60    1.10   1
   2   6  -1    1.70    1.40   1
  -2  -6   1    2.90    1.10   1
   2   6   0   17.80    2.00   1
  -2  -6   0   18.80    1.60   1
   2   6   1    7.40    1.90   1
  -2  -6  -1    7.60    1.40   1
   2   6   2  243.80    6.30   1
  -2  -6  -2  235.70    7.90   1
   2   6   3  142.70    3.90   1
  -2  -6  -3  134.00    4.80   1
   2   6   4  280.40    6.50   1
  -2  -6  -4  273.20    9.30   1
   2   6   5  719.20   20.10   1
  -2  -6  -5  724.60   20.20   1
   2   6   6  270.70    8.40   1
  -2  -6  -6  256.90    8.60   1
   2   6   7  469.90   14.40   1
  -2  -6  -7  517.30   15.00   1
   2   6   8   85.50    4.20   1
  -2  -6  -8   90.00    4.30   1
  -2  -6  -9   33.30    2.70   1
  -2  -6 -10    0.70    1.90   1
  -2  -6 -11    6.30    2.10   1
  -2  -6 -12   25.80    1.60   1
  -2  -6 -13   -2.40    2.60   1
  -2  -6 -14   13.00    2.90   1
  -2  -6 -15   35.40    3.80   1
  -2  -6 -16   62.80    4.70   1
   2   7  -8   -3.30    3.30   1
   2   7  -7    4.00    3.50   1
  -2  -7   7    8.60    2.90   1
   2   7  -6   14.60    3.70   1
  -2  -7   6   11.40    2.90   1
   2   7  -5   28.00    4.10   1
  -2  -7   5   29.30    3.20   1
   2   7  -4   31.80    4.00   1
  -2  -7   4   21.10    2.40   1
   2   7  -3   76.50    5.60   1
  -2  -7   3   80.80    4.80   1
   2   7  -2    2.00    3.50   1
  -2  -7   2    0.70    1.50   1
   2   7  -1    7.50    2.60   1
  -2  -7   1   -2.00    2.10   1
  -2  -7   0   79.10    3.50   1
  -2  -7  -1    0.00    1.30   1
   2   7   2  106.60    5.00   1
  -2  -7  -2   92.10    3.80   1
   2   7   3    1.10    0.70   1
  -2  -7  -3    4.10    3.40   1
  -2  -7  -4   -1.50    1.50   1
  -2  -7  -5   31.90    2.10   1
  -2  -7  -6    3.80    2.20   1
  -2  -7  -7   55.80    3.40   1
  -2  -7  -8    5.70    2.30   1
  -2  -7  -9    3.70    2.30   1
  -2  -7 -10   29.00    3.00   1
  -2  -7 -11   22.70    2.80   1
  -2  -7 -12    5.20    2.30   1
  -2  -7 -13   -1.10    2.40   1
  -2  -7 -14    2.30    2.80   1
  -2  -7 -15    0.50    2.80   1
   2   8  -6   -1.00    3.70   1
   2   8  -5   33.40    5.30   1
   2   8  -4   26.90    4.70   1
  -2  -8   4   27.40    3.80   1
   2   8  -3  128.90    8.80   1
  -2  -8   3  124.60    8.10   1
   2   8  -2   36.10    4.70   1
  -2  -8   2   35.60    3.90   1
   2   8  -1   -1.00    2.80   1
  -2  -8   1   -0.10    1.70   1
   2   8   0   59.80    5.30   1
  -2  -8   0   62.90    5.00   1
  -2  -8  -1   18.30    2.00   1
   2   8   2    9.90    1.40   1
  -2  -8  -2    8.80    1.90   1
  -2  -8  -3    0.40    1.60   1
  -2  -8  -4    2.10    1.90   1
  -2  -8  -5    4.30    1.90   1
  -2  -8  -6   -1.10    1.80   1
  -2  -8  -7    8.90    1.90   1
  -2  -8  -8   37.60    3.60   1
  -2  -8  -9  131.80    6.20   1
  -2  -8 -10   35.80    3.60   1
  -2  -8 -11    1.70    3.00   1
  -2  -8 -12   21.90    4.20   1
  -2  -8 -13    5.10    3.20   1
   2   9  -1   38.80    6.30   1
  -2  -9   1   22.20    3.30   1
   2   9   0   -3.20    4.10   1
  -2  -9   0    3.30    3.10   1
   2   9   1   20.30    4.40   1
  -2  -9  -1   15.70    3.70   1
  -2  -9  -2   30.30    2.80   1
  -2  -9  -3    1.60    2.10   1
  -2  -9  -4    2.50    2.00   1
  -2  -9  -5    2.90    2.40   1
  -2  -9  -6    7.10    2.60   1
  -2  -9  -7    2.00    2.90   1
  -2  -9  -8    2.40    2.30   1
  -2  -9  -9    1.40    2.00   1
  -2  -9 -10    6.60    2.80   1
   3  -8 -11   42.50    4.10   1
   3  -8 -10   17.50    3.10   1
   3  -8  -9    2.30    2.70   1
   3  -8  -8   11.60    2.50   1
   3  -8  -7    2.00    2.20   1
   3  -8  -6    5.20    2.50   1
  -3   8   6    4.50    2.90   1
   3  -8  -5    6.30    3.00   1
  -3   8   5    5.30    4.30   1
   3  -8  -4   -1.00    3.10   1
  -3   8   4    2.30    2.90   1
   3  -8  -3    8.10    3.30   1
  -3   8   3   10.90    4.50   1
   3  -8  -2    4.70    3.30   1
  -3   8   2    3.40    3.10   1
   3  -8  -1   22.90    4.30   1
  -3   8   1   12.60    4.00   1
   3  -8   0   44.10    5.00   1
  -3   8   0   42.80    5.40   1
   3  -8   1   21.30    4.20   1
  -3   8  -1   24.70    5.00   1
   3  -8   2   59.50    7.10   1
  -3   8  -2   44.00    5.90   1
   3  -8   3   12.20    5.10   1
  -3   8  -3   15.20    4.50   1
   3  -7 -13   14.70    2.70   1
   3  -7 -12   26.80    2.50   1
   3  -7 -11   11.40    1.90   1
   3  -7 -10    1.30    2.00   1
   3  -7  -9    0.10    2.20   1
   3  -7  -8   28.20    2.90   1
   3  -7  -7   18.50    2.50   1
   3  -7  -6    5.60    2.20   1
   3  -7  -5    1.30    1.80   1
  -3   7   5    5.00    2.60   1
   3  -7  -4   12.20    3.10   1
  -3   7   4   19.60    4.10   1
   3  -7  -3   15.40    3.00   1
  -3   7   3   12.40    1.80   1
   3  -7  -2  138.40    8.40   1
  -3   7   2  121.70    4.90   1
   3  -7  -1   91.50    6.80   1
  -3   7   1   73.50    3.60   1
   3  -7   0  263.40   12.70   1
  -3   7   0  230.50    8.00   1
   3  -7   1   68.30    6.10   1
  -3   7  -1   40.80    2.90   1
   3  -7   2   32.30    5.20   1
  -3   7  -2   26.50    2.50   1
   3  -7   3    9.30    4.30   1
  -3   7  -3    8.70    2.40   1
  -3   7  -4    2.30    3.50   1
   3  -7   5   -6.00    4.40   1
  -3   7  -5    0.60    5.00   1
   3  -7   6   -4.00    4.40   1
  -3   7  -6   -1.90    3.90   1
   3  -7   7   -0.90    4.80   1
  -3   7  -7    1.10    5.80   1
   3  -6 -15    7.40    2.60   1
   3  -6 -14    8.80    2.40   1
   3  -6 -13   29.10    2.90   1
   3  -6 -12   -1.10    1.30   1
   3  -6 -11  152.00    4.70   1
  -3   6  11  139.70    7.60   1
   3  -6 -10  337.80    8.30   1
  -3   6  10  316.00   10.40   1
   3  -6  -9  187.90    5.60   1
  -3   6   9  184.40    6.80   1
   3  -6  -8   36.70    2.70   1
  -3   6   8   32.20    2.50   1
   3  -6  -7   80.00    3.80   1
  -3   6   7   77.70    4.00   1
   3  -6  -6   20.90    2.10   1
  -3   6   6   24.80    2.40   1
   3  -6  -5    4.70    1.50   1
  -3   6   5    3.80    1.50   1
   3  -6  -4    5.10    1.60   1
  -3   6   4    2.60    1.30   1
   3  -6  -3    1.50    2.40   1
  -3   6   3    1.30    0.90   1
   3  -6  -2    7.40    2.50   1
  -3   6   2    6.60    1.10   1
   3  -6  -1   17.60    3.00   1
  -3   6   1   15.30    1.30   1
   3  -6   0    0.10    2.40   1
  -3   6   0   -0.10    1.30   1
   3  -6   1  165.70    9.00   1
  -3   6  -1  158.20    4.70   1
   3  -6   2  873.10   33.60   1
  -3   6  -2  882.90   23.90   1
   3  -6   3  226.80   11.00   1
  -3   6  -3  218.90   10.20   1
   3  -6   4  133.00    7.50   1
  -3   6  -4  136.10    8.40   1
   3  -6   5   40.20    4.30   1
  -3   6  -5   49.60    5.80   1
   3  -6   6   16.20    3.50   1
  -3   6  -6   11.50    3.90   1
   3  -6   7   20.50    3.90   1
  -3   6  -7   32.40    4.70   1
   3  -6   8    0.80    3.20   1
  -3   6  -8    3.80    4.00   1
   3  -6   9   20.00    4.30   1
  -3   6  -9   14.50    4.30   1
   3  -5 -16    3.20    2.30   1
   3  -5 -15   22.00    2.00   1
   3  -5 -14   27.50    2.10   1
   3  -5 -13   23.50    1.70   1
  -3   5  13   23.90    2.90   1
   3  -5 -12   11.90    1.60   1
  -3   5  12    8.50    1.90   1
   3  -5 -11   69.10    2.70   1
  -3   5  11   72.90    3.40   1
   3  -5 -10  136.80    4.00   1
  -3   5  10  128.20    5.10   1
   3  -5  -9   10.20    1.10   1
  -3   5   9   10.00    1.70   1
   3  -5  -8  158.20    3.70   1
  -3   5   8  156.20    5.50   1
   3  -5  -7   -0.30    0.80   1
  -3   5   7    2.40    1.40   1
   3  -5  -6   86.60    3.50   1
  -3   5   6   83.50    3.50   1
   3  -5  -5  107.90    4.10   1
  -3   5   5  103.00    4.20   1
   3  -5  -4   33.70    2.20   1
  -3   5   4   25.30    2.00   1
   3  -5  -3    2.80    2.20   1
  -3   5   3    0.10    0.70   1
   3  -5  -2  141.50    7.40   1
  -3   5   2  141.80    3.40   1
   3  -5  -1  102.00    5.60   1
  -3   5   1   95.90    2.60   1
   3  -5   0  392.30   14.80   1
  -3   5   0  372.80    7.50   1
   3  -5   1  352.20   14.80   1
  -3   5  -1  355.40    7.30   1
   3  -5   2  560.40   22.20   1
  -3   5  -2  569.10   11.10   1
   3  -5   3  224.20   10.20   1
  -3   5  -3  216.10    6.20   1
   3  -5   4  286.20   12.10   1
  -3   5  -4  274.70    9.70   1
   3  -5   5  267.90   11.70   1
  -3   5  -5  258.70   12.40   1
   3  -5   6    2.10    1.00   1
  -3   5  -6    5.40    3.00   1
   3  -5   7    8.90    1.50   1
  -3   5  -7    6.00    4.50   1
   3  -5   8    9.20    4.00   1
  -3   5  -8   20.50    4.20   1
   3  -5   9    6.40    4.10   1
  -3   5  -9    0.30    5.00   1
   3  -5  10    3.60    3.40   1
  -3   5 -10    7.30    3.80   1
   3  -5  11    6.80    3.70   1
  -3   5 -11   24.70    6.60   1
   3  -4 -17   -0.70    2.20   1
   3  -4 -16   -2.20    2.10   1
   3  -4 -15   30.10    2.70   1
   3  -4 -14    4.60    1.90   1
  -3   4  14    8.40    1.90   1
   3  -4 -13  156.30    5.70   1
  -3   4  13  144.80    5.80   1
   3  -4 -12    2.00    1.50   1
  -3   4  12    4.50    1.60   1
   3  -4 -11  139.40    4.30   1
  -3   4  11  134.50    5.40   1
   3  -4 -10  137.80    4.00   1
  -3   4  10  134.90    4.80   1
   3  -4  -9    0.50    0.80   1
  -3   4   9    1.30    1.20   1
   3  -4  -8    6.30    0.90   1
  -3   4   8    6.00    1.40   1
   3  -4  -7  102.00    2.90   1
  -3   4   7   98.40    3.50   1
   3  -4  -6  171.70    3.60   1
  -3   4   6  164.80    5.00   1
   3  -4  -5  716.70   15.10   1
  -3   4   5  731.60   17.90   1
   3  -4  -4  518.00   13.10   1
  -3   4   4  531.70   13.10   1
   3  -4  -3  220.80    6.30   1
  -3   4   3  208.40    4.30   1
   3  -4  -2   47.80    3.60   1
  -3   4   2   45.30    1.40   1
   3  -4  -1 1052.20   35.90   1
  -3   4   1 1047.00   17.70   1
   3  -4   0  118.30    5.70   1
  -3   4   0  113.40    2.70   1
  -3   4  -1  107.40    2.80   1
   3  -4   2  833.20   29.70   1
  -3   4  -2  868.10   15.40   1
   3  -4   3  129.90    6.40   1
  -3   4  -3  138.10    4.00   1
   3  -4   4   52.70    3.40   1
  -3   4  -4   58.80    2.60   1
   3  -4   5   14.30    1.90   1
  -3   4  -5   10.90    1.70   1
   3  -4   6    5.20    1.90   1
  -3   4  -6    5.10    1.80   1
   3  -4   7  567.90   15.60   1
  -3   4  -7  558.80   21.80   1
   3  -4   8  180.20    5.30   1
  -3   4  -8  171.70    8.60   1
   3  -4   9   64.10    5.20   1
  -3   4  -9   58.90    5.10   1
   3  -4  10    6.10    2.90   1
  -3   4 -10    5.40    3.50   1
   3  -4  11   76.60    6.60   1
  -3   4 -11   83.40    7.80   1
   3  -4  12    9.30    4.80   1
  -3   4 -12    6.60    3.00   1
   3  -4  13   12.70    4.20   1
  -3   4 -13   11.10    3.70   1
   3  -3 -17    9.80    2.20   1
   3  -3 -16   24.60    2.50   1
   3  -3 -15   41.30    2.70   1
  -3   3  15   32.70    3.90   1
   3  -3 -14   46.40    2.80   1
  -3   3  14   43.60    2.80   1
   3  -3 -13   58.10    3.10   1
  -3   3  13   49.00    3.00   1
   3  -3 -12    1.00    1.40   1
  -3   3  12    0.20    1.60   1
   3  -3 -11    3.40    1.10   1
  -3   3  11    3.70    1.30   1
   3  -3 -10    0.00    1.50   1
  -3   3  10    0.70    1.10   1
   3  -3  -9  435.00   11.60   1
  -3   3   9  402.40   10.90   1
   3  -3  -8   -0.30    0.80   1
  -3   3   8    0.40    0.90   1
   3  -3  -7  126.40    3.30   1
  -3   3   7  130.30    3.90   1
   3  -3  -6   80.20    2.10   1
  -3   3   6   78.20    2.70   1
   3  -3  -5   11.30    0.80   1
  -3   3   5    8.90    0.90   1
   3  -3  -4  904.80   17.70   1
  -3   3   4  925.10   22.00   1
   3  -3  -3 1827.00   35.30   1
  -3   3   3 1808.60   34.00   1
   3  -3  -2  214.60    9.20   1
  -3   3   2  198.40    3.80   1
   3  -3  -1  163.80    6.90   1
  -3   3   1  168.30    3.00   1
   3  -3   0  224.00    8.70   1
  -3   3   0  236.30    4.70   1
   3  -3   1   28.10    2.50   1
  -3   3  -1   30.00    1.20   1
   3  -3   2   88.00    4.40   1
  -3   3  -2   89.40    2.30   1
   3  -3   3   19.80    1.80   1
  -3   3  -3   21.00    1.70   1
   3  -3   4   11.30    2.10   1
  -3   3  -4    9.90    1.60   1
   3  -3   5    2.70    1.50   1
  -3   3  -5    2.30    1.60   1
   3  -3   6  101.50    2.90   1
  -3   3  -6  105.30    4.10   1
   3  -3   7   -2.80    1.90   1
  -3   3  -7    0.50    1.70   1
   3  -3   8   14.70    2.80   1
  -3   3  -8   16.00    2.50   1
   3  -3   9   67.70    5.30   1
  -3   3  -9   55.40    4.80   1
   3  -3  10   68.90    4.90   1
  -3   3 -10   76.60    5.70   1
   3  -3  11    6.40    3.10   1
  -3   3 -11   12.60    2.70   1
   3  -3  12   34.20    4.30   1
  -3   3 -12   32.30    3.70   1
   3  -3  13   81.30    7.00   1
  -3   3 -13   86.40    5.50   1
   3  -3  14   15.10    4.40   1
  -3   3 -14   18.10    4.00   1
   3  -2 -17    2.70    2.20   1
   3  -2 -16    5.20    1.90   1
   3  -2 -15    4.00    2.20   1
  -3   2  15    9.30    2.60   1
   3  -2 -14    4.50    2.10   1
  -3   2  14    2.00    3.00   1
   3  -2 -13  406.10   12.40   1
  -3   2  13  379.90   16.40   1
   3  -2 -12   23.60    2.10   1
  -3   2  12   23.60    2.60   1
   3  -2 -11    1.10    1.20   1
  -3   2  11    1.30    1.20   1
   3  -2 -10   -0.90    0.90   1
  -3   2  10    1.80    1.20   1
   3  -2  -9  235.40    6.80   1
  -3   2   9  244.20    6.70   1
   3  -2  -8   70.30    2.30   1
  -3   2   8   73.80    2.50   1
   3  -2  -7    2.40    0.80   1
  -3   2   7    5.10    1.10   1
   3  -2  -6   62.70    1.80   1
  -3   2   6   60.40    2.00   1
   3  -2  -5  156.60    3.50   1
  -3   2   5  161.30    4.50   1
   3  -2  -4  329.70    5.90   1
  -3   2   4  321.60    8.20   1
   3  -2  -3   14.20    0.80   1
  -3   2   3   15.60    0.70   1
   3  -2  -2 1637.10   37.50   1
  -3   2   2 1644.40   26.40   1
   3  -2  -1 2938.90   66.00   1
  -3   2   1 3026.00   68.40   1
   3  -2   0 3122.80  100.00   1
  -3   2   0 3149.90   99.40   1
   3  -2   1  166.30    4.40   1
  -3   2  -1  169.40    4.00   1
   3  -2   2  383.90    9.40   1
  -3   2  -2  392.00    8.10   1
   3  -2   3   27.70    1.80   1
  -3   2  -3   26.90    1.70   1
   3  -2   4  402.30    9.90   1
  -3   2  -4  402.90   10.40   1
   3  -2   5  488.50   12.40   1
  -3   2  -5  489.70   12.70   1
   3  -2   6   21.70    2.80   1
  -3   2  -6   18.00    1.80   1
   3  -2   7   34.90    2.40   1
  -3   2  -7   32.40    2.20   1
   3  -2   8   24.70    2.40   1
  -3   2  -8   27.70    2.70   1
   3  -2   9   25.20    2.30   1
  -3   2  -9   32.00    2.10   1
   3  -2  10  233.60   10.10   1
  -3   2 -10  243.20    7.90   1
   3  -2  11  155.30    7.90   1
  -3   2 -11  152.40    5.90   1
   3  -2  12  157.30    8.40   1
  -3   2 -12  154.50    6.20   1
   3  -2  13  118.50    7.90   1
  -3   2 -13  115.10    5.50   1
   3  -2  14   20.40    4.20   1
  -3   2 -14   25.80    3.40   1
  -3   2 -15   12.30    3.80   1
   3  -1 -17   17.20    2.10   1
   3  -1 -16   16.00    1.90   1
   3  -1 -15    6.40    1.70   1
  -3   1  15    7.50    2.50   1
   3  -1 -14   87.80    3.00   1
  -3   1  14   76.30    5.50   1
   3  -1 -13  106.10    3.20   1
  -3   1  13   97.50    5.30   1
   3  -1 -12    1.90    1.20   1
  -3   1  12    2.00    1.60   1
   3  -1 -11   94.10    3.40   1
  -3   1  11   82.90    4.70   1
   3  -1 -10   -0.70    1.00   1
  -3   1  10   -1.70    1.80   1
   3  -1  -9  109.50    3.40   1
  -3   1   9  109.60    4.70   1
   3  -1  -8  113.60    3.30   1
  -3   1   8  114.30    4.90   1
   3  -1  -7  177.40    4.70   1
  -3   1   7  184.40    6.90   1
   3  -1  -6   29.30    1.20   1
  -3   1   6   29.70    1.20   1
   3  -1  -5    0.50    0.30   1
  -3   1   5   -0.60    0.40   1
   3  -1  -4  874.40   16.60   1
  -3   1   4  904.70   20.70   1
   3  -1  -3  361.50    9.30   1
  -3   1   3  360.30    7.00   1
   3  -1  -2  217.90    5.60   1
  -3   1   2  215.10    4.30   1
   3  -1  -1  441.80   10.90   1
  -3   1   1  439.10    7.70   1
   3  -1   0   18.20    0.90   1
  -3   1   0   18.60    0.90   1
   3  -1   1  408.50    9.80   1
  -3   1  -1  416.50    8.30   1
   3  -1   2  609.10   14.40   1
  -3   1  -2  610.00   12.00   1
   3  -1   3  182.90    3.90   1
  -3   1  -3  180.20    4.10   1
   3  -1   4 2161.70   48.60   1
  -3   1  -4 2127.50   49.10   1
   3  -1   5    9.20    1.30   1
  -3   1  -5   10.10    1.10   1
   3  -1   6   24.40    1.90   1
  -3   1  -6   25.90    1.50   1
   3  -1   7  581.30   14.10   1
  -3   1  -7  562.70   11.70   1
   3  -1   8  161.50    5.10   1
  -3   1  -8  156.30    4.00   1
   3  -1   9   88.60    3.60   1
  -3   1  -9   85.20    3.00   1
   3  -1  10    4.10    2.10   1
  -3   1 -10    5.20    1.80   1
   3  -1  11   48.30    4.00   1
  -3   1 -11   54.00    3.20   1
   3  -1  12   16.50    4.20   1
  -3   1 -12    8.00    2.70   1
  -3   1 -13   69.20    4.40   1
  -3   1 -14    0.40    4.70   1
  -3   1 -15   38.90    4.20   1
  -3   1 -16   12.60    3.50   1
   3   0 -17    1.70    1.90   1
   3   0 -16   19.30    2.00   1
   3   0 -15   -3.50    1.80   1
  -3   0  15    2.60    2.40   1
   3   0 -14    6.40    1.20   1
  -3   0  14    8.30    3.10   1
   3   0 -13  105.40    3.10   1
  -3   0  13  104.20    5.90   1
   3   0 -12    1.10    1.20   1
  -3   0  12   -2.20    2.30   1
   3   0 -11   -0.80    0.80   1
  -3   0  11   -1.40    1.40   1
   3   0 -10   31.90    1.40   1
  -3   0  10   33.50    2.90   1
   3   0  -9   15.40    1.10   1
  -3   0   9   16.40    2.10   1
   3   0  -8   -0.90    0.80   1
  -3   0   8   -3.70    1.30   1
   3   0  -7  136.00    3.10   1
  -3   0   7  131.90    5.30   1
   3   0  -6  373.20    7.40   1
  -3   0   6  384.90   13.10   1
   3   0  -5  248.20    5.30   1
  -3   0   5  245.00    8.60   1
   3   0  -4 1184.70   26.60   1
   3   0  -3 1038.60   19.80   1
   3   0  -2   64.60    1.70   1
   3   0  -1  259.30    4.60   1
  -3   0   1  260.20    6.10   1
   3   0   0 3280.80   74.00   1
  -3   0   0 3219.20  102.80   1
   3   0   1  414.70    7.10   1
  -3   0  -1  418.30    7.00   1
   3   0   2   -0.20    0.50   1
  -3   0  -2    0.90    0.60   1
   3   0   3   81.50    2.10   1
  -3   0  -3   87.10    1.90   1
   3   0   4  541.30   13.10   1
  -3   0  -4  537.80    9.30   1
   3   0   5   76.60    2.80   1
  -3   0  -5   75.50    2.20   1
   3   0   6   36.30    1.90   1
  -3   0  -6   36.10    1.70   1
   3   0   7   34.10    2.20   1
  -3   0  -7   36.40    1.80   1
   3   0   8  114.70    3.90   1
  -3   0  -8  113.30    3.40   1
   3   0   9   -1.10    1.50   1
  -3   0  -9    1.10    1.40   1
   3   0  10  296.90    8.70   1
  -3   0 -10  291.50    7.30   1
   3   0  11   24.00    3.50   1
  -3   0 -11   21.30    2.00   1
  -3   0 -12   80.40    3.70   1
  -3   0 -13  161.30    6.00   1
  -3   0 -14    0.80    2.70   1
  -3   0 -15   -3.70    3.00   1
  -3   0 -16   20.30    3.30   1
  -3   0 -17   12.40    3.50   1
   3   1 -16    2.60    1.80   1
   3   1 -15    0.90    1.70   1
   3   1 -14  117.80    3.50   1
  -3  -1  14  115.00    7.10   1
   3   1 -13    0.00    1.30   1
  -3  -1  13    1.70    2.10   1
   3   1 -12    5.90    1.20   1
  -3  -1  12    5.60    2.10   1
   3   1 -11  193.80    4.40   1
  -3  -1  11  190.80    8.70   1
   3   1 -10   41.20    1.60   1
  -3  -1  10   40.30    3.00   1
   3   1  -9   98.80    2.40   1
  -3  -1   9   97.20    4.30   1
   3   1  -8   30.50    1.20   1
  -3  -1   8   29.80    2.00   1
   3   1  -7  822.00   14.00   1
  -3  -1   7  869.40   28.60   1
   3   1  -6   77.60    1.80   1
  -3  -1   6   85.20    3.90   1
   3   1  -5   19.00    0.70   1
   3   1  -4  401.20    8.20   1
   3   1  -3  116.80    2.20   1
   3   1  -2  343.10    5.70   1
  -3  -1   2  335.80    8.00   1
   3   1  -1  398.90    6.10   1
  -3  -1   1  391.90    7.70   1
   3   1   0 1186.50   17.20   1
  -3  -1   0 1164.00   18.80   1
   3   1   1  334.70    5.20   1
  -3  -1  -1  333.80    5.20   1
   3   1   2  254.30    4.10   1
  -3  -1  -2  251.20    4.00   1
   3   1   3  100.60    2.40   1
  -3  -1  -3  100.00    1.80   1
   3   1   4  894.20   16.90   1
  -3  -1  -4  890.10   13.30   1
   3   1   5  128.90    3.10   1
  -3  -1  -5  127.20    2.40   1
   3   1   6  101.80    2.80   1
  -3  -1  -6  108.00    2.50   1
   3   1   7    0.10    1.30   1
  -3  -1  -7   -0.20    0.50   1
   3   1   8   36.90    3.20   1
  -3  -1  -8   39.70    1.30   1
   3   1   9    0.20    2.30   1
  -3  -1  -9   -0.20    0.60   1
   3   1  10    1.90    2.50   1
  -3  -1 -10    0.40    0.60   1
   3   1  11  153.10    7.70   1
  -3  -1 -11  153.00    3.60   1
  -3  -1 -12  146.00    4.00   1
  -3  -1 -13   14.90    0.80   1
  -3  -1 -14    0.30    2.20   1
  -3  -1 -15   43.30    3.70   1
  -3  -1 -16   22.30    3.20   1
  -3  -1 -17   13.60    3.50   1
   3   2 -15    0.00    1.80   1
   3   2 -14   45.70    2.60   1
   3   2 -13   -0.40    1.40   1
  -3  -2  13    1.00    3.00   1
   3   2 -12    0.10    1.10   1
  -3  -2  12   -1.00    2.10   1
   3   2 -11   24.90    1.50   1
  -3  -2  11   29.90    3.00   1
   3   2 -10    0.00    0.90   1
  -3  -2  10    3.50    2.40   1
   3   2  -9  143.00    3.20   1
  -3  -2   9  152.50    6.60   1
   3   2  -8  202.20    4.00   1
   3   2  -7   84.50    2.00   1
   3   2  -6   19.60    0.90   1
   3   2  -5 1671.20   31.00   1
  -3  -2   5 1639.00   52.00   1
   3   2  -4 2411.70   75.70   1
  -3  -2   4 2404.10   76.70   1
   3   2  -3   17.00    0.80   1
  -3  -2   3   16.70    2.00   1
   3   2  -2  497.60   10.20   1
  -3  -2   2  515.60   12.70   1
   3   2  -1   79.40    2.00   1
  -3  -2   1   79.50    2.60   1
   3   2   0   49.50    1.30   1
  -3  -2   0   47.40    1.10   1
   3   2   1  423.60    8.30   1
  -3  -2  -1  417.50    7.30   1
   3   2   2   59.80    1.70   1
  -3  -2  -2   59.40    1.30   1
   3   2   3    6.40    0.80   1
  -3  -2  -3    6.40    0.60   1
   3   2   4 2417.60   54.10   1
  -3  -2  -4 2360.10   34.20   1
   3   2   5  125.80    3.70   1
  -3  -2  -5  125.70    2.40   1
   3   2   6   15.90    1.50   1
  -3  -2  -6   15.00    1.00   1
   3   2   7   44.30    2.30   1
  -3  -2  -7   41.40    1.60   1
   3   2   8 2620.60   58.80   1
  -3  -2  -8 2664.70   49.30   1
   3   2   9   19.80    2.30   1
  -3  -2  -9   21.20    1.90   1
   3   2  10   52.10    2.90   1
  -3  -2 -10   53.30    2.40   1
   3   2  11   60.80    3.30   1
  -3  -2 -11   65.80    2.90   1
  -3  -2 -12   62.50    2.90   1
  -3  -2 -13   -1.80    2.40   1
  -3  -2 -14   14.00    3.20   1
  -3  -2 -15    0.90    2.40   1
  -3  -2 -16   -2.30    2.60   1
  -3  -2 -17    2.50    3.30   1
   3   3 -14   67.50    3.50   1
   3   3 -13   40.90    2.80   1
   3   3 -12   12.30    1.30   1
   3   3 -11    5.60    1.10   1
   3   3 -10   34.00    1.50   1
   3   3  -9   10.80    1.10   1
   3   3  -8    8.50    0.90   1
   3   3  -7   29.70    1.30   1
  -3  -3   7   33.90    3.80   1
   3   3  -6  109.10    2.50   1
  -3  -3   6  115.10    6.20   1
   3   3  -5   14.90    0.80   1
  -3  -3   5   10.60    3.10   1
   3   3  -4    6.90    1.00   1
  -3  -3   4    1.00    2.60   1
   3   3  -3  168.10    3.90   1
  -3  -3   3  170.80    7.30   1
   3   3  -2  938.90   23.00   1
  -3  -3   2  907.10   20.90   1
   3   3  -1   -0.50    0.70   1
  -3  -3   1   -0.70    0.80   1
   3   3   0  274.40    5.80   1
  -3  -3   0  272.50    5.70   1
   3   3   1 1148.00   22.10   1
  -3  -3  -1 1099.40   21.40   1
   3   3   2    3.50    0.80   1
  -3  -3  -2    4.00    0.80   1
   3   3   3   24.60    1.20   1
  -3  -3  -3   26.70    1.10   1
   3   3   4  800.30   15.20   1
  -3  -3  -4  821.70   14.00   1
   3   3   5   44.10    2.40   1
  -3  -3  -5   37.60    1.30   1
   3   3   6   86.10    3.20   1
  -3  -3  -6   84.10    2.10   1
   3   3   7  382.10    9.70   1
  -3  -3  -7  371.70    6.80   1
   3   3   8  268.70    7.60   1
  -3  -3  -8  264.60    5.30   1
   3   3   9   -1.70    1.80   1
  -3  -3  -9    0.20    1.00   1
   3   3  10    2.60    1.80   1
  -3  -3 -10    4.80    1.40   1
   3   3  11    0.90    1.90   1
  -3  -3 -11    0.90    1.40   1
  -3  -3 -12   18.50    2.10   1
  -3  -3 -13   16.80    2.50   1
  -3  -3 -14    1.50    2.60   1
  -3  -3 -15   86.00    5.00   1
  -3  -3 -16   -2.00    2.80   1
  -3  -3 -17   10.50    3.20   1
   3   4 -13    5.20    2.60   1
   3   4 -12   16.30    4.50   1
   3   4 -11   22.70    4.10   1
   3   4 -10   58.30    2.50   1
   3   4  -9    8.90    1.30   1
   3   4  -8   47.20    2.00   1
  -3  -4   8   46.40    4.40   1
   3   4  -7  334.20    7.80   1
  -3  -4   7  344.80   13.70   1
   3   4  -6    4.30    0.80   1
  -3  -4   6    2.70    2.30   1
   3   4  -5  191.70    4.60   1
  -3  -4   5  198.80    5.50   1
   3   4  -4   90.10    2.70   1
  -3  -4   4   89.30    3.00   1
   3   4  -3  147.40    3.70   1
  -3  -4   3  144.70    4.20   1
   3   4  -2  695.50   18.70   1
  -3  -4   2  658.80   13.00   1
   3   4  -1    9.50    1.30   1
  -3  -4   1   11.10    0.80   1
   3   4   0    1.10    1.10   1
  -3  -4   0    1.70    0.60   1
   3   4   1  153.80    3.70   1
  -3  -4  -1  142.50    4.60   1
   3   4   2   29.10    1.30   1
  -3  -4  -2   28.60    1.50   1
   3   4   3    4.50    0.80   1
  -3  -4  -3    0.10    1.30   1
   3   4   4   91.90    2.50   1
  -3  -4  -4   97.40    3.40   1
   3   4   5  150.90    4.70   1
  -3  -4  -5  149.00    4.80   1
   3   4   6   28.40    2.20   1
  -3  -4  -6   24.00    1.30   1
   3   4   7  429.50   11.50   1
  -3  -4  -7  427.10    9.50   1
   3   4   8   57.40    2.80   1
  -3  -4  -8   57.50    2.00   1
   3   4   9  102.60    4.50   1
  -3  -4  -9  101.60    2.90   1
   3   4  10  652.00   19.10   1
  -3  -4 -10  694.80   13.70   1
   3   4  11  157.00    8.80   1
  -3  -4 -11  163.40    4.30   1
  -3  -4 -12    4.40    1.40   1
  -3  -4 -13    2.30    1.50   1
  -3  -4 -14   -2.40    2.70   1
  -3  -4 -15   22.50    3.10   1
  -3  -4 -16   12.00    3.10   1
  -3  -4 -17   -1.00    2.90   1
   3   5 -12   21.60    4.20   1
   3   5 -11   26.30    3.90   1
   3   5 -10   31.60    4.60   1
   3   5  -9   23.30    4.40   1
   3   5  -8   32.00    1.80   1
   3   5  -7  262.00    6.50   1
  -3  -5   7  258.60   11.60   1
   3   5  -6  162.50    5.70   1
  -3  -5   6  151.20    4.60   1
   3   5  -5  294.80    7.70   1
  -3  -5   5  289.80    8.40   1
   3   5  -4    2.80    1.10   1
  -3  -5   4    0.80    1.00   1
   3   5  -3    4.40    1.20   1
  -3  -5   3    4.40    1.00   1
   3   5  -2   10.70    1.10   1
  -3  -5   2   11.20    1.00   1
   3   5  -1   76.80    3.30   1
  -3  -5   1   80.40    2.40   1
   3   5   0  459.50   12.70   1
  -3  -5   0  449.20    9.70   1
   3   5   1  100.70    2.90   1
  -3  -5  -1   93.60    2.90   1
   3   5   2  124.10    3.40   1
  -3  -5  -2  116.10    4.20   1
   3   5   3    1.40    0.80   1
  -3  -5  -3    2.60    1.40   1
   3   5   4   16.00    1.20   1
  -3  -5  -4   16.40    1.70   1
   3   5   5  136.90    4.80   1
  -3  -5  -5  137.50    5.20   1
   3   5   6  142.00    5.20   1
  -3  -5  -6  151.40    5.50   1
   3   5   7    0.50    1.80   1
  -3  -5  -7    0.80    1.50   1
   3   5   8    0.50    1.90   1
  -3  -5  -8    1.60    0.70   1
   3   5   9   17.70    2.50   1
  -3  -5  -9   15.90    1.20   1
   3   5  10   50.60    5.00   1
  -3  -5 -10   64.30    2.80   1
  -3  -5 -11    4.30    1.30   1
  -3  -5 -12   16.40    1.60   1
  -3  -5 -13   -1.60    1.20   1
  -3  -5 -14    8.50    2.20   1
  -3  -5 -15   -2.00    2.80   1
  -3  -5 -16    0.60    3.60   1
  -3  -5 -17   24.10    4.10   1
   3   6 -10    9.80    4.80   1
   3   6  -9    4.70    4.20   1
   3   6  -8  192.40   11.40   1
   3   6  -7  133.40    7.70   1
  -3  -6   7  135.80    7.10   1
   3   6  -6  116.60    6.60   1
  -3  -6   6  115.20    5.50   1
   3   6  -5    7.50    2.90   1
  -3  -6   5    7.10    1.30   1
   3   6  -4    8.80    1.70   1
  -3  -6   4    8.40    1.30   1
   3   6  -3   40.70    2.20   1
  -3  -6   3   40.10    2.50   1
   3   6  -2    2.80    1.30   1
  -3  -6   2    2.80    0.90   1
   3   6  -1    4.40    1.80   1
  -3  -6   1    5.00    1.50   1
   3   6   0   89.60    4.30   1
  -3  -6   0   96.70    2.90   1
   3   6   1  241.30    6.60   1
  -3  -6  -1  247.20    6.30   1
   3   6   2   17.40    1.40   1
  -3  -6  -2   17.60    1.70   1
   3   6   3   28.70    1.60   1
  -3  -6  -3   30.50    2.20   1
   3   6   4  399.60    9.40   1
  -3  -6  -4  402.70   12.20   1
   3   6   5  558.40   16.50   1
  -3  -6  -5  557.60   15.90   1
   3   6   6  419.50   13.10   1
  -3  -6  -6  438.10   12.90   1
   3   6   7   10.40    2.00   1
  -3  -6  -7   10.40    2.00   1
  -3  -6  -8   13.30    2.00   1
  -3  -6  -9    5.60    2.20   1
  -3  -6 -10   -1.80    1.80   1
  -3  -6 -11    1.10    1.00   1
  -3  -6 -12   51.30    2.60   1
  -3  -6 -13   62.20    4.40   1
  -3  -6 -14   -1.00    2.60   1
  -3  -6 -15   11.00    3.60   1
  -3  -6 -16   37.80    4.30   1
   3   7  -8   -2.70    3.10   1
   3   7  -7   18.10    3.90   1
   3   7  -6   61.90    5.80   1
   3   7  -5  108.00    7.70   1
  -3  -7   5   97.10    6.10   1
   3   7  -4   28.30    4.70   1
  -3  -7   4   24.80    2.50   1
   3   7  -3   -4.30    2.30   1
  -3  -7   3   -1.70    1.10   1
   3   7  -2   41.70    4.10   1
  -3  -7   2   27.30    2.60   1
   3   7  -1    0.70    3.20   1
  -3  -7   1    1.00    1.60   1
  -3  -7   0    2.30    1.10   1
   3   7   1   37.60    3.20   1
  -3  -7  -1   39.40    2.30   1
   3   7   2   83.50    4.50   1
  -3  -7  -2   76.70    3.50   1
   3   7   3   44.20    3.20   1
  -3  -7  -3   51.70    3.10   1
   3   7   4   38.10    2.30   1
  -3  -7  -4   36.50    2.50   1
  -3  -7  -5    1.10    2.10   1
  -3  -7  -6   51.90    3.20   1
  -3  -7  -7  121.20    5.30   1
  -3  -7  -8    7.70    2.80   1
  -3  -7  -9    1.50    2.10   1
  -3  -7 -10   10.10    2.50   1
  -3  -7 -11   -4.60    4.00   1
  -3  -7 -12   -5.20    2.60   1
  -3  -7 -13    0.30    2.50   1
  -3  -7 -14    1.00    3.20   1
  -3  -7 -15    5.00    3.10   1
   3   8  -5   34.30    6.20   1
   3   8  -4   -0.40    4.90   1
   3   8  -3   -0.40    2.90   1
   3   8  -2    4.30    3.10   1
  -3  -8   2   -0.40    1.40   1
   3   8  -1   -3.30    3.10   1
  -3  -8   1   -0.30    1.30   1
   3   8   0    1.70    2.90   1
  -3  -8   0    1.90    1.50   1
   3   8   1    2.50    1.80   1
  -3  -8  -1    1.50    1.40   1
   3   8   2   14.60    1.90   1
  -3  -8  -2    8.70    1.90   1
  -3  -8  -3   -0.70    1.40   1
  -3  -8  -4   31.40    2.80   1
  -3  -8  -5   30.30    2.60   1
  -3  -8  -6   96.80    5.00   1
  -3  -8  -7   81.10    5.10   1
  -3  -8  -8   11.30    2.70   1
  -3  -8  -9   31.60    3.70   1
  -3  -8 -10    5.60    2.70   1
  -3  -8 -11    2.00    3.00   1
  -3  -8 -12   -2.70    3.00   1
  -3  -8 -13   -5.90    2.90   1
   3   9   0   -1.70    3.40   1
   3   9   1    5.20    3.40   1
  -3  -9  -1    5.50    3.90   1
  -3  -9  -2   11.10    2.80   1
  -3  -9  -3   -0.80    2.20   1
  -3  -9  -4   19.70    2.60   1
  -3  -9  -5    3.10    2.00   1
  -3  -9  -6    2.20    2.20   1
  -3  -9  -7   -0.50    2.30   1
  -3  -9  -8    2.50    2.30   1
  -3  -9  -9    6.00    2.90   1
   4  -8  -9   -0.30    2.30   1
   4  -8  -8   -0.80    3.70   1
  -4   8   8    0.60    4.50   1
   4  -8  -7   -4.80    3.40   1
  -4   8   7   -0.30    3.00   1
   4  -8  -6   -2.20    5.10   1
  -4   8   6    2.30    3.10   1
   4  -8  -5   26.60    4.50   1
  -4   8   5   41.70    6.00   1
   4  -8  -4   59.10    7.30   1
  -4   8   4   71.60    6.10   1
   4  -8  -3   13.20    4.20   1
  -4   8   3   21.40    5.20   1
   4  -8  -2    2.60    4.90   1
  -4   8   2    0.20    3.20   1
   4  -8  -1   12.00    3.90   1
  -4   8   1    8.20    3.50   1
   4  -8   0   -5.50    3.40   1
  -4   8   0    5.20    3.60   1
   4  -8   1    4.00    3.60   1
  -4   8  -1    1.70    4.10   1
   4  -7 -12    1.60    2.90   1
   4  -7 -11    8.20    2.40   1
   4  -7 -10    5.20    2.50   1
   4  -7  -9    0.40    2.10   1
   4  -7  -8    4.20    2.10   1
   4  -7  -7   10.40    2.10   1
  -4   7   7    5.10    2.80   1
   4  -7  -6   10.00    3.20   1
  -4   7   6    7.20    2.50   1
   4  -7  -5   87.50    6.70   1
  -4   7   5   75.30    5.70   1
   4  -7  -4   31.50    4.30   1
  -4   7   4   36.50    4.20   1
  -4   7   3   22.00    2.20   1
  -4   7   2  166.00    6.10   1
   4  -7  -1   91.60    7.40   1
  -4   7   1   84.60    4.40   1
   4  -7   0   -1.10    3.00   1
  -4   7   0   -1.30    1.60   1
   4  -7   1    3.70    3.50   1
  -4   7  -1   10.60    3.40   1
   4  -7   2    9.30    4.70   1
  -4   7  -2   -2.40    3.30   1
   4  -7   3    2.90    3.40   1
  -4   7  -3    7.70    5.30   1
   4  -7   4   26.00    4.60   1
  -4   7  -4   27.20    4.80   1
   4  -7   5   10.70    4.10   1
  -4   7  -5   23.90    6.30   1
   4  -6 -14   17.10    2.90   1
   4  -6 -13    0.70    2.00   1
   4  -6 -12   26.50    1.70   1
   4  -6 -11   44.60    2.10   1
   4  -6 -10   56.80    2.60   1
  -4   6  10   51.10    3.00   1
   4  -6  -9  120.30    5.40   1
  -4   6   9  105.90    4.60   1
   4  -6  -8   34.00    2.60   1
  -4   6   8   34.00    2.60   1
   4  -6  -7   11.00    2.20   1
  -4   6   7   11.80    1.90   1
   4  -6  -6  111.50    4.70   1
  -4   6   6  112.10    4.00   1
   4  -6  -5    3.60    3.50   1
  -4   6   5    0.90    1.20   1
   4  -6  -4   36.30    4.10   1
  -4   6   4   29.20    2.10   1
   4  -6  -3   25.40    3.50   1
  -4   6   3   24.30    1.50   1
   4  -6  -2   21.80    3.50   1
  -4   6   2   20.80    1.60   1
   4  -6  -1  255.40   12.70   1
  -4   6   1  227.00    6.70   1
   4  -6   0    0.90    2.60   1
  -4   6   0    4.40    1.40   1
   4  -6   1  225.00   10.60   1
  -4   6  -1  198.30    7.00   1
   4  -6   2   25.50    3.80   1
  -4   6  -2   22.80    2.30   1
   4  -6   3   32.50    4.50   1
  -4   6  -3   28.50    4.20   1
   4  -6   4   76.50    5.70   1
  -4   6  -4   82.60    6.50   1
   4  -6   5   12.60    3.70   1
  -4   6  -5   22.30    4.50   1
   4  -6   6   69.50    7.20   1
  -4   6  -6   66.60    7.10   1
   4  -6   7    1.60    4.70   1
  -4   6  -7    1.30    3.40   1
   4  -6   8    3.40    3.70   1
  -4   6  -8    8.90    4.70   1
   4  -5 -15   -1.20    1.60   1
   4  -5 -14    0.10    1.30   1
   4  -5 -13    3.70    1.30   1
   4  -5 -12  207.50    6.40   1
  -4   5  12  160.00    6.50   1
   4  -5 -11  268.70    7.00   1
  -4   5  11  238.90    7.90   1
   4  -5 -10   45.90    2.00   1
  -4   5  10   39.30    2.50   1
   4  -5  -9    5.80    1.20   1
  -4   5   9    6.60    1.70   1
   4  -5  -8    2.60    1.00   1
  -4   5   8    2.10    1.30   1
   4  -5  -7   13.70    1.20   1
  -4   5   7   15.70    2.00   1
   4  -5  -6   34.10    2.20   1
  -4   5   6   38.50    2.30   1
   4  -5  -5   56.70    4.10   1
  -4   5   5   52.70    2.20   1
   4  -5  -4   40.80    3.50   1
  -4   5   4   38.50    2.00   1
   4  -5  -3    4.50    2.30   1
  -4   5   3    0.90    0.90   1
   4  -5  -2   49.40    3.90   1
  -4   5   2   43.50    1.70   1
   4  -5  -1   93.40    5.60   1
  -4   5   1   96.00    2.80   1
   4  -5   0 1055.10   37.80   1
  -4   5   0 1044.00   19.40   1
   4  -5   1  818.10   29.80   1
  -4   5  -1  820.20   15.40   1
   4  -5   2  480.50   18.20   1
  -4   5  -2  452.00   10.90   1
   4  -5   3   26.30    4.60   1
  -4   5  -3   21.60    2.50   1
   4  -5   4  203.70   10.00   1
  -4   5  -4  189.00    7.20   1
   4  -5   5   36.00    4.20   1
  -4   5  -5   44.50    5.20   1
   4  -5   6   -2.60    2.50   1
  -4   5  -6    4.90    3.20   1
   4  -5   7    3.80    4.20   1
  -4   5  -7    6.10    4.60   1
   4  -5   8   -2.10    4.40   1
  -4   5  -8    0.10    3.30   1
   4  -5   9    1.30    3.50   1
  -4   5  -9    6.60    3.80   1
   4  -5  10    9.40    3.60   1
  -4   5 -10   20.00    6.30   1
   4  -4 -16    3.60    3.40   1
   4  -4 -15    1.30    1.40   1
   4  -4 -14   33.60    2.20   1
   4  -4 -13   16.30    1.60   1
  -4   4  13   20.80    2.50   1
   4  -4 -12   28.10    1.70   1
  -4   4  12   26.10    2.20   1
   4  -4 -11  153.40    4.60   1
  -4   4  11  143.80    5.30   1
   4  -4 -10    9.20    1.30   1
  -4   4  10    9.40    1.90   1
   4  -4  -9  901.30   19.40   1
  -4   4   9  901.80   24.60   1
   4  -4  -8 1308.50   22.60   1
  -4   4   8 1265.40   32.60   1
   4  -4  -7  111.60    3.40   1
  -4   4   7  114.40    4.10   1
   4  -4  -6   31.60    1.70   1
  -4   4   6   30.40    1.70   1
   4  -4  -5  133.90    3.70   1
  -4   4   5  135.40    3.60   1
   4  -4  -4   68.50    4.50   1
  -4   4   4   55.40    2.00   1
   4  -4  -3   50.80    3.60   1
  -4   4   3   57.70    1.80   1
   4  -4  -2   25.50    2.70   1
  -4   4   2   24.60    1.20   1
   4  -4  -1   66.40    4.60   1
  -4   4   1   63.70    1.80   1
   4  -4   0   95.60    5.20   1
  -4   4   0   93.60    2.20   1
   4  -4   1   -2.20    2.10   1
  -4   4  -1   -0.50    1.00   1
   4  -4   2   19.90    3.50   1
  -4   4  -2    8.80    1.30   1
   4  -4   3 1393.40   46.90   1
  -4   4  -3 1436.30   25.10   1
   4  -4   4 1593.20   55.20   1
  -4   4  -4 1595.70   28.20   1
   4  -4   5  155.60    5.80   1
  -4   4  -5  152.00    5.60   1
   4  -4   6  181.00    8.60   1
  -4   4  -6  163.60    7.80   1
   4  -4   7   78.80    3.00   1
  -4   4  -7   84.40    5.80   1
   4  -4   8   41.20    4.70   1
  -4   4  -8   40.50    4.70   1
   4  -4   9   36.40    4.30   1
  -4   4  -9   35.10    5.50   1
   4  -4  10   -0.40    3.00   1
  -4   4 -10    2.50    3.90   1
   4  -4  11    2.20    5.00   1
  -4   4 -11    1.20    2.90   1
   4  -4  12   52.40    5.70   1
  -4   4 -12   60.70    5.10   1
   4  -3 -16    1.90    2.50   1
   4  -3 -15   22.80    2.30   1
   4  -3 -14    3.10    1.20   1
   4  -3 -13   95.00    4.00   1
  -4   3  13   88.20    4.90   1
   4  -3 -12   39.70    2.30   1
  -4   3  12   41.90    2.20   1
   4  -3 -11  222.30    5.90   1
  -4   3  11  229.70    7.40   1
   4  -3 -10  241.70    6.00   1
  -4   3  10  240.70    7.70   1
   4  -3  -9  277.10    6.40   1
  -4   3   9  287.40   11.50   1
   4  -3  -8  379.80    8.40   1
  -4   3   8  395.70   10.40   1
   4  -3  -7  125.70    2.90   1
  -4   3   7  122.30    4.20   1
   4  -3  -6  399.90    8.60   1
  -4   3   6  399.90   10.30   1
   4  -3  -5   36.10    1.50   1
  -4   3   5   36.90    1.30   1
   4  -3  -4    3.10    1.70   1
  -4   3   4    3.30    0.70   1
   4  -3  -3  128.70    4.20   1
  -4   3   3  124.40    2.70   1
   4  -3  -2  208.50    8.00   1
  -4   3   2  200.90    3.90   1
   4  -3  -1    6.00    2.00   1
  -4   3   1    5.90    0.70   1
   4  -3   0  374.30   14.30   1
  -4   3   0  359.20    6.50   1
   4  -3   1 1307.90   43.10   1
  -4   3  -1 1341.80   22.50   1
   4  -3   2    6.70    1.50   1
  -4   3  -2    4.90    1.00   1
   4  -3   3 1685.60   39.10   1
  -4   3  -3 1657.90   32.00   1
   4  -3   4 1157.10   27.80   1
  -4   3  -4 1165.60   23.00   1
   4  -3   5  170.90    5.70   1
  -4   3  -5  167.00    5.90   1
   4  -3   6  114.30    4.30   1
  -4   3  -6  122.00    4.80   1
   4  -3   7  308.20    9.60   1
  -4   3  -7  303.10   12.80   1
   4  -3   8   -3.60    2.50   1
  -4   3  -8   -0.50    2.80   1
   4  -3   9    9.90    3.00   1
  -4   3  -9    5.80    3.20   1
   4  -3  10   57.80    5.10   1
  -4   3 -10   55.30    4.00   1
   4  -3  11   -2.70    4.20   1
  -4   3 -11    1.00    2.40   1
   4  -3  12    2.50    3.60   1
  -4   3 -12   -2.30    2.60   1
   4  -3  13   41.20    5.70   1
  -4   3 -13   41.20    4.20   1
   4  -2 -16   42.00    3.30   1
   4  -2 -15   -2.50    1.20   1
   4  -2 -14    2.60    1.40   1
   4  -2 -13   20.00    1.70   1
  -4   2  13   20.40    2.70   1
   4  -2 -12    5.30    1.40   1
  -4   2  12    8.00    2.20   1
   4  -2 -11  338.40    9.40   1
  -4   2  11  333.60   13.00   1
   4  -2 -10   46.70    2.10   1
  -4   2  10   51.90    3.00   1
   4  -2  -9 1284.60   31.10   1
  -4   2   9 1341.80   31.50   1
   4  -2  -8   26.30    1.30   1
  -4   2   8   30.80    1.40   1
   4  -2  -7    2.20    0.60   1
  -4   2   7    2.40    0.90   1
   4  -2  -6  329.10    6.10   1
  -4   2   6  335.60    8.40   1
   4  -2  -5   77.70    2.90   1
  -4   2   5   79.30    1.90   1
   4  -2  -4  641.40   16.60   1
  -4   2   4  626.80   12.30   1
   4  -2  -3 1029.30   24.40   1
  -4   2   3 1024.50   19.70   1
   4  -2  -2 1097.50   25.50   1
  -4   2   2 1094.50   18.40   1
   4  -2  -1  174.40    5.20   1
  -4   2   1  169.50    3.10   1
   4  -2   0    0.00    1.50   1
  -4   2   0    0.10    0.70   1
   4  -2   1  846.30   20.10   1
  -4   2  -1  861.30   16.50   1
   4  -2   2 1248.40   29.00   1
  -4   2  -2 1247.30   24.10   1
   4  -2   3  405.90   10.30   1
  -4   2  -3  400.20    8.70   1
   4  -2   4  452.90   11.80   1
  -4   2  -4  444.50    9.60   1
   4  -2   5 1069.10   20.90   1
  -4   2  -5 1116.20   22.10   1
   4  -2   6   65.30    2.90   1
  -4   2  -6   61.80    3.20   1
   4  -2   7   28.70    2.30   1
  -4   2  -7   27.90    1.90   1
   4  -2   8   -1.60    2.10   1
  -4   2  -8    5.60    1.70   1
   4  -2   9  773.60   29.20   1
  -4   2  -9  739.50   20.00   1
   4  -2  10  530.70   20.00   1
  -4   2 -10  469.60   13.80   1
   4  -2  11    5.00    3.00   1
  -4   2 -11    8.70    2.50   1
   4  -2  12    2.90    4.20   1
  -4   2 -12    2.60    2.40   1
   4  -2  13   18.30    4.40   1
  -4   2 -13   19.80    3.10   1
   4  -2  14   33.30    6.30   1
  -4   2 -14   24.10    3.40   1
   4  -1 -16    1.00    2.00   1
   4  -1 -15   26.60    2.00   1
   4  -1 -14    8.90    1.30   1
   4  -1 -13   42.90    1.80   1
  -4   1  13   38.70    3.40   1
   4  -1 -12  202.50    5.10   1
  -4   1  12  194.00    8.30   1
   4  -1 -11  106.80    3.20   1
  -4   1  11  121.30    5.70   1
   4  -1 -10    1.60    0.90   1
  -4   1  10    1.00    0.90   1
   4  -1  -9  114.40    3.40   1
  -4   1   9  114.10    4.70   1
   4  -1  -8  202.80    5.30   1
  -4   1   8  187.00    6.90   1
   4  -1  -7  628.20   15.60   1
  -4   1   7  623.50   20.20   1
   4  -1  -6  253.60    5.20   1
  -4   1   6  258.90    8.70   1
   4  -1  -5    2.00    1.30   1
   4  -1  -4   94.50    2.90   1
   4  -1  -3   18.60    1.30   1
  -4   1   3   17.60    0.50   1
   4  -1  -2 1189.90   27.70   1
  -4   1   2 1179.70   22.20   1
   4  -1  -1 3219.40   72.40   1
  -4   1   1 3155.30   72.40   1
   4  -1   0 1177.30   22.60   1
  -4   1   0 1196.70   22.80   1
   4  -1   1  294.10    7.40   1
  -4   1  -1  294.20    6.30   1
   4  -1   2  271.90    5.60   1
  -4   1  -2  269.90    5.60   1
   4  -1   3  435.20    8.60   1
  -4   1  -3  452.00    8.20   1
   4  -1   4  637.00   12.80   1
  -4   1  -4  639.20   11.30   1
   4  -1   5  353.10    7.10   1
  -4   1  -5  357.30    6.90   1
   4  -1   6   90.20    3.40   1
  -4   1  -6   90.90    2.80   1
   4  -1   7  454.30   11.70   1
  -4   1  -7  463.40   10.60   1
   4  -1   8    1.70    2.40   1
  -4   1  -8    0.00    1.30   1
   4  -1   9   67.10    3.30   1
  -4   1  -9   71.90    2.90   1
   4  -1  10   31.40    3.80   1
  -4   1 -10   12.30    2.20   1
   4  -1  11   57.00    4.60   1
  -4   1 -11   48.40    3.30   1
   4  -1  12    3.70    4.30   1
  -4   1 -12    3.50    2.50   1
  -4   1 -13   -2.50    2.80   1
  -4   1 -14   36.40    4.00   1
  -4   1 -15  102.90    6.00   1
   4   0 -16    4.10    2.10   1
   4   0 -15    1.10    1.90   1
   4   0 -14    0.10    1.10   1
   4   0 -13    7.30    1.20   1
  -4   0  13   10.70    2.40   1
   4   0 -12   25.30    1.40   1
  -4   0  12   26.90    2.80   1
   4   0 -11  587.50   11.30   1
  -4   0  11  632.00   22.30   1
   4   0 -10    1.50    0.80   1
  -4   0  10    5.40    1.10   1
   4   0  -9   -0.60    0.70   1
  -4   0   9    0.80    0.80   1
   4   0  -8  139.40    3.30   1
  -4   0   8  140.70    5.40   1
   4   0  -7  100.50    2.10   1
   4   0  -6  792.40   18.90   1
   4   0  -5    3.50    0.40   1
   4   0  -4  424.90    8.80   1
   4   0  -3  147.20    3.40   1
   4   0  -2  502.10   10.20   1
   4   0  -1   19.30    0.80   1
  -4   0   1   20.30    0.90   1
   4   0   0 2791.80   51.40   1
  -4   0   0 2829.90   89.20   1
   4   0   1 3890.70  125.00   1
  -4   0  -1 3984.60  129.90   1
   4   0   2  618.10   10.50   1
  -4   0  -2  628.00   10.80   1
   4   0   3   34.90    1.30   1
  -4   0  -3   37.60    1.30   1
   4   0   4    0.60    0.80   1
  -4   0  -4   -0.10    0.70   1
   4   0   5   50.60    2.40   1
  -4   0  -5   44.70    1.60   1
   4   0   6  368.70   10.10   1
  -4   0  -6  367.60    6.80   1
   4   0   7   42.60    2.30   1
  -4   0  -7   42.80    2.20   1
   4   0   8   -0.90    1.40   1
  -4   0  -8   -0.20    1.20   1
   4   0   9   -1.50    1.60   1
  -4   0  -9    2.10    1.40   1
   4   0  10   21.80    2.60   1
  -4   0 -10   25.20    2.00   1
   4   0  11   51.20    4.10   1
  -4   0 -11   54.30    3.40   1
  -4   0 -12  855.00   23.40   1
  -4   0 -13   12.50    3.00   1
  -4   0 -14   49.00    6.60   1
  -4   0 -15   60.80    4.20   1
  -4   0 -16    7.20    3.70   1
   4   1 -15   -1.20    2.00   1
   4   1 -14   -0.50    1.30   1
   4   1 -13    4.20    1.10   1
  -4  -1  13    6.80    2.60   1
   4   1 -12   75.70    2.40   1
  -4  -1  12   70.70    4.20   1
   4   1 -11   95.40    3.00   1
  -4  -1  11   97.80    5.10   1
   4   1 -10   27.50    1.20   1
  -4  -1  10   31.80    2.50   1
   4   1  -9  187.30    3.60   1
   4   1  -8    2.20    0.60   1
   4   1  -7  760.80   11.70   1
   4   1  -6    8.90    0.50   1
   4   1  -5  101.40    1.80   1
   4   1  -4   51.60    0.90   1
   4   1  -3  131.00    2.10   1
   4   1  -2   74.30    1.40   1
  -4  -1   2   73.70    2.80   1
   4   1  -1   25.10    0.70   1
  -4  -1   1   26.40    1.00   1
   4   1   0  554.60    8.50   1
  -4  -1   0  542.80    9.10   1
   4   1   1 2276.70   36.30   1
  -4  -1  -1 2280.60   32.40   1
   4   1   2 2123.00   30.60   1
  -4  -1  -2 2157.00   30.70   1
   4   1   3  335.80    6.00   1
  -4  -1  -3  338.30    5.50   1
   4   1   4    2.50    0.80   1
  -4  -1  -4    3.20    0.70   1
   4   1   5   -0.50    0.90   1
  -4  -1  -5   -1.00    0.60   1
   4   1   6  146.00    4.30   1
  -4  -1  -6  145.20    2.80   1
   4   1   7   33.10    2.00   1
  -4  -1  -7   30.40    1.10   1
   4   1   8    7.40    1.70   1
  -4  -1  -8    5.10    0.80   1
   4   1   9   51.40    4.40   1
  -4  -1  -9   50.60    1.70   1
   4   1  10    3.90    3.80   1
  -4  -1 -10   -0.40    0.50   1
  -4  -1 -11    0.50    1.80   1
  -4  -1 -12  129.20    5.80   1
  -4  -1 -13   26.70    2.80   1
  -4  -1 -14   24.80    3.20   1
  -4  -1 -15    3.70    2.70   1
  -4  -1 -16    7.50    3.10   1
   4   2 -15    9.60    2.40   1
   4   2 -14   -0.90    1.70   1
   4   2 -13   -0.10    1.40   1
   4   2 -12    0.50    0.90   1
   4   2 -11   82.80    2.20   1
   4   2 -10    3.60    0.80   1
   4   2  -9   74.90    1.90   1
   4   2  -8    5.50    0.70   1
   4   2  -7    2.90    0.60   1
   4   2  -6   40.10    1.10   1
   4   2  -5   21.90    1.00   1
   4   2  -4   -0.20    0.40   1
  -4  -2   4    1.20    2.10   1
   4   2  -3  220.30    4.20   1
  -4  -2   3  231.20    9.10   1
   4   2  -2   65.40    1.70   1
  -4  -2   2   67.00    2.40   1
   4   2  -1  189.00    3.60   1
  -4  -2   1  185.70    5.00   1
   4   2   0  381.00    6.90   1
  -4  -2   0  374.50    6.80   1
   4   2   1  195.90    3.80   1
  -4  -2  -1  188.90    3.60   1
   4   2   2 2129.10   39.70   1
  -4  -2  -2 2121.00   34.50   1
   4   2   3   56.00    1.90   1
  -4  -2  -3   57.30    1.40   1
   4   2   4  504.10   12.20   1
  -4  -2  -4  499.80    7.80   1
   4   2   5    2.60    1.30   1
  -4  -2  -5    2.20    0.70   1
   4   2   6  115.60    3.80   1
  -4  -2  -6  114.80    2.40   1
   4   2   7   72.50    3.10   1
  -4  -2  -7   70.80    1.80   1
   4   2   8    8.10    1.70   1
  -4  -2  -8    8.80    0.90   1
   4   2   9    8.00    2.10   1
  -4  -2  -9    4.10    0.90   1
   4   2  10   18.00    2.20   1
  -4  -2 -10   24.50    1.30   1
  -4  -2 -11   42.30    1.80   1
  -4  -2 -12   61.20    2.50   1
  -4  -2 -13    7.30    1.10   1
  -4  -2 -14  387.60   12.50   1
  -4  -2 -15    0.40    3.20   1
  -4  -2 -16    0.30    2.90   1
  -4  -2 -17   -0.10    2.90   1
   4   3 -14    2.40    2.20   1
   4   3 -13   37.40    2.50   1
   4   3 -12   40.40    2.40   1
   4   3 -11    1.20    1.20   1
   4   3 -10   23.80    1.50   1
   4   3  -9  402.10    8.90   1
   4   3  -8   48.20    1.50   1
   4   3  -7   15.30    0.80   1
   4   3  -6   40.40    1.80   1
  -4  -3   6   45.60    4.50   1
   4   3  -5  187.30    4.00   1
  -4  -3   5  196.20    9.00   1
   4   3  -4  207.70    4.30   1
  -4  -3   4  194.60    8.70   1
   4   3  -3  177.30    3.70   1
  -4  -3   3  186.80    8.40   1
   4   3  -2  111.40    2.90   1
  -4  -3   2  113.70    3.40   1
   4   3  -1    7.70    0.80   1
  -4  -3   1   14.00    1.10   1
   4   3   0  477.00    9.90   1
  -4  -3   0  470.50    9.40   1
   4   3   1   52.50    1.70   1
  -4  -3  -1   56.20    1.60   1
   4   3   2  538.80   10.70   1
  -4  -3  -2  515.20    8.90   1
   4   3   3 1542.20   29.20   1
  -4  -3  -3 1578.40   25.30   1
   4   3   4  625.50   12.40   1
  -4  -3  -4  616.60    9.80   1
   4   3   5    2.90    1.20   1
  -4  -3  -5    3.80    0.90   1
   4   3   6  253.10    7.20   1
  -4  -3  -6  261.80    4.70   1
   4   3   7  145.50    5.00   1
  -4  -3  -7  153.30    3.10   1
   4   3   8    3.80    2.00   1
  -4  -3  -8    3.10    0.90   1
   4   3   9    0.00    2.00   1
  -4  -3  -9    0.80    0.80   1
   4   3  10    0.20    2.00   1
  -4  -3 -10    2.90    1.20   1
   4   3  11   49.10    5.10   1
  -4  -3 -11   53.60    2.30   1
  -4  -3 -12   -0.70    1.50   1
  -4  -3 -13   -1.60    1.60   1
  -4  -3 -14    2.50    2.50   1
  -4  -3 -15   -1.00    2.90   1
  -4  -3 -16   12.60    3.70   1
  -4  -3 -17    0.20    3.10   1
   4   4 -13    6.90    4.60   1
   4   4 -12   14.50    2.30   1
   4   4 -11    6.50    2.60   1
   4   4 -10   15.80    2.20   1
   4   4  -9    0.70    1.40   1
   4   4  -8   18.90    1.10   1
   4   4  -7  389.30   11.20   1
  -4  -4   7  379.40   17.30   1
   4   4  -6    0.80    1.00   1
  -4  -4   6   -2.60    2.50   1
   4   4  -5   46.70    1.90   1
  -4  -4   5   43.70    4.20   1
   4   4  -4    0.20    0.80   1
  -4  -4   4    0.50    2.20   1
   4   4  -3  515.20   11.50   1
  -4  -4   3  523.30   21.00   1
   4   4  -2  273.10    7.80   1
  -4  -4   2  274.90    7.50   1
   4   4  -1   11.40    1.10   1
  -4  -4   1    6.00    1.30   1
   4   4   0  163.50    4.20   1
  -4  -4   0  154.00    3.00   1
   4   4   1   15.10    1.10   1
  -4  -4  -1   14.60    1.00   1
   4   4   2   32.80    1.50   1
  -4  -4  -2   33.40    1.30   1
   4   4   3  142.00    3.70   1
  -4  -4  -3  140.40    3.10   1
   4   4   4  193.00    4.50   1
  -4  -4  -4  185.20    3.80   1
   4   4   5   14.70    1.60   1
  -4  -4  -5   14.90    1.20   1
   4   4   6   31.90    2.40   1
  -4  -4  -6   33.80    1.30   1
   4   4   7   30.50    2.50   1
  -4  -4  -7   23.40    1.40   1
   4   4   8   30.40    2.60   1
  -4  -4  -8   29.30    1.60   1
   4   4   9   99.20    4.80   1
  -4  -4  -9   97.70    2.90   1
   4   4  10  158.60    9.70   1
  -4  -4 -10  168.30    4.60   1
  -4  -4 -11    9.00    1.40   1
  -4  -4 -12   15.70    1.90   1
  -4  -4 -13    2.10    1.60   1
  -4  -4 -14    2.50    1.80   1
  -4  -4 -15   18.00    3.40   1
  -4  -4 -16   19.60    4.00   1
   4   5 -11    4.00    2.60   1
   4   5 -10   22.80    4.40   1
   4   5  -9    1.70    2.40   1
   4   5  -8   53.00    2.80   1
   4   5  -7  131.30    4.20   1
   4   5  -6   26.40    1.80   1
   4   5  -5    8.90    1.50   1
   4   5  -4    6.50    1.10   1
  -4  -5   4   13.00    2.90   1
   4   5  -3    5.20    1.10   1
  -4  -5   3    6.50    2.70   1
   4   5  -2   -0.50    1.00   1
  -4  -5   2    3.40    1.70   1
   4   5  -1   64.50    3.10   1
  -4  -5   1   63.30    2.00   1
   4   5   0    6.60    1.10   1
  -4  -5   0    9.90    0.80   1
   4   5   1    4.90    1.00   1
  -4  -5  -1    3.90    0.80   1
   4   5   2   24.50    1.50   1
  -4  -5  -2   21.10    1.90   1
   4   5   3    3.40    1.00   1
  -4  -5  -3    2.10    1.20   1
   4   5   4    6.00    1.20   1
  -4  -5  -4    5.40    1.50   1
   4   5   5  357.30   10.90   1
  -4  -5  -5  366.40    9.10   1
   4   5   6   51.90    2.80   1
  -4  -5  -6   46.50    2.00   1
   4   5   7    1.10    1.60   1
  -4  -5  -7   -0.70    1.30   1
   4   5   8   -0.90    1.70   1
  -4  -5  -8    0.60    1.00   1
   4   5   9  108.70    7.10   1
  -4  -5  -9  122.50    3.50   1
  -4  -5 -10    1.10    1.10   1
  -4  -5 -11    7.30    1.70   1
  -4  -5 -12   -0.80    1.60   1
  -4  -5 -13    4.60    1.50   1
  -4  -5 -14    2.80    3.10   1
  -4  -5 -15    3.10    3.20   1
  -4  -5 -16    2.50    3.10   1
   4   6  -9   -2.40    2.90   1
   4   6  -8    2.20    2.70   1
   4   6  -7    3.40    3.70   1
   4   6  -6   51.20    4.20   1
   4   6  -5    4.40    2.60   1
   4   6  -4   11.70    1.70   1
   4   6  -3   31.20    2.00   1
  -4  -6   3   28.00    1.70   1
   4   6  -2    2.00    1.20   1
  -4  -6   2    3.20    0.90   1
   4   6  -1  160.10    6.40   1
  -4  -6   1  152.10    5.30   1
   4   6   0   48.90    2.40   1
  -4  -6   0   51.10    2.10   1
   4   6   1    4.80    1.30   1
  -4  -6  -1    2.90    1.00   1
   4   6   2   16.90    1.40   1
  -4  -6  -2   20.10    1.60   1
   4   6   3   39.60    2.00   1
  -4  -6  -3   31.80    1.70   1
   4   6   4    0.70    0.90   1
  -4  -6  -4    0.60    1.60   1
   4   6   5   43.60    3.00   1
  -4  -6  -5   38.50    2.30   1
   4   6   6    7.40    3.50   1
  -4  -6  -6    1.70    2.00   1
  -4  -6  -7   10.60    1.90   1
  -4  -6  -8   11.70    2.40   1
  -4  -6  -9   24.10    2.00   1
  -4  -6 -10   29.30    2.80   1
  -4  -6 -11   29.70    2.00   1
  -4  -6 -12   57.20    3.90   1
  -4  -6 -13    9.10    2.60   1
  -4  -6 -14    0.80    3.10   1
  -4  -6 -15    2.90    3.00   1
   4   7  -7   12.70    3.70   1
   4   7  -6    0.50    3.00   1
   4   7  -5  199.00   12.00   1
   4   7  -4    7.20    2.90   1
   4   7  -3   20.10    3.70   1
   4   7  -2    4.80    3.50   1
  -4  -7   2    3.50    1.10   1
   4   7  -1    9.80    2.80   1
  -4  -7   1    8.00    1.20   1
   4   7   0    2.30    1.50   1
  -4  -7   0    1.00    0.80   1
   4   7   1    2.90    1.50   1
  -4  -7  -1    3.50    1.30   1
   4   7   2   14.70    2.30   1
  -4  -7  -2   18.00    1.80   1
   4   7   3   16.80    2.10   1
  -4  -7  -3   16.70    1.60   1
   4   7   4    6.70    1.60   1
  -4  -7  -4    4.50    1.60   1
  -4  -7  -5   -0.40    2.00   1
  -4  -7  -6    2.80    1.80   1
  -4  -7  -7  125.50    5.50   1
  -4  -7  -8    2.20    2.10   1
  -4  -7  -9    1.90    2.00   1
  -4  -7 -10   -6.60    2.90   1
  -4  -7 -11    8.10    2.90   1
  -4  -7 -12    2.20    2.80   1
  -4  -7 -13    2.00    3.00   1
  -4  -7 -14    1.20    2.90   1
   4   8  -4   18.30    4.20   1
   4   8  -3    5.30    3.40   1
   4   8  -2    5.00    3.10   1
   4   8  -1    8.00    1.90   1
   4   8   0    2.30    1.60   1
  -4  -8   0    0.90    2.70   1
   4   8   1   -2.40    1.60   1
  -4  -8  -1    0.20    1.50   1
  -4  -8  -2    4.60    1.60   1
  -4  -8  -3   26.70    2.50   1
  -4  -8  -4    1.10    1.40   1
  -4  -8  -5    6.80    1.80   1
  -4  -8  -6   80.50    4.70   1
  -4  -8  -7   74.80    4.90   1
  -4  -8  -8    8.10    5.00   1
  -4  -8  -9   -2.40    2.30   1
  -4  -8 -10   -1.20    2.50   1
  -4  -8 -11    5.10    2.70   1
  -4  -8 -12   -0.40    2.90   1
  -4  -9  -2   -9.70    3.70   1
  -4  -9  -3   -1.30    3.10   1
  -4  -9  -4   -3.80    5.20   1
  -4  -9  -5   16.00    4.50   1
  -4  -9  -6    3.70    2.20   1
  -4  -9  -7    1.00    2.50   1
   5  -7 -10    1.10    3.70   1
  -5   7  10    0.30    3.40   1
   5  -7  -9   -3.60    3.50   1
  -5   7   9   -1.00    2.30   1
   5  -7  -8    2.60    3.60   1
  -5   7   8    3.40    2.60   1
   5  -7  -7   -3.30    4.90   1
  -5   7   7    0.80    3.60   1
   5  -7  -6   18.90    4.60   1
  -5   7   6   16.30    3.10   1
   5  -7  -5   14.50    3.70   1
  -5   7   5   23.80    3.70   1
   5  -7  -4    1.60    3.10   1
  -5   7   4   -0.20    3.80   1
   5  -7  -3   -1.20    4.70   1
  -5   7   3    6.70    3.00   1
   5  -7  -2   40.90    5.50   1
  -5   7   2   37.50    4.60   1
   5  -7  -1   39.20    5.20   1
  -5   7   1   36.20    5.00   1
   5  -7   0   66.70    6.20   1
  -5   7   0   63.80    6.20   1
   5  -7   1   -1.10    3.40   1
  -5   7  -1    1.30    4.20   1
   5  -7   2    1.60    3.70   1
  -5   7  -2   -2.90    3.50   1
   5  -7   3    8.70    3.80   1
  -5   7  -3   13.90    4.10   1
   5  -6 -12    4.20    3.60   1
   5  -6 -11   26.40    2.50   1
   5  -6 -10   15.60    1.80   1
   5  -6  -9   -1.80    1.60   1
  -5   6   9   -0.90    2.00   1
   5  -6  -8   10.90    3.30   1
  -5   6   8    9.90    1.40   1
   5  -6  -7    2.10    2.90   1
  -5   6   7    2.50    1.50   1
   5  -6  -6   16.30    4.90   1
  -5   6   6   15.70    1.70   1
   5  -6  -5   10.70    3.10   1
  -5   6   5    5.40    1.60   1
   5  -6  -4   72.60    6.00   1
  -5   6   4   69.10    2.80   1
   5  -6  -3  114.90    7.30   1
  -5   6   3   99.10    3.10   1
   5  -6  -2   57.30    5.10   1
  -5   6   2   48.00    2.50   1
   5  -6  -1   98.50    6.80   1
  -5   6   1   95.50    4.40   1
   5  -6   0   67.10    6.20   1
  -5   6   0   73.70    3.90   1
   5  -6   1    3.80    3.20   1
  -5   6  -1    2.50    3.10   1
   5  -6   2   -5.40    3.00   1
  -5   6  -2   -1.00    3.10   1
   5  -6   3   10.00    3.40   1
  -5   6  -3    7.00    4.70   1
   5  -6   4    3.60    3.60   1
  -5   6  -4   -1.60    2.90   1
   5  -6   5   -0.30    5.10   1
  -5   6  -5   -3.10    3.70   1
   5  -6   6   27.60    4.70   1
  -5   6  -6   42.10    6.50   1
   5  -5 -14    1.40    2.00   1
   5  -5 -13    3.20    2.00   1
   5  -5 -12   59.10    3.00   1
   5  -5 -11  120.10    4.50   1
   5  -5 -10   36.70    2.20   1
  -5   5  10   32.10    3.20   1
   5  -5  -9   18.00    1.50   1
  -5   5   9   13.30    1.60   1
   5  -5  -8    9.80    1.80   1
  -5   5   8   12.60    1.40   1
   5  -5  -7   12.00    2.10   1
  -5   5   7   12.10    1.40   1
   5  -5  -6   35.50    4.00   1
  -5   5   6   36.20    1.90   1
   5  -5  -5    0.40    2.60   1
  -5   5   5    0.20    1.00   1
   5  -5  -4  139.10    7.70   1
  -5   5   4  138.90    4.30   1
   5  -5  -3  128.60    7.50   1
  -5   5   3  126.00    3.70   1
   5  -5  -2  117.80    6.50   1
  -5   5   2  120.60    4.20   1
   5  -5  -1    1.00    2.60   1
  -5   5   1    1.30    1.00   1
   5  -5   0  106.80    6.50   1
  -5   5   0   99.90    3.10   1
   5  -5   1  251.70   11.60   1
  -5   5  -1  246.50    5.60   1
   5  -5   2  275.50   12.50   1
  -5   5  -2  265.50    8.70   1
   5  -5   3    2.30    3.00   1
  -5   5  -3    2.90    2.60   1
   5  -5   4   36.10    4.20   1
  -5   5  -4   34.00    4.70   1
   5  -5   5    7.50    4.40   1
  -5   5  -5   -3.30    3.10   1
   5  -5   6   54.10    5.50   1
  -5   5  -6   55.40    5.60   1
   5  -5   7   19.00    4.10   1
  -5   5  -7   10.20    5.40   1
   5  -5   8  214.10   13.30   1
  -5   5  -8  203.80   14.10   1
   5  -5   9  140.10   10.50   1
  -5   5  -9  140.30   10.30   1
   5  -4 -15    8.70    3.90   1
   5  -4 -14   -0.70    3.30   1
   5  -4 -13   39.20    2.60   1
   5  -4 -12   46.00    2.00   1
   5  -4 -11   15.10    1.30   1
  -5   4  11   10.50    2.10   1
   5  -4 -10    1.80    1.10   1
  -5   4  10    5.30    1.20   1
   5  -4  -9  162.10    4.70   1
  -5   4   9  156.20    5.40   1
   5  -4  -8    0.40    0.90   1
  -5   4   8    1.20    0.80   1
   5  -4  -7  341.80   15.40   1
  -5   4   7  340.10    8.20   1
   5  -4  -6   15.10    1.90   1
  -5   4   6   12.40    1.10   1
   5  -4  -5  132.50    5.20   1
  -5   4   5  136.40    3.80   1
   5  -4  -4  242.60   10.50   1
  -5   4   4  249.60    6.70   1
   5  -4  -3   18.50    2.60   1
  -5   4   3   17.90    1.10   1
   5  -4  -2   13.90    2.50   1
  -5   4   2   11.90    1.00   1
   5  -4  -1  228.20    9.90   1
  -5   4   1  217.20    5.00   1
   5  -4   0    2.60    2.30   1
  -5   4   0   -0.50    0.90   1
   5  -4   1 1009.40   37.10   1
  -5   4  -1  983.60   18.70   1
   5  -4   2  593.90   22.80   1
  -5   4  -2  625.00   13.70   1
   5  -4   3   76.50    4.80   1
  -5   4  -3   76.20    3.00   1
   5  -4   4    2.90    2.60   1
  -5   4  -4    3.30    2.20   1
   5  -4   5  132.50    7.10   1
  -5   4  -5  138.30    8.00   1
   5  -4   6    6.80    3.10   1
  -5   4  -6    7.10    3.00   1
   5  -4   7    1.10    2.70   1
  -5   4  -7    6.90    3.30   1
   5  -4   8   20.10    5.30   1
  -5   4  -8   28.10    4.20   1
   5  -4   9    1.50    3.20   1
   5  -4  10   68.10    7.20   1
  -5   4 -10   64.00    4.90   1
   5  -4  11   13.80    4.60   1
  -5   4 -11    5.10    3.10   1
   5  -3 -15    5.70    2.90   1
   5  -3 -14   -4.60    2.50   1
   5  -3 -13    6.60    1.80   1
   5  -3 -12   19.60    1.50   1
   5  -3 -11   23.80    1.50   1
  -5   3  11   25.00    1.80   1
   5  -3 -10  266.60    5.90   1
  -5   3  10  251.20    7.50   1
   5  -3  -9 1312.40   27.70   1
  -5   3   9 1303.50   33.00   1
   5  -3  -8   88.70    2.90   1
  -5   3   8   92.60    2.70   1
   5  -3  -7   20.50    1.90   1
  -5   3   7   19.60    1.00   1
   5  -3  -6   45.40    2.50   1
  -5   3   6   45.70    1.50   1
   5  -3  -5  103.10    4.10   1
  -5   3   5  111.00    2.90   1
   5  -3  -4   -0.50    1.20   1
  -5   3   4    0.20    0.60   1
   5  -3  -3    1.80    1.50   1
  -5   3   3   -0.10    0.50   1
   5  -3  -2   -0.50    1.80   1
  -5   3   2    2.00    0.70   1
   5  -3  -1   30.00    3.00   1
  -5   3   1   34.50    1.20   1
   5  -3   0  108.50    5.50   1
  -5   3   0   99.10    2.60   1
   5  -3   1    2.50    3.00   1
  -5   3  -1    3.80    1.00   1
   5  -3   2  839.50   29.60   1
  -5   3  -2  862.10   15.50   1
   5  -3   3 2308.50   54.60   1
  -5   3  -3 2362.10   44.90   1
   5  -3   4    1.00    1.90   1
  -5   3  -4    1.00    1.40   1
   5  -3   5    2.40    1.00   1
  -5   3  -5    2.30    1.80   1
   5  -3   6  148.60    5.70   1
  -5   3  -6  155.10    8.20   1
   5  -3   7   74.60    5.40   1
  -5   3  -7   70.50    5.60   1
   5  -3   8   21.80    4.60   1
  -5   3  -8   13.70    2.40   1
   5  -3   9   16.50    3.60   1
  -5   3  -9   19.40    3.20   1
   5  -3  10   51.40    5.30   1
  -5   3 -10   68.80    4.80   1
   5  -3  11    1.60    3.50   1
  -5   3 -11    9.00    3.20   1
   5  -3  12   47.00    6.20   1
  -5   3 -12   37.60    3.80   1
   5  -2 -15   10.10    5.60   1
   5  -2 -14    4.40    3.90   1
   5  -2 -13    2.80    1.80   1
   5  -2 -12   39.30    1.90   1
   5  -2 -11   17.40    1.10   1
  -5   2  11   17.50    1.60   1
   5  -2 -10   11.50    0.90   1
  -5   2  10   13.30    1.40   1
   5  -2  -9   53.40    1.60   1
  -5   2   9   52.30    2.50   1
   5  -2  -8    8.60    1.10   1
  -5   2   8    8.80    0.60   1
   5  -2  -6  847.20   22.70   1
  -5   2   6  865.90   16.50   1
   5  -2  -5  214.00    6.80   1
  -5   2   5  211.80    4.50   1
   5  -2  -4    6.70    1.30   1
  -5   2   4    8.00    0.50   1
   5  -2  -3   11.00    1.60   1
  -5   2   3   17.90    0.80   1
   5  -2  -2   26.60    1.80   1
  -5   2   2   28.20    1.00   1
   5  -2  -1  559.50   14.40   1
  -5   2   1  559.60    8.80   1
   5  -2   0    1.50    2.40   1
  -5   2   0   -0.60    0.80   1
   5  -2   1    1.60    1.10   1
  -5   2  -1   -0.30    1.20   1
   5  -2   2   -0.70    1.10   1
  -5   2  -2    0.80    1.20   1
   5  -2   3  364.20    8.00   1
  -5   2  -3  374.00    8.10   1
   5  -2   4  699.50   14.50   1
  -5   2  -4  714.90   15.00   1
   5  -2   5 1500.30   29.90   1
  -5   2  -5 1512.70   26.80   1
   5  -2   6 1053.50   21.10   1
  -5   2  -6 1076.00   19.40   1
   5  -2   7  208.00    7.00   1
  -5   2  -7  217.40    7.20   1
   5  -2   8    8.10    2.90   1
  -5   2  -8    7.70    2.20   1
   5  -2   9    8.00    3.00   1
  -5   2  -9   13.70    2.30   1
   5  -2  10    3.30    3.00   1
  -5   2 -10   -0.90    2.50   1
   5  -2  11   59.50    5.40   1
  -5   2 -11   46.60    3.80   1
   5  -2  12   44.90    5.40   1
  -5   2 -12   42.20    4.00   1
   5  -2  13    6.10    4.10   1
  -5   2 -13    8.30    3.20   1
   5  -1 -15    5.10    4.00   1
   5  -1 -14   18.50    4.60   1
   5  -1 -13    6.30    1.70   1
   5  -1 -12   16.90    1.20   1
   5  -1 -11   69.60    2.40   1
   5  -1 -10    0.40    0.50   1
  -5   1  10    0.10    0.50   1
   5  -1  -9   88.10    3.20   1
   5  -1  -8  466.30    8.90   1
   5  -1  -7 1541.00   30.80   1
   5  -1  -6   34.00    1.80   1
   5  -1  -5  322.40    7.00   1
   5  -1  -4  199.70    4.70   1
   5  -1  -3    5.30    1.10   1
   5  -1  -2  456.40    9.60   1
  -5   1   2  458.10   10.70   1
   5  -1  -1  210.30    4.90   1
  -5   1   1  214.40    3.20   1
   5  -1   0   99.00    2.30   1
  -5   1   0   98.60    2.20   1
   5  -1   1   67.70    2.10   1
  -5   1  -1   69.80    1.80   1
   5  -1   2  411.40    8.60   1
  -5   1  -2  406.80    7.30   1
   5  -1   3 1105.00   21.60   1
  -5   1  -3 1124.80   19.10   1
   5  -1   4   31.70    1.60   1
  -5   1  -4   29.90    1.50   1
   5  -1   5 3455.50  110.50   1
  -5   1  -5 3609.70  116.60   1
   5  -1   6   48.30    2.90   1
  -5   1  -6   43.20    2.10   1
   5  -1   7  351.10   10.20   1
  -5   1  -7  340.70    7.40   1
   5  -1   8   76.80    3.70   1
  -5   1  -8   74.10    3.00   1
   5  -1   9   34.20    3.90   1
  -5   1  -9   35.50    2.60   1
   5  -1  10   -2.80    2.70   1
  -5   1 -10   -0.80    2.40   1
   5  -1  11  100.70    6.80   1
  -5   1 -11   96.20    4.70   1
   5  -1  12    0.90    3.10   1
  -5   1 -12    4.50    2.60   1
   5  -1  13   24.40    5.80   1
  -5   1 -13   30.90    4.70   1
  -5   1 -14    5.30    3.60   1
   5   0 -15   -3.10    5.20   1
   5   0 -14   42.20    4.80   1
   5   0 -13    0.90    1.40   1
   5   0 -12   34.80    1.50   1
   5   0 -11    8.20    0.70   1
   5   0 -10    2.40    0.40   1
   5   0  -9  482.60   13.00   1
   5   0  -8   -0.10    0.60   1
   5   0  -7 1128.00   27.60   1
   5   0  -6    3.80    1.20   1
   5   0  -5  501.00   10.60   1
   5   0  -4   48.00    1.80   1
   5   0  -3  115.30    3.00   1
   5   0  -2 1267.70   24.70   1
   5   0  -1   34.90    1.10   1
  -5   0   1   35.70    1.30   1
   5   0   0  927.20   15.80   1
  -5   0   0  963.50   16.00   1
   5   0   1  323.40    6.10   1
  -5   0  -1  327.80    5.90   1
   5   0   2  250.80    4.80   1
  -5   0  -2  256.60    4.90   1
   5   0   3  447.40    9.10   1
  -5   0  -3  461.00    8.10   1
   5   0   4  814.70   15.60   1
  -5   0  -4  818.40   14.00   1
   5   0   5  133.00    4.30   1
  -5   0  -5  126.40    3.00   1
   5   0   6  772.40   18.40   1
  -5   0  -6  719.00   13.00   1
   5   0   7 1117.60   27.70   1
  -5   0  -7 1082.10   19.40   1
   5   0   8   46.50    3.10   1
  -5   0  -8   51.00    2.20   1
   5   0   9  149.10    5.50   1
  -5   0  -9  151.20    3.90   1
   5   0  10   30.50    4.10   1
  -5   0 -10   34.00    3.00   1
   5   0  11   22.80    3.80   1
  -5   0 -11   19.50    3.00   1
  -5   0 -12   71.20    4.40   1
  -5   0 -13    6.60    2.90   1
  -5   0 -14   23.40    3.70   1
  -5   0 -15    0.40    3.00   1
   5   1 -14    7.00    5.50   1
   5   1 -13   37.50    2.80   1
   5   1 -12   12.40    1.40   1
   5   1 -11    0.50    0.60   1
   5   1 -10  370.80    6.50   1
   5   1  -9   19.80    0.70   1
   5   1  -8    3.60    0.30   1
   5   1  -7   29.90    1.00   1
   5   1  -6  490.80    8.60   1
   5   1  -5 1585.80   39.80   1
   5   1  -4    0.90    0.70   1
   5   1  -3   40.00    1.50   1
   5   1  -2    0.40    0.30   1
  -5  -1   2    2.00    0.30   1
   5   1  -1    0.20    0.50   1
  -5  -1   1    0.00    0.50   1
   5   1   0   37.90    1.20   1
  -5  -1   0   41.20    1.20   1
   5   1   1    2.00    0.60   1
  -5  -1  -1   -0.40    0.50   1
   5   1   2  165.30    3.40   1
  -5  -1  -2  173.10    3.50   1
   5   1   3    1.80    0.80   1
  -5  -1  -3    3.40    0.90   1
   5   1   4    3.10    1.60   1
  -5  -1  -4    3.40    0.70   1
   5   1   5  962.70   23.90   1
  -5  -1  -5  976.00   17.10   1
   5   1   6 1186.80   28.90   1
  -5  -1  -6 1197.20   20.80   1
   5   1   7  973.90   24.80   1
  -5  -1  -7  987.40   17.50   1
   5   1   8   -1.30    1.80   1
  -5  -1  -8    0.10    1.40   1
   5   1   9  720.80   19.00   1
  -5  -1  -9  733.40   14.20   1
  -5  -1 -10    2.60    1.30   1
  -5  -1 -11    1.70    2.00   1
  -5  -1 -12   -1.70    2.20   1
  -5  -1 -13    6.70    2.50   1
  -5  -1 -14   17.20    3.10   1
  -5  -1 -15    2.50    3.50   1
   5   2 -14   -2.80    5.00   1
   5   2 -13   23.10    4.80   1
   5   2 -12    5.40    2.40   1
   5   2 -11   13.40    1.30   1
   5   2 -10  178.80    3.70   1
   5   2  -9  103.00    2.30   1
   5   2  -8    2.10    0.40   1
   5   2  -7    8.70    0.60   1
   5   2  -6  178.60    3.40   1
   5   2  -5  388.10    7.00   1
   5   2  -4  843.10   12.70   1
   5   2  -3   89.10    1.80   1
   5   2  -2  497.10    8.80   1
  -5  -2   2  497.50   12.30   1
   5   2  -1  288.30    5.40   1
  -5  -2   1  278.60    7.40   1
   5   2   0   19.20    0.90   1
  -5  -2   0   21.70    0.80   1
   5   2   1  547.00    9.70   1
  -5  -2  -1  537.10    9.20   1
   5   2   2 1325.80   25.30   1
  -5  -2  -2 1307.40   19.60   1
   5   2   3   75.70    2.30   1
  -5  -2  -3   76.70    1.80   1
   5   2   4  774.40   18.80   1
  -5  -2  -4  803.70   12.70   1
   5   2   5   29.70    1.80   1
  -5  -2  -5   29.40    1.20   1
   5   2   6   52.90    2.80   1
  -5  -2  -6   49.80    1.50   1
   5   2   7   10.00    2.20   1
  -5  -2  -7   14.60    1.10   1
   5   2   8  173.60    6.10   1
  -5  -2  -8  179.60    3.80   1
   5   2   9   59.30    4.70   1
  -5  -2  -9   67.00    2.00   1
  -5  -2 -10    7.40    1.10   1
  -5  -2 -11   59.40    2.20   1
  -5  -2 -12   16.60    1.30   1
  -5  -2 -13    5.40    2.40   1
  -5  -2 -14  201.00    8.40   1
  -5  -2 -15    3.70    3.30   1
  -5  -2 -16   30.80    4.20   1
   5   3 -13   -5.10    3.80   1
   5   3 -12    9.80    2.30   1
   5   3 -11    0.00    1.30   1
   5   3 -10    3.00    1.30   1
   5   3  -9    2.50    1.10   1
   5   3  -8  148.20    3.60   1
   5   3  -7    0.00    0.80   1
   5   3  -6    1.20    0.60   1
   5   3  -5  513.70    9.60   1
  -5  -3   5  518.90   21.10   1
   5   3  -4  125.60    2.80   1
  -5  -3   4  125.10    6.50   1
   5   3  -3  165.80    3.10   1
  -5  -3   3  163.30    8.20   1
   5   3  -2   30.20    1.30   1
  -5  -3   2   33.50    1.80   1
   5   3  -1   50.50    1.70   1
  -5  -3   1   47.90    2.30   1
   5   3   0   96.10    2.60   1
  -5  -3   0  102.50    3.50   1
   5   3   1  117.50    3.10   1
  -5  -3  -1  110.00    2.40   1
   5   3   2   10.60    1.00   1
  -5  -3  -2    8.80    0.70   1
   5   3   3   -1.30    1.00   1
  -5  -3  -3    0.10    0.80   1
   5   3   4  291.30    6.60   1
  -5  -3  -4  298.40    5.20   1
   5   3   5   54.50    2.70   1
  -5  -3  -5   57.10    1.70   1
   5   3   6   50.30    2.80   1
  -5  -3  -6   47.60    1.60   1
   5   3   7  255.50    7.90   1
  -5  -3  -7  242.70    4.90   1
   5   3   8  284.90    9.30   1
  -5  -3  -8  293.40    5.80   1
   5   3   9  298.40   10.60   1
  -5  -3  -9  322.70    6.40   1
   5   3  10    1.00    2.70   1
  -5  -3 -10    5.80    1.20   1
  -5  -3 -11   85.60    2.90   1
  -5  -3 -12   23.50    1.60   1
  -5  -3 -13   19.30    2.90   1
  -5  -3 -14   26.30    3.70   1
  -5  -3 -15    3.20    3.40   1
  -5  -3 -16    2.20    3.30   1
   5   4 -11    3.20    2.70   1
   5   4 -10   -0.60    2.60   1
   5   4  -9   41.00    2.70   1
   5   4  -8   38.20    1.80   1
   5   4  -7    5.10    1.10   1
   5   4  -6   -0.40    1.00   1
   5   4  -5    5.60    0.90   1
   5   4  -4  125.90    3.60   1
  -5  -4   4  121.90    7.40   1
   5   4  -3  301.10    7.20   1
  -5  -4   3  295.00   13.20   1
   5   4  -2  352.40    8.10   1
  -5  -4   2  372.40   10.20   1
   5   4  -1   13.70    1.30   1
  -5  -4   1   12.00    1.40   1
   5   4   0  162.70    4.20   1
  -5  -4   0  155.80    5.40   1
   5   4   1   19.70    1.40   1
  -5  -4  -1   21.10    1.00   1
   5   4   2   27.20    1.40   1
  -5  -4  -2   28.50    1.20   1
   5   4   3  125.40    3.50   1
  -5  -4  -3  126.90    2.90   1
   5   4   4  320.30    7.40   1
  -5  -4  -4  325.10    6.40   1
   5   4   5   30.30    2.30   1
  -5  -4  -5   35.80    1.70   1
   5   4   6   -1.50    2.00   1
  -5  -4  -6    0.20    0.90   1
   5   4   7  105.10    4.50   1
  -5  -4  -7  100.70    2.80   1
   5   4   8    2.50    1.80   1
  -5  -4  -8    3.40    1.00   1
   5   4   9    5.00    2.70   1
  -5  -4  -9    4.80    1.10   1
  -5  -4 -10   32.10    1.70   1
  -5  -4 -11   20.70    1.60   1
  -5  -4 -12   -0.50    1.20   1
  -5  -4 -13   -2.80    2.10   1
  -5  -4 -14   15.00    3.50   1
  -5  -4 -15    1.20    3.10   1
   5   5  -9    2.10    3.10   1
   5   5  -8   12.10    2.70   1
   5   5  -7   25.30    1.80   1
   5   5  -6   45.20    2.30   1
   5   5  -5    5.20    1.30   1
   5   5  -4   22.70    1.80   1
   5   5  -3    3.00    1.00   1
   5   5  -2  163.80    4.20   1
  -5  -5   2  164.80    7.80   1
   5   5  -1   65.10    2.50   1
  -5  -5   1   66.40    4.50   1
   5   5   0   27.30    1.70   1
  -5  -5   0   25.20    2.10   1
   5   5   1    2.70    1.10   1
  -5  -5  -1    1.30    0.40   1
   5   5   2    5.00    1.30   1
  -5  -5  -2    5.80    0.90   1
   5   5   3    6.00    1.30   1
  -5  -5  -3    7.50    0.90   1
   5   5   4   16.00    1.50   1
  -5  -5  -4   16.30    1.30   1
   5   5   5   33.00    3.50   1
  -5  -5  -5   34.70    1.60   1
   5   5   6   65.50    3.60   1
  -5  -5  -6   67.60    2.50   1
   5   5   7    3.70    1.70   1
  -5  -5  -7   -0.50    1.00   1
   5   5   8   -1.70    2.60   1
  -5  -5  -8    0.30    1.00   1
  -5  -5  -9    1.20    1.00   1
  -5  -5 -10   72.90    2.50   1
  -5  -5 -11   51.40    2.30   1
  -5  -5 -12    2.30    1.40   1
  -5  -5 -13  -18.10    5.20   1
  -5  -5 -14    8.10    2.90   1
  -5  -5 -15    2.60    3.50   1
   5   6  -8   -3.50    2.60   1
   5   6  -7    2.70    2.60   1
   5   6  -6    0.90    3.10   1
   5   6  -5   22.70    3.30   1
   5   6  -4    0.90    1.30   1
   5   6  -3    7.50    1.40   1
   5   6  -2   48.00    2.10   1
   5   6  -1   -0.30    1.30   1
  -5  -6   1   -0.80    1.90   1
   5   6   0  210.30    6.10   1
  -5  -6   0  231.40   10.30   1
   5   6   1   -1.20    1.60   1
  -5  -6  -1    0.60    0.50   1
   5   6   2   16.10    1.70   1
  -5  -6  -2   14.80    0.90   1
   5   6   3    6.10    1.20   1
  -5  -6  -3    8.60    0.90   1
   5   6   4   -1.50    1.40   1
  -5  -6  -4    1.80    1.10   1
   5   6   5    0.10    3.20   1
  -5  -6  -5    3.30    1.50   1
  -5  -6  -6   38.30    2.20   1
  -5  -6  -7    1.70    1.50   1
  -5  -6  -8   16.00    2.00   1
  -5  -6  -9    4.30    1.60   1
  -5  -6 -10   -1.30    2.30   1
  -5  -6 -11   21.00    3.30   1
  -5  -6 -12   24.90    3.20   1
  -5  -6 -13   -2.90    2.50   1
  -5  -6 -14   -9.10    4.20   1
   5   7  -6    7.60    4.50   1
   5   7  -5   12.50    3.30   1
   5   7  -4   20.50    4.30   1
   5   7  -3    1.20    2.50   1
   5   7  -2    7.50    2.20   1
   5   7  -1    7.80    1.80   1
  -5  -7   1    5.90    2.50   1
   5   7   0    5.60    2.80   1
  -5  -7   0   -0.90    2.20   1
   5   7   1   41.00    3.40   1
  -5  -7  -1   44.70    4.00   1
   5   7   2   11.10    2.00   1
  -5  -7  -2    6.10    1.30   1
   5   7   3   -1.60    2.20   1
  -5  -7  -3   -0.90    0.90   1
   5   7   4    1.30    1.20   1
  -5  -7  -4    2.50    1.00   1
  -5  -7  -5   -0.20    1.20   1
  -5  -7  -6    2.30    1.60   1
  -5  -7  -7   27.80    2.20   1
  -5  -7  -8   20.10    2.40   1
  -5  -7  -9   -1.10    2.30   1
  -5  -7 -10    6.90    3.50   1
  -5  -7 -11    2.60    3.00   1
  -5  -7 -12    8.90    4.00   1
   5   8  -2   -0.20    1.90   1
   5   8  -1    3.40    1.90   1
   5   8   0    7.60    3.60   1
  -5  -8   0    4.00    2.90   1
  -5  -8  -1    4.70    4.00   1
  -5  -8  -2   42.80    5.30   1
  -5  -8  -3    9.30    4.50   1
  -5  -8  -4    4.90    3.00   1
  -5  -8  -5    2.50    2.90   1
  -5  -8  -6    2.00    2.10   1
  -5  -8  -7    4.50    2.90   1
  -5  -8  -8    3.30    2.40   1
  -5  -8  -9    6.00    3.10   1
  -5  -8 -10    0.80    2.50   1
   6  -7  -5   -0.70    5.10   1
  -6   7   5    1.20    3.80   1
   6  -7  -4   -0.40    3.70   1
  -6   7   4   -1.60    3.80   1
   6  -7  -3    2.60    5.10   1
  -6   7   3   -0.10    2.90   1
   6  -7  -2    2.80    3.80   1
  -6   7   2   -0.30    3.20   1
   6  -6 -10   29.10    4.90   1
   6  -6  -9    7.50    5.30   1
   6  -6  -8   -1.40    4.70   1
   6  -6  -7   -2.10    3.10   1
  -6   6   7    3.80    2.20   1
   6  -6  -6    3.40    3.00   1
  -6   6   6    5.70    2.30   1
   6  -6  -5    8.70    4.50   1
  -6   6   5   12.40    3.40   1
   6  -6  -4   -2.30    2.90   1
  -6   6   4    3.00    2.20   1
   6  -6  -3   -5.90    4.00   1
  -6   6   3   -1.80    2.20   1
   6  -6  -2    2.40    3.30   1
  -6   6   2    0.40    2.60   1
   6  -6  -1   10.60    3.70   1
  -6   6   1    9.40    3.90   1
   6  -6   0   54.80    6.40   1
  -6   6   0   54.90    6.00   1
   6  -6   1   26.80    4.70   1
  -6   6  -1   15.90    3.70   1
   6  -6   2   70.60    7.80   1
  -6   6  -2   56.40    5.70   1
   6  -6   3    0.90    3.50   1
  -6   6  -3   -2.20    4.70   1
;
_shelx_hkl_checksum              27132
#END Tags that were not found in dictionaries
loop_
_symmetry_equiv_pos_as_xyz
'x, y, z'
'-x, -y, -z'
loop_
_atom_site_label
_atom_site_type_symbol
_atom_site_fract_x
_atom_site_fract_y
_atom_site_fract_z
_atom_site_U_iso_or_equiv
_atom_site_adp_type
_atom_site_occupancy
_atom_site_symmetry_multiplicity
_atom_site_calc_flag
_atom_site_refinement_flags
F1 F 0.49895(19) 0.6827(2) 0.31753(9) 0.0982(6) Uani 1 1 d .
F2 F 0.55024(16) 0.9487(2) 0.35505(9) 0.0989(6) Uani 1 1 d .
O3 O 0.31592(15) 0.9493(2) 0.25503(8) 0.0617(4) Uani 1 1 d .
O1 O 0.31044(14) 0.78737(19) 0.42472(8) 0.0594(4) Uani 1 1 d .
O5" O -0.36020(16) 1.3578(2) 0.06902(9) 0.0645(4) Uani 1 1 d .
O3" O 0.17134(17) 1.25394(19) -0.08887(8) 0.0618(4) Uani 1 1 d .
C8" C -0.4641(2) 1.3528(3) 0.15250(15) 0.0644(5) Uani 1 1 d .
H8A H -0.5801 1.4167 0.1350 0.097 Uiso 1 1 calc R
H8B H -0.4047 1.4120 0.1936 0.097 Uiso 1 1 calc R
H8C H -0.4780 1.2263 0.1857 0.097 Uiso 1 1 calc R
C3 C 0.14232(19) 0.9800(2) 0.25746(10) 0.0413(4) Uani 1 1 d .
C2" C 0.1620(2) 1.1174(2) 0.08345(10) 0.0441(4) Uani 1 1 d .
H2" H 0.2799 1.0654 0.0851 0.053 Uiso 1 1 calc R
C2' C 0.1468(2) 0.6209(2) 0.59023(11) 0.0516(4) Uani 1 1 d .
H2' H 0.2709 0.6025 0.5848 0.062 Uiso 1 1 calc R
C1 C 0.13726(19) 0.8134(2) 0.42313(10) 0.0418(4) Uani 1 1 d .
C1' C 0.0458(2) 0.7323(2) 0.51341(10) 0.0427(4) Uani 1 1 d .
C4' C -0.1210(3) 0.5654(3) 0.68270(12) 0.0636(5) Uani 1 1 d .
H4' H -0.1772 0.5089 0.7395 0.076 Uiso 1 1 calc R
C1" C 0.05961(19) 1.0919(2) 0.16699(10) 0.0406(4) Uani 1 1 d .
C6' C -0.1392(2) 0.7593(3) 0.52302(12) 0.0533(4) Uani 1 1 d .
H6' H -0.2074 0.8338 0.4724 0.064 Uiso 1 1 calc R
C2 C 0.0472(2) 0.9112(2) 0.33983(11) 0.0467(4) Uani 1 1 d .
H2 H -0.0775 0.9302 0.3398 0.056 Uiso 1 1 calc R
C6" C -0.1166(2) 1.1695(2) 0.16598(11) 0.0442(4) Uani 1 1 d .
H6" H -0.1842 1.1514 0.2221 0.053 Uiso 1 1 calc R
C3' C 0.0620(3) 0.5381(3) 0.67446(12) 0.0610(5) Uani 1 1 d .
H3' H 0.1291 0.4637 0.7256 0.073 Uiso 1 1 calc R
C5" C -0.1898(2) 1.2749(2) 0.07924(12) 0.0472(4) Uani 1 1 d .
C7" C 0.3521(3) 1.1790(3) -0.09044(13) 0.0627(5) Uani 1 1 d .
H7A H 0.3972 1.2117 -0.1549 0.094 Uiso 1 1 calc R
H7C H 0.3574 1.0466 -0.0676 0.094 Uiso 1 1 calc R
H7B H 0.4239 1.2282 -0.0498 0.094 Uiso 1 1 calc R
C4" C -0.0895(2) 1.2994(2) -0.00401(12) 0.0512(4) Uani 1 1 d .
H4" H -0.1402 1.3690 -0.0617 0.061 Uiso 1 1 calc R
C5' C -0.2223(2) 0.6755(3) 0.60785(13) 0.0629(5) Uani 1 1 d .
H5' H -0.3463 0.6936 0.6142 0.075 Uiso 1 1 calc R
C3" C 0.0851(2) 1.2218(2) -0.00267(11) 0.0465(4) Uani 1 1 d .
B2 B 0.4240(2) 0.8406(3) 0.33850(14) 0.0605(6) Uani 1 1 d .
loop_
_atom_site_aniso_label
_atom_site_aniso_U_11
_atom_site_aniso_U_22
_atom_site_aniso_U_33
_atom_site_aniso_U_23
_atom_site_aniso_U_13
_atom_site_aniso_U_12
F1 0.0992(10) 0.1024(11) 0.0620(8) 0.0178(7) 0.0248(7) 0.0415(8)
F2 0.0646(8) 0.1405(13) 0.0688(8) 0.0255(8) -0.0208(6) -0.0340(8)
O3 0.0384(6) 0.0921(10) 0.0374(6) 0.0117(6) -0.0019(4) 0.0067(5)
O1 0.0395(6) 0.0871(9) 0.0371(6) 0.0075(5) -0.0048(4) 0.0063(5)
O5" 0.0487(7) 0.0779(9) 0.0534(7) 0.0026(6) -0.0121(5) 0.0146(6)
O3" 0.0679(8) 0.0745(8) 0.0329(6) 0.0006(5) -0.0003(5) 0.0076(6)
C8" 0.0446(9) 0.0682(12) 0.0692(12) -0.0006(9) -0.0005(8) 0.0072(8)
C3 0.0390(7) 0.0451(8) 0.0354(7) -0.0033(6) -0.0050(6) 0.0017(6)
C2" 0.0441(8) 0.0473(8) 0.0361(8) -0.0037(6) -0.0042(6) 0.0023(6)
C2' 0.0531(9) 0.0586(10) 0.0371(8) -0.0026(7) -0.0059(6) 0.0020(7)
C1 0.0413(7) 0.0454(8) 0.0349(7) -0.0045(6) -0.0045(6) 0.0016(6)
C1' 0.0478(8) 0.0457(8) 0.0320(7) -0.0060(6) -0.0021(6) -0.0006(6)
C4' 0.0784(12) 0.0695(12) 0.0395(9) -0.0059(8) 0.0117(8) -0.0140(9)
C1" 0.0430(7) 0.0412(7) 0.0336(7) -0.0024(6) -0.0071(5) -0.0008(6)
C6' 0.0490(8) 0.0635(10) 0.0415(8) -0.0043(7) -0.0013(7) 0.0011(7)
C2 0.0380(7) 0.0573(9) 0.0369(8) 0.0005(6) -0.0040(6) 0.0035(6)
C6" 0.0437(8) 0.0470(8) 0.0371(7) -0.0028(6) -0.0055(6) 0.0009(6)
C3' 0.0773(12) 0.0638(11) 0.0343(8) 0.0015(7) -0.0051(8) -0.0039(9)
C5" 0.0431(8) 0.0464(8) 0.0469(9) -0.0034(6) -0.0120(6) 0.0037(6)
C7" 0.0684(11) 0.0710(12) 0.0424(9) -0.0055(8) 0.0101(8) 0.0004(9)
C4" 0.0568(9) 0.0518(9) 0.0373(8) 0.0010(6) -0.0150(7) 0.0047(7)
C5' 0.0532(10) 0.0781(13) 0.0536(10) -0.0103(9) 0.0113(8) -0.0062(9)
C3" 0.0565(9) 0.0466(8) 0.0331(7) -0.0042(6) -0.0041(6) -0.0027(6)
B2 0.0353(8) 0.0840(15) 0.0438(10) 0.0131(9) -0.0026(7) 0.0099(9)
loop_
_atom_type_symbol
_atom_type_description
_atom_type_scat_dispersion_real
_atom_type_scat_dispersion_imag
_atom_type_scat_source
C C 0.0033 0.0016 'International Tables Vol C Tables 4.2.6.8 and 6.1.1.4'
H H 0.0000 0.0000 'International Tables Vol C Tables 4.2.6.8 and 6.1.1.4'
B B 0.0013 0.0007 'International Tables Vol C Tables 4.2.6.8 and 6.1.1.4'
F F 0.0171 0.0103 'International Tables Vol C Tables 4.2.6.8 and 6.1.1.4'
O O 0.0106 0.0060 'International Tables Vol C Tables 4.2.6.8 and 6.1.1.4'
loop_
_geom_angle_atom_site_label_1
_geom_angle_atom_site_label_2
_geom_angle_atom_site_label_3
_geom_angle
C3 O3 B2 123.29(12)
C1 O1 B2 123.40(12)
C5" O5" C8" 118.26(13)
C3" O3" C7" 117.69(12)
O5" C8" H8A 109.5
O5" C8" H8B 109.5
H8A C8" H8B 109.5
O5" C8" H8C 109.5
H8A C8" H8C 109.5
H8B C8" H8C 109.5
O3 C3 C2 120.92(13)
O3 C3 C1" 115.03(13)
C2 C3 C1" 124.05(13)
C1" C2" C3" 119.02(14)
C1" C2" H2" 120.5
C3" C2" H2" 120.5
C3' C2' C1' 119.88(15)
C3' C2' H2' 120.1
C1' C2' H2' 120.1
O1 C1 C2 120.75(13)
O1 C1 C1' 115.71(12)
C2 C1 C1' 123.53(13)
C6' C1' C2' 119.31(14)
C6' C1' C1 121.49(13)
C2' C1' C1 119.17(14)
C3' C4' C5' 120.71(16)
C3' C4' H4' 119.6
C5' C4' H4' 119.6
C6" C1" C2" 121.26(13)
C6" C1" C3 120.33(13)
C2" C1" C3 118.41(13)
C5' C6' C1' 120.17(15)
C5' C6' H6' 119.9
C1' C6' H6' 119.9
C3 C2 C1 120.09(14)
C3 C2 H2 120.0
C1 C2 H2 120.0
C1" C6" C5" 118.65(14)
C1" C6" H6" 120.7
C5" C6" H6" 120.7
C4' C3' C2' 120.12(16)
C4' C3' H3' 119.9
C2' C3' H3' 119.9
O5" C5" C4" 115.46(13)
O5" C5" C6" 124.17(15)
C4" C5" C6" 120.36(14)
O3" C7" H7A 109.5
O3" C7" H7C 109.5
H7A C7" H7C 109.5
O3" C7" H7B 109.5
H7A C7" H7B 109.5
H7C C7" H7B 109.5
C3" C4" C5" 120.76(13)
C3" C4" H4" 119.6
C5" C4" H4" 119.6
C4' C5' C6' 119.80(17)
C4' C5' H5' 120.1
C6' C5' H5' 120.1
O3" C3" C4" 115.87(13)
O3" C3" C2" 124.19(14)
C4" C3" C2" 119.93(14)
F2 B2 F1 111.98(16)
F2 B2 O1 109.43(17)
F1 B2 O1 108.28(16)
F2 B2 O3 107.58(16)
F1 B2 O3 108.50(17)
O1 B2 O3 111.09(13)
loop_
_geom_bond_atom_site_label_1
_geom_bond_atom_site_label_2
_geom_bond_distance
F1 B2 1.364(3)
F2 B2 1.356(3)
O3 C3 1.2986(18)
O3 B2 1.481(2)
O1 C1 1.2914(18)
O1 B2 1.477(2)
O5" C5" 1.3611(19)
O5" C8" 1.411(2)
O3" C3" 1.3620(19)
O3" C7" 1.419(2)
C8" H8A 0.9600
C8" H8B 0.9600
C8" H8C 0.9600
C3 C2 1.377(2)
C3 C1" 1.4750(19)
C2" C1" 1.392(2)
C2" C3" 1.394(2)
C2" H2" 0.9300
C2' C3' 1.383(2)
C2' C1' 1.396(2)
C2' H2' 0.9300
C1 C2 1.391(2)
C1 C1' 1.469(2)
C1' C6' 1.388(2)
C4' C3' 1.371(3)
C4' C5' 1.376(3)
C4' H4' 0.9300
C1" C6" 1.391(2)
C6' C5' 1.385(2)
C6' H6' 0.9300
C2 H2 0.9300
C6" C5" 1.393(2)
C6" H6" 0.9300
C3' H3' 0.9300
C5" C4" 1.381(2)
C7" H7A 0.9600
C7" H7C 0.9600
C7" H7B 0.9600
C4" C3" 1.380(2)
C4" H4" 0.9300
C5' H5' 0.9300
