#------------------------------------------------------------------------------
#$Date: 2016-03-22 21:26:17 +0200 (Tue, 22 Mar 2016) $
#$Revision: 179019 $
#$URL: svn://www.crystallography.net/cod/cif/4/12/17/4121748.cif $
#------------------------------------------------------------------------------
#
# This file is available in the Crystallography Open Database (COD),
# http://www.crystallography.net/
#
# All data on this site have been placed in the public domain by the
# contributors.
#
data_4121748
loop_
_publ_author_name
'Rodriguez, Rodrigo A.'
'Pan, Chung-Mao'
'Yabe, Yuki'
'Kawamata, Yu'
'Eastgate, Martin D.'
'Baran, Phil S.'
_publ_section_title
;
 Palau'chlor: A Practical and Reactive Chlorinating Reagent.
;
_journal_issue                   19
_journal_name_full               'Journal of the American Chemical Society'
_journal_page_first              6908
_journal_page_last               6911
_journal_paper_doi               10.1021/ja5031744
_journal_volume                  136
_journal_year                    2014
_chemical_formula_moiety         'C11 H20 Cl N3 O2'
_chemical_formula_sum            'C11 H20 Cl N3 O2'
_chemical_formula_weight         261.75
_chemical_name_systematic
;
 ?
;
_space_group_crystal_system      monoclinic
_space_group_IT_number           11
_space_group_name_Hall           '-P 2yb'
_space_group_name_H-M_alt        'P 1 21/m 1'
_symmetry_space_group_name_Hall  '-P 2yb'
_symmetry_space_group_name_H-M   'P 1 21/m 1'
_atom_sites_solution_hydrogens   mixed
_atom_sites_solution_primary     direct
_atom_sites_solution_secondary   difmap
_audit_creation_date             2014-01-07
_audit_creation_method
;
Olex2 1.2-beta
(compiled 2013.12.10 svn.r2850 for OlexSys, GUI svn.r4736)
;
_cell_angle_alpha                90
_cell_angle_beta                 92.713(9)
_cell_angle_gamma                90
_cell_formula_units_Z            2
_cell_length_a                   10.1255(18)
_cell_length_b                   6.6412(10)
_cell_length_c                   10.6229(17)
_cell_measurement_reflns_used    1528
_cell_measurement_temperature    200
_cell_measurement_theta_max      26.002
_cell_measurement_theta_min      2.716
_cell_volume                     713.5(2)
_computing_cell_refinement       'Bruker Saint'
_computing_data_collection       'Bruker APEX2'
_computing_data_reduction        'Bruker Saint'
_computing_molecular_graphics    'Olex2 (Dolomanov et al., 2009)'
_computing_publication_material  'Olex2 (Dolomanov et al., 2009)'
_computing_structure_refinement  'XL (Sheldrick, 2008)'
_computing_structure_solution    'XS (Sheldrick, 2008)'
_diffrn_ambient_temperature      200.0
_diffrn_detector                 'Bruker APEX-II CCD'
_diffrn_detector_area_resol_mean 7.9
_diffrn_detector_type            'CCD Area Detector'
_diffrn_measured_fraction_theta_full 0.997
_diffrn_measured_fraction_theta_max 0.993
_diffrn_measurement_device       'Kappa Four-Circle Diffractometer'
_diffrn_measurement_device_type  'Bruker APEX-II CCD'
_diffrn_measurement_method       '\w and \f scans'
_diffrn_radiation_monochromator  graphite
_diffrn_radiation_probe          x-ray
_diffrn_radiation_type           MoK\a
_diffrn_radiation_wavelength     0.71073
_diffrn_reflns_av_R_equivalents  0.0235
_diffrn_reflns_av_unetI/netI     0.0360
_diffrn_reflns_Laue_measured_fraction_full 0.997
_diffrn_reflns_Laue_measured_fraction_max 0.993
_diffrn_reflns_limit_h_max       12
_diffrn_reflns_limit_h_min       -9
_diffrn_reflns_limit_k_max       8
_diffrn_reflns_limit_k_min       -8
_diffrn_reflns_limit_l_max       13
_diffrn_reflns_limit_l_min       -13
_diffrn_reflns_number            3977
_diffrn_reflns_point_group_measured_fraction_full 0.997
_diffrn_reflns_point_group_measured_fraction_max 0.993
_diffrn_reflns_theta_full        25.000
_diffrn_reflns_theta_max         26.435
_diffrn_reflns_theta_min         2.716
_diffrn_source                   'sealed tube'
_diffrn_source_type              fine-focus
_diffrn_standards_number         0
_exptl_absorpt_coefficient_mu    0.264
_exptl_absorpt_correction_T_max  0.4908
_exptl_absorpt_correction_T_min  0.4108
_exptl_absorpt_correction_type   multi-scan
_exptl_absorpt_process_details
;
SADABS-2012/1 (Bruker,2012) was used for absorption correction.
wR2(int) was 0.0497 before and 0.0343 after correction.
The Ratio of minimum to maximum transmission is 0.8370.
The \l/2 correction factor is 0.0015.
;
_exptl_crystal_colour            Colorless
_exptl_crystal_density_diffrn    1.218
_exptl_crystal_density_method    'Not measured'
_exptl_crystal_description       rod
_exptl_crystal_F_000             280
_exptl_crystal_size_max          0.64
_exptl_crystal_size_mid          0.18
_exptl_crystal_size_min          0.16
_refine_diff_density_max         0.359
_refine_diff_density_min         -0.446
_refine_diff_density_rms         0.062
_refine_ls_extinction_method     none
_refine_ls_goodness_of_fit_ref   1.055
_refine_ls_hydrogen_treatment    mixed
_refine_ls_matrix_type           full
_refine_ls_number_parameters     129
_refine_ls_number_reflns         1596
_refine_ls_number_restraints     19
_refine_ls_restrained_S_all      1.093
_refine_ls_R_factor_all          0.0915
_refine_ls_R_factor_gt           0.0698
_refine_ls_shift/su_max          0.000
_refine_ls_shift/su_mean         0.000
_refine_ls_structure_factor_coef Fsqd
_refine_ls_weighting_details
'w=1/[\s^2^(Fo^2^)+(0.0600P)^2^+1.3519P] where P=(Fo^2^+2Fc^2^)/3'
_refine_ls_weighting_scheme      calc
_refine_ls_wR_factor_gt          0.1654
_refine_ls_wR_factor_ref         0.1771
_reflns_Friedel_coverage         0.000
_reflns_number_gt                1213
_reflns_number_total             1596
_reflns_threshold_expression     'I > 2\s(I)'
_cod_data_source_file            ja5031744_si_005.cif
_cod_data_source_block           Baran354b
_cod_depositor_comments
;
The following automatic conversions were performed:

'_diffrn_radiation_probe' value 'X-ray' changed to 'x-ray' according
to
/usr/data/users/saulius/crontab/automatic-downloads/rss-feeds/ACS/lib/dictionaries/cif_core.dic
dictionary named 'cif_core.dic' version 2.4.2 from 2011-04-26.

Automatic conversion script
Id: cif_fix_values 2281 2013-09-26 08:29:07Z andrius 

 Adding full bibliography for 4121744--4121757.cif.
;
_cod_database_code               4121748
#BEGIN Tags that were not found in dictionaries:
_shelxl_version_number           2013-4
_shelx_space_group_comment
;
The symmetry employed for this shelxl refinement is uniquely defined
by the following loop, which should always be used as a source of
symmetry information in preference to the above space-group names.
They are only intended as comments.
;
_shelx_estimated_absorpt_t_max   0.979
_shelx_estimated_absorpt_t_min   0.930
_olex2_refinement_description
;
1. Fixed Uiso
 At 1.5 times of:
  All C(H,H,H) groups
2. Restrained distances
 N1-H1
 0.9 with sigma of 0.02
3. Uiso/Uaniso restraints and constraints
Uanis(C3) \\sim Ueq, Uanis(C2) \\sim Ueq, Uanis(C1) \\sim Ueq: with sigma of
0.01 and sigma for terminal atoms of 0.2
4. Others
 Fixed Sof: O1(0.5) O2(0.5) C1(0.5) H1A(0.5) H1B(0.5) H1C(0.5) C2(0.5)
 H2A(0.5) H2B(0.5) H2C(0.5) C3(0.5) H3A(0.5) H3B(0.5) H3C(0.5) C4(0.5) H9A(0.5)
 H9B(0.5) H9C(0.5)
5.a Idealised Me refined as rotating group:
 C1(H1A,H1B,H1C), C2(H2A,H2B,H2C), C3(H3A,H3B,H3C), C9(H9A,H9B,H9C), C10(H10A,
 H10B,H10C)
;
_shelx_res_file
;
TITL Baran354b in P2(1)/m
CELL 0.71073 10.1255 6.6412 10.6229 90 92.713 90
ZERR 2 0.0018 0.001 0.0017 0 0.0087 0
LATT 1
SYMM -X,0.5+Y,-Z

SFAC C H Cl N O
UNIT 22 40 2 6 4
EQIV $1 +X,1.5-Y,+Z
DFIX 0.9 N1 H1
ISOR 0.01 0.2 C3 C2 C1

L.S. 20
PLAN  10
SIZE 0.08 0.08 0.28
TEMP -73.15
HTAB N2 Cl1
HTAB N1 O2
HTAB N1 O2_$1
BOND
REM Solution 1 R1 0.260 Rweak 0.037, Alpha = 0.1223 in P2(1)/m
REM Formula: C10 N2 O2 Cl
BOND $H
MORE -1
fmap 2
acta 50
CONF
REM <HKL>C:/frames/guest/Baran354b/work/Baran354b_a.hkl</HKL>

WGHT    0.060000    1.351900
FVAR       0.97124
CL1   3    0.671730    0.750000    0.964445    10.50000    0.02594    0.06105 =
         0.05728    0.00000    0.00221    0.00000
O1    5    0.324902    0.720597    0.698545    10.50000    0.03808    0.11944 =
         0.02909   -0.02540    0.00327    0.01331
O2    5    0.217987    0.778738    1.137782    10.50000    0.03232    0.07690 =
         0.02617   -0.00282   -0.00028    0.01605
N1    4    0.294193    0.750000    0.905357    10.50000    0.02472    0.05403 =
         0.02387    0.00000    0.00240    0.00000
H1    2    0.233645    0.750000    0.964642    10.50000    0.08768
N2    4    0.432407    0.750000    1.086586    10.50000    0.02542    0.03360 =
         0.02769    0.00000   -0.00445    0.00000
H2    2    0.509798    0.750000    1.116401    10.50000    0.01840
N3    4    0.519087    0.750000    0.882551    10.50000    0.02611    0.03989 =
         0.03772    0.00000    0.00302    0.00000
PART -1
C1    1    0.024203    0.658891    0.849962    10.50000    0.04799    0.14280 =
         0.06187    0.00519    0.00041   -0.03046
AFIX 137
H1A   2   -0.068084    0.659907    0.817697    10.50000   -1.50000
H1B   2    0.035643    0.756594    0.918751    10.50000   -1.50000
H1C   2    0.047274    0.524052    0.881366    10.50000   -1.50000
AFIX   0
C2    1    0.077560    1.003353    0.774003    10.50000    0.07399    0.10959 =
         0.14598   -0.02447   -0.03916    0.03633
AFIX 137
H2A   2   -0.017936    1.026760    0.775143    10.50000   -1.50000
H2B   2    0.113719    1.078110    0.703933    10.50000   -1.50000
H2C   2    0.120085    1.049346    0.853669    10.50000   -1.50000
AFIX   0
C3    1    0.060995    0.702415    0.627827    10.50000    0.04724    0.08528 =
         0.04766   -0.00700   -0.00887   -0.00572
AFIX 137
H3A   2    0.079138    0.568914    0.593342    10.50000   -1.50000
H3B   2    0.109618    0.804512    0.582131    10.50000   -1.50000
H3C   2   -0.034015    0.730237    0.618515    10.50000   -1.50000
AFIX   0
PART 0
C4    1    0.102167    0.792363    0.758292    10.50000    0.03043    0.07164 =
         0.03800   -0.00696   -0.00203    0.00484
C5    1    0.250767    0.750000    0.780692    10.50000    0.03745    0.04131 =
         0.02379    0.00000    0.00125    0.00000
C6    1    0.422076    0.750000    0.955799    10.50000    0.03022    0.01555 =
         0.02790    0.00000    0.00105    0.00000
C7    1    0.333770    0.750000    1.170919    10.50000    0.03820    0.04274 =
         0.02663    0.00000    0.00293    0.00000
C8    1    0.378830    0.750000    1.310328    10.50000    0.04490    0.04502 =
         0.02379    0.00000   -0.00673    0.00000
C9    1    0.529777    0.750000    1.332174    10.50000    0.05755    0.09913 =
         0.03512    0.00000   -0.02024    0.00000
PART -1
AFIX 137
H9A   2    0.552762    0.711657    1.419566    10.50000   -1.50000
H9B   2    0.564200    0.884991    1.315997    10.50000   -1.50000
H9C   2    0.568737    0.653352    1.274907    10.50000   -1.50000
AFIX   0
PART 0
C10   1    0.323396    0.562431    1.368112    11.00000    0.10722    0.05661 =
         0.03159    0.00737   -0.00637   -0.02289
AFIX 137
H10A  2    0.227781    0.556500    1.349329    11.00000   -1.50000
H10B  2    0.340902    0.565456    1.459618    11.00000   -1.50000
H10C  2    0.365498    0.443500    1.332924    11.00000   -1.50000
AFIX   0
HKLF 4

REM  Baran354b in P2(1)/m
REM R1 =  0.0698 for    1213 Fo > 4sig(Fo)  and  0.0915 for all    1596 data
REM    129 parameters refined using     19 restraints

END

WGHT      0.0559      1.0591

REM Highest difference peak  0.359,  deepest hole -0.446,  1-sigma level  0.062
Q1    1   0.0489  0.5448  0.8362  11.00000  0.05    0.36
Q2    1   0.0072  0.7500  0.8509  10.50000  0.05    0.34
Q3    1   0.1183  1.0325  0.6846  11.00000  0.05    0.26
Q4    1   0.6358  0.7500  1.0449  10.50000  0.05    0.25
Q5    1   0.0754  0.5544  0.6435  11.00000  0.05    0.23
Q6    1   0.0993  0.8510  1.1621  11.00000  0.05    0.23
Q7    1   0.3527  0.7500  1.2476  10.50000  0.05    0.21
Q8    1   0.6510  0.9166  0.9800  11.00000  0.05    0.21
Q9    1   0.0341  0.3681  0.8823  11.00000  0.05    0.19
Q10   1   0.1370  1.2500  0.7880  10.50000  0.05    0.17
;
_shelx_res_checksum              394
_shelx_hkl_file
;
   2   0   0   52.99    2.00
  -2   0   0   52.49    2.00
   3   0   0 3122.49   59.69
  -3   0   0 3242.88   59.79
  -4   0   0   -0.10    1.00
   4   0   0    0.20    1.40
   5   0   0  881.71   18.10
  -5   0   0  893.31   18.20
   6   0   0  162.98    5.20
   7   0   0  113.89    4.80
   8   0   0  236.18    7.50
   9   0   0  280.47    8.80
  10   0   0   -2.00    2.80
  11   0   0   75.79    6.10
  12   0   0   68.89    6.50
   0  -1   0  -10.40    0.40
   0   1   0  -10.80    0.50
  -1  -1   0 3715.03   73.19
  -1  -1   0 3804.02   70.59
   1  -1   0 3778.82   70.19
   1  -1   0 3656.43   70.29
  -1   1   0 3692.73   70.19
   1   1   0 3804.02   72.49
  -1   1   0 3648.54   70.29
   1   1   0 3835.02   70.19
  -2  -1   0    4.40    1.10
   2  -1   0    5.00    1.00
   2  -1   0    5.10    0.90
   2   1   0    3.90    1.10
  -2   1   0    4.50    0.90
   2   1   0    5.50    1.10
   3  -1   0    5.30    1.20
  -3  -1   0    6.80    1.30
  -3   1   0    7.20    1.10
   3   1   0    5.40    1.30
   4  -1   0   37.70    2.40
  -4  -1   0   37.30    2.40
   4   1   0   36.40    2.40
  -4   1   0   36.40    2.30
   5  -1   0  286.07    7.10
  -5   1   0  300.07    7.20
   5   1   0  265.67    7.10
   6  -1   0  117.09    4.50
  -6   1   0  120.09    4.30
   6   1   0  109.89    4.50
   7  -1   0  216.88    6.60
   7   1   0  214.08    6.70
   8  -1   0   90.09    5.00
   8   1   0   95.39    5.20
   9  -1   0   37.60    3.70
   9   1   0   31.10    3.60
  10  -1   0    1.60    2.70
  10   1   0    6.50    3.10
  11  -1   0    3.60    3.10
  11   1   0    5.20    3.70
  12  -1   0   24.10    4.00
  12   1   0   34.30    5.20
   0  -2   0 9999.00  183.18
   0   2   0 9756.32  183.18
   1  -2   0 2132.29   39.00
   1  -2   0 2145.89   39.00
  -1  -2   0 2085.09   39.30
  -1  -2   0 2007.90   40.90
   1   2   0 2137.89   39.30
  -1   2   0 2067.49   39.00
  -2  -2   0   55.99    2.30
  -2  -2   0   54.39    2.50
   2  -2   0   64.49    2.00
   2  -2   0   59.79    1.90
  -2   2   0   61.39    2.00
   2   2   0   51.49    2.40
   2   2   0   62.69    2.60
  -3  -2   0  192.28    5.00
   3  -2   0  189.48    4.60
   3  -2   0  192.18    4.70
  -3   2   0  195.78    4.70
   3   2   0  197.88    5.10
   3   2   0  199.08    5.10
   4  -2   0   37.90    2.40
   4  -2   0   36.40    2.10
  -4   2   0   34.90    2.20
   4   2   0   38.50    2.60
   5  -2   0  109.79    3.80
  -5   2   0  107.09    3.80
   5   2   0  111.59    4.30
   6  -2   0   97.49    4.00
  -6   2   0   92.99    3.80
   6   2   0   93.49    4.30
   7  -2   0    4.60    2.10
   7   2   0    6.10    2.30
   8  -2   0   91.29    5.00
   8   2   0   97.69    5.20
   9  -2   0  164.38    6.50
   9   2   0  173.98    7.60
  10  -2   0   -0.10    2.80
  10   2   0    3.50    3.30
  11  -2   0   47.70    4.70
  11   2   0   54.29    5.50
  12   2   0   47.90    5.70
   0  -3   0    0.00    0.80
   0   3   0    1.10    0.80
   1  -3   0  185.18    4.10
   1  -3   0  196.88    4.00
  -1  -3   0  190.98    5.10
  -1  -3   0  186.18    4.50
  -1   3   0  202.18    4.10
   1   3   0  180.18    4.50
  -2  -3   0   26.20    2.40
   2  -3   0   25.20    1.30
   2  -3   0   27.30    1.60
   2   3   0   26.50    2.30
   3  -3   0   40.30    2.20
   3  -3   0   36.80    1.90
  -3  -3   0   41.20    3.00
  -3   3   0   38.60    2.00
   3   3   0   31.80    2.60
   4  -3   0  171.48    4.70
   4   3   0  174.98    5.20
  -4   3   0  166.88    4.60
   5  -3   0  140.99    4.50
  -5   3   0  131.49    4.30
   5   3   0  139.29    4.90
   6  -3   0   39.30    3.30
   6   3   0   39.00    3.70
  -6   3   0   39.90    2.90
   7  -3   0  260.97    7.50
  -7   3   0  268.47    7.40
   7   3   0  268.77    8.10
   8  -3   0   58.39    4.40
   8   3   0   66.69    5.20
   9  -3   0   19.80    3.10
   9   3   0   19.40    3.90
  10   3   0   -4.60    3.40
  11   3   0   -0.90    3.90
   0  -4   0 2708.63   50.39
   0   4   0 2683.03   50.39
  -1  -4   0  554.24   11.50
   1  -4   0  554.54   11.10
   1  -4   0  568.74   11.00
  -1  -4   0  584.94   12.70
  -1   4   0  582.64   11.10
   1   4   0  570.64   11.60
   2  -4   0   27.50    1.40
  -2  -4   0   23.20    2.70
   2  -4   0   30.30    1.60
  -3  -4   0  131.29    4.90
   3  -4   0  132.99    3.60
   3   4   0  130.09    4.50
   4  -4   0    6.80    1.70
   4   4   0   11.60    2.30
  -4   4   0    7.40    1.40
   5  -4   0   61.29    3.30
  -5   4   0   58.39    3.00
   5   4   0   68.49    4.40
   6  -4   0   25.70    2.70
   6   4   0   29.90    3.50
   7  -4   0    8.80    2.50
   7   4   0   15.30    3.40
   8   4   0   65.39    5.80
   9   4   0   77.79    6.50
  10   4   0    3.60    4.00
  11   4   0   14.00    4.80
   0  -5   0   -1.70    1.00
   0  -5   0    1.70    2.70
   0  -5   0   -2.00    0.90
   0   5   0   -1.10    1.30
  -1  -5   0   88.79    4.40
  -1   5   0   97.39    2.70
   1   5   0   94.49    3.30
  -2  -5   0   30.10    3.20
   2  -5   0   24.40    1.50
   2   5   0   21.70    2.40
   3  -5   0    1.60    1.20
  -3  -5   0    1.10    2.90
   3   5   0   -0.40    2.30
  -4  -5   0   23.00    3.70
   4   5   0   13.60    2.90
   5   5   0   29.20    3.80
   6   5   0   17.10    3.90
   7   5   0   40.80    4.80
   8   5   0   37.50    4.90
   9   5   0    7.60    4.30
  10   5   0   -3.40    4.10
   0  -6   0  549.85   13.60
  -1  -6   0  196.48    7.10
  -2  -6   0   22.60    4.10
   2   6   0   16.30    2.60
  -3  -6   0   49.60    5.20
   3   6   0   49.20    4.20
  -4  -6   0   11.50    4.00
   4   6   0    7.00    3.20
   5   6   0   14.80    3.80
   6   6   0   20.10    4.10
   7   6   0   15.30    4.40
   8   6   0   25.70    5.20
   0  -7   0   -3.10    4.00
  -1  -7   0   -2.20    4.10
   1  -7   0    1.90    4.40
  -2  -7   0   -1.40    4.00
   2   7   0    2.00    2.30
  -3  -7   0    6.50    4.30
   3   7   0    3.80    2.80
  -4  -7   0   27.70    4.80
   5   7   0   13.10    3.80
   6   7   0    8.20    4.40
   0  -8   0   83.09    7.20
   1  -8   0   27.90    5.30
  -1  -8   0   39.10    5.70
   2  -8   0   -7.80    5.20
  -2  -8   0    3.80    5.70
  -3  -8   0    0.50    5.40
  12   0  -1   18.80    4.30
  11   0  -1   62.89    6.00
  10   0  -1   18.30    3.40
   9   0  -1  180.08    7.00
   8   0  -1  246.98    7.70
   7   0  -1   50.89    3.70
   6   0  -1  289.27    7.50
   5   0  -1  380.06    9.00
  -5   0   1  395.46    9.00
   4   0  -1   77.09    3.20
  -4   0   1   77.69    3.00
   4   0  -1   78.29    3.00
   3   0  -1   65.79    2.70
  -3   0   1   65.69    2.60
   3   0  -1   63.09    2.50
   2   0  -1 2443.86   47.20
  -2   0   1 2590.04   47.30
   2   0  -1 2529.55   47.20
  -1   0   1  510.85    9.90
   1   0  -1  510.95    9.90
   1   0  -1  516.65    9.90
   1   0   1  716.43   14.20
  -1   0  -1  722.43   13.80
   1   0   1  731.73   13.80
   2   0   1 1456.35   27.80
  -2   0  -1 1463.85   27.80
   3   0   1  664.73   13.70
  -3   0  -1  697.13   13.80
  -4   0  -1  840.42   17.20
   4   0   1  864.21   17.30
   5   0   1  207.38    6.00
  -5   0  -1  213.08    5.90
   6   0   1   17.20    2.40
   7   0   1    2.70    2.10
   8   0   1   32.90    3.50
   9   0   1  120.39    5.80
  10   0   1    0.10    3.00
  11   0   1   43.10    4.90
  12   0   1   64.69    6.30
  12  -1  -1   76.49    6.40
  12   1  -1   78.29    7.00
  11  -1  -1    8.10    3.40
  11   1  -1   12.80    3.80
  10  -1  -1    0.70    2.90
  10   1  -1   -4.70    2.70
   9  -1  -1    7.30    2.80
   9   1  -1   11.40    2.90
   8  -1  -1  110.99    5.10
   8   1  -1  113.99    5.70
   7  -1  -1   90.79    4.30
   7   1  -1   96.79    4.40
   6  -1  -1   10.50    2.00
   6   1  -1    9.00    2.00
   5  -1  -1   30.10    2.80
  -5   1   1   30.50    2.50
   5   1  -1   28.30    2.70
  -4  -1   1  696.73   14.20
   4  -1  -1  691.73   14.10
   4  -1  -1  692.63   14.20
  -4   1   1  689.03   14.20
   4   1  -1  678.93   14.20
   3  -1  -1  357.96    7.60
  -3  -1   1  338.67    7.50
   3  -1  -1  346.07    7.40
   3   1  -1  340.87    7.60
  -3   1   1  344.07    7.50
   2  -1  -1  144.79    3.50
  -2  -1   1  134.19    3.50
   2  -1  -1  140.89    3.60
  -2   1   1  139.19    3.50
   2   1  -1  137.99    3.60
  -2   1   1  137.69    3.50
   1  -1  -1  632.04   12.40
  -1  -1   1  641.54   12.30
   1  -1  -1  645.44   12.40
   1   1  -1  638.14   12.30
  -1   1   1  629.94   12.40
   1   1  -1  663.43   12.60
   1   1  -1  633.24   12.30
  -1   1   1  640.34   12.40
   0  -1   1  304.57    5.70
   0  -1  -1  294.57    6.00
   0   1   1  295.27    6.00
   0   1  -1  296.77    5.70
  -1  -1  -1 1207.18   23.10
  -1  -1  -1 1215.18   23.90
   1  -1   1 1184.68   22.70
   1   1   1 1227.08   23.90
   1   1   1 1235.48   23.10
  -2  -1  -1   61.19    2.40
   2  -1   1   60.99    2.20
  -2  -1  -1   63.29    2.50
   2   1   1   66.09    2.60
   2   1   1   65.09    2.30
  -2   1  -1   60.69    2.10
  -3  -1  -1  285.07    6.50
   3  -1   1  276.67    6.30
   3   1   1  268.87    6.50
  -3   1  -1  279.47    6.20
   3   1   1  269.97    6.50
  -4  -1  -1 1730.13   32.40
   4  -1   1 1615.74   32.00
  -4   1  -1 1670.23   32.10
   4   1   1 1650.83   33.20
   4   1   1 1635.64   32.20
   5  -1   1 2210.88   42.30
  -5   1  -1 2152.98   42.30
   5   1   1 2233.78   42.70
   6  -1   1   22.30    2.30
   6   1   1   19.80    2.50
  -6   1  -1   12.40    1.70
   7  -1   1  232.98    7.00
   7   1   1  232.18    7.30
   8  -1   1  180.88    6.50
   8   1   1  168.78    6.60
   9  -1   1    2.60    2.50
   9   1   1    8.30    2.90
  10  -1   1    4.60    2.70
  10   1   1    6.50    3.20
  11  -1   1   25.00    3.90
  11   1   1   32.90    4.60
  12  -1   1    2.60    3.40
  12   1   1    5.50    3.50
  12   2  -1   30.40    5.50
  11  -2  -1   47.50    4.70
  11   2  -1   47.30    5.00
  10  -2  -1    6.40    3.00
  10   2  -1    5.70    3.50
   9  -2  -1  145.89    6.50
   9   2  -1  151.08    7.00
   8  -2  -1  216.88    7.30
   8   2  -1  219.68    7.50
   7  -2  -1   19.10    2.60
   7   2  -1   15.40    2.70
   6  -2  -1  396.86    9.40
  -6   2   1  381.96    9.30
   6   2  -1  381.86    9.50
   5  -2  -1  105.59    4.00
  -5   2   1  108.69    3.80
   5   2  -1  114.49    4.30
   4  -2  -1  108.99    3.70
   4   2  -1  110.19    3.80
   4   2  -1  111.39    3.60
  -4   2   1  109.89    3.60
   3  -2  -1  752.92   14.90
  -3  -2   1  761.42   15.00
   3  -2  -1  721.03   14.80
  -3   2   1  739.73   14.90
   3   2  -1  756.02   15.40
  -3   2   1  737.83   14.90
   3   2  -1  751.42   15.00
   2  -2  -1  338.77    7.20
  -2  -2   1  337.67    7.30
   2  -2  -1  351.96    7.30
  -2   2   1  353.46    7.30
  -2   2   1  352.56    7.30
   2   2  -1  336.87    7.30
   2   2  -1  350.16    7.60
  -1  -2   1 1699.33   31.70
   1  -2  -1 1685.13   31.90
  -1  -2   1 1673.53   33.00
   1  -2  -1 1750.52   32.00
  -1   2   1 1687.83   31.90
   1   2  -1 1675.23   31.80
   0  -2  -1 3537.15   65.79
   0   2   1 3527.75   65.79
  -1  -2  -1  655.73   13.60
  -1  -2  -1  640.94   13.00
  -1   2  -1  659.43   12.30
   1   2   1  670.33   13.10
   2  -2   1  399.56    7.90
   2  -2   1  399.46    8.00
  -2  -2  -1  388.46    8.90
  -2  -2  -1  391.86    8.60
   2   2   1  407.66    8.60
   2   2   1  395.36    8.90
  -3  -2  -1   77.59    3.10
   3  -2   1   76.79    2.60
  -3  -2  -1   78.69    3.30
  -3   2  -1   75.79    2.50
   3   2   1   81.89    3.10
   3   2   1   76.19    3.20
   4  -2   1  159.68    4.40
   4   2   1  158.68    4.80
  -4   2  -1  152.98    4.20
   5  -2   1   31.80    2.60
  -5   2  -1   27.90    2.30
   5   2   1   34.40    2.90
   6  -2   1    4.50    1.80
  -6   2  -1    2.60    1.40
   6   2   1    4.60    1.80
   7  -2   1    2.20    1.90
  -7   2  -1    2.90    1.80
   7   2   1    0.20    2.20
   8  -2   1   38.00    3.60
   8   2   1   40.40    3.90
   9  -2   1  151.58    6.30
   9   2   1  149.29    6.80
  10  -2   1   -1.40    2.60
  10   2   1   -3.30    2.80
  11  -2   1   36.90    4.80
  11   2   1   38.00    5.10
  12   2   1   61.49    6.30
  11   3  -1    5.10    4.10
  10   3  -1    3.10    3.80
   9  -3  -1   11.60    3.00
   9   3  -1    8.80    3.40
   8  -3  -1   49.40    4.50
   8   3  -1   58.39    5.00
   7  -3  -1   35.60    3.60
  -7   3   1   33.70    3.30
   7   3  -1   31.50    3.40
   6  -3  -1   -2.50    1.80
  -6   3   1   -0.80    1.60
   6   3  -1   -0.30    2.10
   5  -3  -1   12.60    2.00
  -5   3   1   10.50    1.70
   5   3  -1   10.10    2.00
   4  -3  -1  143.89    4.40
   4   3  -1  142.69    4.50
  -4   3   1  140.39    4.20
   3  -3  -1   54.69    2.60
   3   3  -1   55.19    2.90
   3   3  -1   55.29    2.70
  -3   3   1   57.69    2.60
  -3   3   1   54.89    2.50
  -2  -3   1   94.89    3.30
  -2  -3   1   89.19    2.80
   2  -3  -1   91.19    2.90
   2  -3  -1   87.99    2.70
   2   3  -1   89.59    3.10
   2   3  -1   88.29    3.00
  -2   3   1   93.29    2.90
  -1  -3   1  105.49    2.60
  -1  -3   1  105.79    3.30
   1  -3  -1  108.69    3.10
   1  -3  -1  108.79    3.00
  -1   3   1  107.39    3.00
   1   3  -1   95.89    2.80
   0  -3  -1  180.18    4.30
   0   3   1  176.18    4.30
  -1  -3  -1    7.70    1.80
  -1  -3  -1    5.20    1.20
   1   3   1    5.70    1.40
  -2  -3  -1   75.99    3.30
   2  -3   1   74.69    2.00
   2  -3   1   79.19    1.90
  -2  -3  -1   76.19    3.00
  -2   3  -1   77.59    2.10
   2   3   1   71.99    3.20
   3  -3   1   80.49    2.40
  -3  -3  -1   81.79    3.70
   3  -3   1   86.59    2.70
   3   3   1   72.39    3.50
   4  -3   1  308.27    7.00
  -4   3  -1  307.77    7.00
   4   3   1  310.27    7.70
   5  -3   1  769.92   15.70
  -5   3  -1  729.73   15.60
   5   3   1  782.62   16.40
   6  -3   1   43.10    3.30
   6   3   1   47.80    4.10
  -6   3  -1   42.10    2.90
   7  -3   1  115.09    4.80
  -7   3  -1  116.39    4.60
   7   3   1  124.09    5.80
   8  -3   1   58.59    4.40
   8   3   1   60.59    5.30
   9  -3   1   16.60    3.00
   9   3   1   18.80    4.00
  10   3   1    3.90    3.60
  11   3   1    7.70    4.40
  11   4  -1   13.30    4.70
  10   4  -1   12.30    4.10
   9   4  -1   82.09    6.60
   8   4  -1  133.69    7.00
   7  -4  -1   47.80    4.10
   7   4  -1   48.90    4.90
   6  -4  -1   84.49    4.30
   6   4  -1   92.29    5.10
   5  -4  -1  135.49    4.70
   5   4  -1  138.69    5.10
  -5   4   1  128.29    4.40
   4  -4  -1   17.00    2.00
  -4   4   1   14.20    1.80
   4   4  -1   17.10    2.30
   3  -4  -1  110.69    3.60
  -3  -4   1  117.69    4.30
   3   4  -1  108.09    3.90
  -3   4   1  108.79    3.70
   2  -4  -1  192.58    4.70
  -2  -4   1  187.28    5.50
  -2   4   1  201.48    4.90
   2   4  -1  179.88    5.00
   1  -4  -1  222.98    5.50
   1  -4  -1  247.68    5.50
  -1   4   1  248.28    5.50
   1   4  -1  219.38    5.40
   0  -4  -1  702.53   14.30
   0  -4   1  711.13   15.10
   0   4   1  718.73   14.20
  -1  -4  -1  239.68    6.70
   1   4   1  230.78    5.90
  -2  -4  -1   15.00    2.30
   2   4   1   14.30    2.10
   3  -4   1   10.10    1.20
  -3  -4  -1    9.50    2.50
   3  -4   1    9.60    1.00
   3   4   1   10.60    2.20
  -3   4  -1   11.00    1.20
   4  -4   1   30.10    2.20
  -4  -4  -1   31.50    3.40
   4   4   1   30.60    2.90
   5  -4   1    1.90    1.60
  -5   4  -1    0.50    1.40
   5   4   1    2.20    2.60
   6  -4   1    2.20    1.90
   6   4   1    4.80    3.00
   7   4   1    8.30    3.30
   8   4   1   42.10    4.60
   9   4   1   36.10    4.90
  10   4   1    4.70    4.30
  11   4   1   29.60    5.30
  10   5  -1   -5.50    4.20
   9   5  -1   22.90    4.90
   8   5  -1   48.50    5.20
   7   5  -1   33.90    4.20
   6   5  -1    1.90    3.30
   5   5  -1   43.80    4.20
   4  -5  -1   34.10    3.20
   4   5  -1   43.90    3.90
   3  -5  -1    8.40    1.80
  -3  -5   1   14.90    3.00
  -3   5   1    9.90    1.90
   3   5  -1    8.60    2.20
  -2  -5   1    8.50    2.60
   2  -5  -1    6.10    1.50
  -2   5   1    8.80    1.90
   2   5  -1    6.00    1.80
  -1  -5   1    2.40    2.40
   1  -5  -1    1.60    1.20
   1   5  -1    1.30    1.20
  -1   5   1    3.00    1.70
   0  -5  -1    3.50    1.40
   0  -5  -1    0.60    2.60
   0  -5   1   -1.40    2.20
   0   5   1    3.60    1.70
  -1  -5  -1   23.00    3.10
   1   5   1   21.90    2.30
  -2  -5  -1   23.90    3.30
   2   5   1   25.00    2.60
  -3  -5  -1   17.80    3.50
   3   5   1   10.70    2.70
  -4  -5  -1  225.48    7.50
   4   5   1  234.48    7.30
   5   5   1  187.38    7.20
   6   5   1   14.10    3.70
   7   5   1   51.39    5.00
   8   5   1   35.90    4.90
   9   5   1    1.00    4.50
  10   5   1   -3.50    4.60
   8   6  -1   42.30    5.40
   7   6  -1   32.40    4.60
   6   6  -1   14.30    3.90
   5   6  -1   26.10    3.70
   4   6  -1    2.40    2.80
  -3  -6   1   33.30    4.20
   3   6  -1   28.50    3.00
  -2  -6   1   28.20    3.90
  -2   6   1   18.60    2.20
   2   6  -1    7.80    2.20
  -1  -6   1   53.59    4.70
  -1   6   1   40.30    3.10
   0  -6  -1  126.09    6.00
   0  -6   1  132.69    5.60
   0   6   1  129.89    4.50
   1  -6   1   95.19    5.70
  -1  -6  -1  110.59    5.90
   1   6   1  100.49    4.30
  -2  -6  -1   16.50    4.10
   2   6   1   11.10    2.80
  -3  -6  -1    2.10    4.00
   3   6   1   -3.50    2.70
  -4  -6  -1    3.10    3.90
   4   6   1    7.30    3.30
   5   6   1   -1.90    3.50
   6   6   1    2.50    4.10
   7   6   1   14.80    4.40
   8   6   1    9.20    4.70
   6   7  -1   -1.80    3.70
   5   7  -1    7.90    3.50
   4   7  -1    7.30    2.90
  -3  -7   1   14.20    4.20
  -2  -7   1   -0.10    4.00
   1  -7  -1   -2.00    4.30
  -1  -7   1    0.30    3.80
   0  -7   1    0.30    3.90
   0  -7  -1    7.60    4.40
   0   7   1    1.60    1.90
  -1  -7  -1    5.60    4.60
   1  -7   1   -1.60    3.80
   1   7   1    0.20    2.40
  -2  -7  -1    5.00    4.40
   2   7   1    2.00    2.60
  -3  -7  -1    8.20    4.70
   3   7   1    2.30    3.00
  -4  -7  -1   43.30    5.50
   4   7   1   31.60    4.00
   5   7   1   36.10    4.60
   6   7   1   12.50    4.80
   2  -8  -1   -3.30    5.40
   1  -8  -1   29.30    6.00
   0  -8  -1   50.99    6.60
  -1  -8  -1   21.60    5.70
  -2  -8  -1   -0.40    5.10
  -3  -8  -1    2.90    5.40
  12   0  -2   -2.80    3.40
  11   0  -2  101.39    6.70
  10   0  -2   15.70    3.40
   9   0  -2   20.80    3.40
   8   0  -2  813.32   18.00
   7   0  -2  343.37    9.00
   6   0  -2   62.49    3.70
   5   0  -2   32.50    2.90
   4   0  -2  267.07    6.50
  -3   0   2  354.76    7.90
  -3   0   2  373.46    8.00
   3   0  -2  364.36    8.00
  -2   0   2    9.90    1.20
  -2   0   2   13.40    1.40
   2   0  -2   13.50    1.40
   2   0  -2   11.10    1.40
   1   0  -2  592.54   11.60
  -1   0   2  589.14   11.60
   1   0  -2  590.64   11.70
  -1   0   2  592.74   11.60
   0   0   2  547.25   10.60
   0   0  -2  526.15   10.60
  -1   0  -2  951.10   18.60
   1   0   2  979.20   19.00
  -1   0  -2  949.71   19.00
   1   0   2  985.00   18.60
  -2   0  -2   63.09    2.50
   2   0   2   63.29    2.30
   2   0   2   60.69    2.50
   3   0   2   13.80    1.60
  -3   0  -2   10.10    1.30
  -4   0  -2  233.38    5.90
   4   0   2  226.48    6.00
  -5   0  -2   19.30    2.10
   5   0   2   23.70    2.30
   6   0   2  178.38    5.50
   7   0   2   20.90    2.60
   8   0   2   37.00    3.70
   9   0   2   42.30    3.90
  10   0   2   33.30    3.80
  11   0   2    6.50    3.50
  12   0   2   73.89    6.90
  12  -1  -2    6.20    3.30
  12   1  -2    5.70    3.90
  11  -1  -2   24.50    3.80
  11   1  -2   25.40    4.40
  10  -1  -2   20.60    3.80
  10   1  -2   23.20    4.00
   9  -1  -2   35.50    3.60
   9   1  -2   37.60    3.90
   8  -1  -2  345.87    9.50
   8   1  -2  351.86    9.80
   7  -1  -2   16.30    2.50
   7   1  -2   19.80    2.60
   6  -1  -2   76.79    3.90
   6   1  -2   76.29    3.70
   5  -1  -2   65.09    3.40
   5   1  -2   62.19    3.10
  -5   1   2   62.49    3.10
   5   1  -2   59.69    3.30
   4  -1  -2  584.64   12.40
   4  -1  -2  580.04   12.30
  -4  -1   2  603.54   12.40
   4   1  -2  588.54   12.30
  -4   1   2  581.54   12.30
   4   1  -2  589.94   12.40
  -4   1   2  567.34   12.30
  -3  -1   2  360.26    7.70
   3  -1  -2  348.17    7.70
   3  -1  -2  347.67    7.80
  -3   1   2  356.36    7.80
   3   1  -2  349.96    7.80
   3   1  -2  354.76    7.70
  -3   1   2  357.46    7.80
  -2  -1   2  617.04   12.20
   2  -1  -2  623.84   12.40
  -2  -1   2  604.64   12.20
   2  -1  -2  614.34   12.40
   2   1  -2  610.34   12.20
   2   1  -2  623.94   12.30
  -2   1   2  604.34   12.30
  -2   1   2  624.84   12.40
  -1  -1   2 3723.03   72.59
  -1  -1   2 3858.31   73.79
   1  -1  -2 4116.79   73.79
   1  -1  -2 3999.70   73.99
   1   1  -2 3964.70   74.19
  -1   1   2 3781.42   73.89
   1   1  -2 3829.62   73.09
   0  -1   2  623.54   11.80
   0  -1  -2  615.84   12.20
   0   1  -2  607.24   11.80
   0   1   2  611.84   12.20
  -1  -1  -2  225.98    5.30
   1  -1   2  228.98    4.90
  -1  -1  -2  222.28    5.40
   1   1   2  235.18    5.40
  -1   1  -2  227.38    4.90
   1   1   2  230.58    5.40
   2  -1   2   39.10    2.00
  -2  -1  -2   38.40    2.20
  -2  -1  -2   40.90    2.20
  -2   1  -2   39.90    1.90
   2   1   2   41.00    2.20
   2   1   2   39.50    2.40
  -3  -1  -2    9.10    1.40
   3  -1   2   11.90    1.50
  -3   1  -2   11.30    1.40
   3   1   2    9.70    1.60
   3   1   2   14.00    1.70
   4  -1   2 1714.93   34.20
  -4  -1  -2 1863.01   34.70
  -4   1  -2 1820.52   34.40
   4   1   2 1709.13   34.50
   5  -1   2 1203.28   24.30
   5   1   2 1208.38   24.50
  -5   1  -2 1233.08   24.30
   6  -1   2  194.88    6.00
  -6   1  -2  200.38    5.90
   6   1   2  192.58    6.10
   7  -1   2  176.48    6.00
   7   1   2  160.98    6.00
   8  -1   2   62.29    4.50
   8   1   2   61.39    4.60
   9  -1   2    8.90    2.60
   9   1   2   12.70    3.20
  10  -1   2   95.69    5.80
  10   1   2   92.89    6.10
  11  -1   2    6.80    3.00
  11   1   2    4.40    3.70
  12  -1   2    3.30    3.10
  12   1   2    0.40    3.80
  12  -2  -2   -1.10    3.30
  12   2  -2   -3.80    4.00
  11  -2  -2   80.89    5.90
  11   2  -2   80.99    7.10
  10  -2  -2   33.20    3.90
  10   2  -2   35.00    4.70
   9  -2  -2   27.10    3.40
   9   2  -2   26.40    3.60
   8  -2  -2  748.53   17.10
   8   2  -2  773.12   17.40
   7  -2  -2  402.96   10.10
   7   2  -2  379.46   10.00
   6  -2  -2   27.70    2.80
  -6   2   2   29.60    2.70
   6   2  -2   29.20    2.90
   5  -2  -2   26.80    2.50
   5   2  -2   25.10    2.40
  -5   2   2   27.70    2.40
   4  -2  -2    2.90    1.60
  -4   2   2    3.10    1.60
   4   2  -2    0.60    1.30
  -4   2   2    2.80    1.30
   4   2  -2    2.70    1.30
   3  -2  -2  256.67    6.10
  -3  -2   2  252.37    5.90
   3  -2  -2  248.38    5.90
   3   2  -2  240.98    5.90
   3   2  -2  250.77    5.80
  -3   2   2  243.88    6.00
  -3   2   2  240.78    6.00
   3   2  -2  248.28    5.90
   2  -2  -2  131.19    3.60
  -2  -2   2  126.99    3.30
   2  -2  -2  121.79    3.60
   2   2  -2  127.59    3.30
   2   2  -2  125.59    3.30
  -2   2   2  129.39    3.70
   2   2  -2  126.59    3.40
  -2   2   2  121.09    3.60
   1  -2  -2  431.36    8.90
   1  -2  -2  423.26    8.80
  -1  -2   2  426.16    8.30
   1   2  -2  417.16    8.40
  -1   2   2  412.76    8.80
   0  -2   2  105.99    2.20
   0  -2  -2   99.19    3.10
   0   2   2   91.29    3.00
   0   2  -2  100.59    2.20
   0   2  -2  100.99    2.30
  -1  -2  -2 1264.07   24.20
  -1  -2  -2 1269.57   25.20
   1  -2   2 1235.88   23.40
  -1   2  -2 1244.98   23.40
   1   2   2 1236.78   24.20
  -2  -2  -2  348.67    7.80
  -2  -2  -2  346.77    8.20
   2  -2   2  344.27    7.20
   2   2   2  348.07    8.20
   2   2   2  356.76    8.00
  -3  -2  -2    2.30    1.70
   3  -2   2    4.30    1.20
  -3  -2  -2    1.50    1.30
   3   2   2    2.50    1.70
  -3   2  -2    4.00    1.00
   4  -2   2   71.49    3.00
  -4   2  -2   74.79    3.00
   4   2   2   78.19    3.80
   5  -2   2   20.90    2.20
  -5   2  -2   14.20    1.70
   5   2   2   14.90    2.40
   6  -2   2   30.60    3.10
  -6   2  -2   26.30    2.50
   6   2   2   32.50    3.10
   7  -2   2  141.19    5.50
  -7   2  -2  149.29    5.20
   7   2   2  148.89    6.10
   8  -2   2    9.50    2.70
   8   2   2   10.90    3.00
   9  -2   2   30.70    3.60
   9   2   2   29.50    4.00
  10  -2   2   33.50    3.90
  10   2   2   38.20    4.70
  11   2   2   -4.40    3.20
  12   2   2   54.29    5.60
  11   3  -2   17.20    4.30
  10  -3  -2    4.20    2.90
  10   3  -2    6.60    3.80
   9  -3  -2   23.20    3.40
   9   3  -2   25.00    4.10
   8  -3  -2  243.58    8.00
   8   3  -2  276.57    8.80
   7  -3  -2   12.90    2.80
   7   3  -2   10.60    2.80
   6  -3  -2    2.40    2.10
   6   3  -2    4.00    2.00
   6   3  -2    2.00    2.10
  -6   3   2    2.40    1.70
   5  -3  -2   63.59    3.70
  -5   3   2   62.39    3.20
   5   3  -2   66.49    3.50
   5   3  -2   67.69    3.70
   4  -3  -2  270.77    6.80
  -4   3   2  256.77    6.70
  -4   3   2  256.87    6.60
   4   3  -2  271.97    6.70
   4   3  -2  260.67    6.60
   3  -3  -2    3.90    1.50
   3   3  -2   -1.10    1.20
  -3   3   2    1.90    1.30
   3   3  -2    2.10    1.30
   3   3  -2    2.80    1.40
  -3   3   2    3.20    1.50
  -2  -3   2  301.67    6.50
   2  -3  -2  304.97    7.00
   2   3  -2  295.87    6.50
   2   3  -2  313.57    7.00
  -2   3   2  303.17    7.00
   2   3  -2  308.57    6.70
   1  -3  -2 1024.50   19.50
  -1  -3   2  983.30   18.70
   1  -3  -2 1033.00   19.50
  -1  -3   2  989.00   19.80
  -1   3   2  968.20   19.40
   1   3  -2  944.41   18.80
   1   3  -2 1008.20   18.80
   0  -3  -2    4.50    1.40
   0  -3   2    2.10    1.10
   0   3   2    4.20    1.40
  -1  -3  -2  151.48    4.30
  -1  -3  -2  149.39    4.70
   1   3   2  135.69    4.30
   2  -3   2    4.00    0.70
  -2  -3  -2    4.70    1.80
   2  -3   2    5.10    0.60
   2   3   2    2.70    1.60
  -2   3  -2    4.90    0.70
   3  -3   2   79.19    2.60
  -3  -3  -2   86.79    3.90
   3  -3   2   87.59    2.50
   3   3   2   85.69    3.90
  -4  -3  -2  473.45   11.40
   4  -3   2  494.45   10.20
   4   3   2  473.35   11.20
  -4   3  -2  467.65   10.10
   5  -3   2  453.35   10.10
  -5   3  -2  441.26   10.00
   5   3   2  467.95   11.20
   6  -3   2   34.30    3.20
   6   3   2   31.20    3.40
  -6   3  -2   27.70    2.80
   7  -3   2   47.60    3.90
   7   3   2   48.70    4.70
   8  -3   2   22.60    3.10
   8   3   2   22.70    3.80
   9   3   2   13.40    3.80
  10   3   2   49.40    5.20
  11   3   2    6.80    4.10
  11   4  -2   20.80    5.10
  10   4  -2   29.40    5.00
   9   4  -2   41.50    5.20
   8   4  -2  237.78    8.60
   7  -4  -2  233.58    7.70
   7   4  -2  260.47    8.30
   6  -4  -2   13.30    2.60
   6   4  -2   20.90    3.20
   5  -4  -2    5.00    2.10
  -5   4   2    5.80    1.80
   5   4  -2    5.60    2.00
   5   4  -2    4.70    2.30
   4  -4  -2   13.40    2.10
  -4   4   2   10.50    2.10
   4   4  -2   12.20    2.20
   4   4  -2    9.70    1.80
   3  -4  -2   53.09    3.10
   3   4  -2   52.59    3.00
  -3   4   2   52.89    3.10
   3   4  -2   57.09    2.70
   2  -4  -2   42.10    2.60
  -2  -4   2   40.40    2.70
   2   4  -2   26.50    2.30
   1  -4  -2   11.30    1.60
  -1  -4   2    9.50    1.80
  -1   4   2    9.40    1.70
   0  -4   2   24.50    2.20
   0   4   2   17.00    1.80
  -1  -4  -2  202.58    6.30
   1   4   2  199.78    5.60
  -2  -4  -2   30.50    3.20
   2   4   2   22.30    2.40
   3  -4   2    6.30    0.80
  -3  -4  -2    7.20    2.40
  -3   4  -2    8.40    1.00
   3   4   2    8.10    2.20
   4  -4   2    4.50    1.30
  -4  -4  -2    9.30    2.90
   4   4   2    2.50    2.40
  -4   4  -2    3.30    1.20
   5  -4   2    2.80    1.60
  -5   4  -2    2.00    1.40
   5   4   2    3.00    2.70
   6  -4   2   50.59    3.30
   6   4   2   53.69    5.50
   7   4   2   35.20    4.30
   8   4   2   -1.20    3.50
   9   4   2   10.00    4.40
  10   4   2   13.60    4.40
  10   5  -2    3.80    4.40
   9   5  -2   14.70    4.50
   8   5  -2   48.00    5.00
   7   5  -2   27.00    4.20
   6   5  -2    2.00    3.20
   5   5  -2   10.20    3.10
   4  -5  -2   76.29    3.90
  -4   5   2   78.99    4.20
   4   5  -2   84.69    4.20
   3  -5  -2   78.19    3.60
  -3   5   2   90.89    4.10
   3   5  -2   75.09    3.70
  -2  -5   2   21.00    2.80
   2  -5  -2   15.40    2.00
   2   5  -2   26.20    2.40
  -2   5   2   19.80    2.30
  -1  -5   2  217.58    6.30
   1  -5  -2  218.08    5.90
  -1   5   2  219.08    5.90
   0  -5   2   86.29    4.00
   0  -5  -2  105.19    5.20
   0   5   2  102.89    4.10
  -1  -5  -2    7.70    3.00
   1   5   2    4.40    2.30
  -2  -5  -2   39.30    4.00
   2   5   2   41.80    3.80
  -3  -5  -2    5.40    3.20
   3   5   2    6.10    2.90
  -4  -5  -2  132.89    6.20
   4   5   2  124.19    6.10
  -5  -5  -2  172.98    7.40
   5   5   2  183.68    7.10
   6   5   2   65.49    5.60
   7   5   2   21.30    4.50
   8   5   2   23.60    5.00
   9   5   2   -0.10    4.40
   8   6  -2  109.19    7.10
   7   6  -2   66.19    5.70
   6   6  -2    8.70    3.60
   5   6  -2    6.90    3.20
   4   6  -2   14.70    2.90
   3   6  -2   23.70    2.50
  -3   6   2   31.50    3.00
  -2  -6   2    7.00    2.90
  -2   6   2    5.60    2.50
  -1  -6   2   20.00    3.20
  -1   6   2   16.60    2.60
   0  -6  -2   21.00    4.50
   0  -6   2   25.00    3.40
   0   6   2   23.40    2.90
   1  -6   2    9.50    3.20
  -1  -6  -2   13.20    4.10
   1   6   2    8.50    2.80
  -2  -6  -2    4.70    3.80
   2   6   2    5.10    2.90
  -3  -6  -2    0.30    3.70
   3   6   2    1.50    3.10
  -4  -6  -2    9.80    4.50
   4   6   2    7.10    3.50
  -5  -6  -2    8.50    4.60
   5   6   2    9.00    4.00
   6   6   2    3.50    4.20
   7   6   2   16.40    4.90
   8   6   2    3.60    4.90
   6   7  -2    0.50    3.70
   5   7  -2    2.90    3.20
   4   7  -2   13.50    2.80
  -2   7   2    7.70    2.60
   1  -7  -2   28.30    5.50
  -1   7   2   29.10    3.00
   0  -7  -2   13.20    4.70
   0  -7   2    8.60    4.40
   0   7   2    8.00    2.80
  -1  -7  -2    5.90    5.10
   1   7   2   -2.50    2.80
  -2  -7  -2    3.00    4.90
   2   7   2    5.80    3.00
  -3  -7  -2    8.80    5.00
   3   7   2   -0.70    3.30
  -4  -7  -2   40.70    6.10
   4   7   2   29.30    4.40
  -5  -7  -2   38.70    6.20
   5   7   2   26.30    4.80
   6   7   2    1.10    4.70
   2  -8  -2    6.10    5.80
   1  -8  -2    3.90    5.50
   0  -8  -2   12.10    5.80
  -1  -8  -2   11.80    5.90
  -2  -8  -2    3.60    5.70
  12   0  -3   21.70    4.50
  11   0  -3   68.09    5.80
  10   0  -3   30.50    3.90
   9   0  -3   32.90    3.80
   8   0  -3  692.83   16.00
   7   0  -3   50.79    4.00
   6   0  -3   31.20    2.70
   5   0  -3  289.57    7.60
   4   0  -3  338.77    8.10
  -4   0   3  340.67    8.10
  -4   0   3  342.47    8.00
   4   0  -3  341.37    7.90
   3   0  -3  794.02   15.90
  -3   0   3  790.22   15.80
   3   0  -3  793.12   15.80
  -3   0   3  762.72   15.80
  -2   0   3  421.86    8.90
   2   0  -3  416.36    8.80
   2   0  -3  413.96    8.90
  -2   0   3  410.56    8.80
   1   0  -3    2.80    1.00
   1   0  -3    2.10    1.10
  -1   0   3    2.30    1.20
   0   0   3  980.30   19.00
   0   0  -3  976.80   19.00
   1   0   3 5277.77  103.49
   1   0   3 5180.68  100.09
  -1   0  -3 5291.87  103.49
  -1   0  -3 5269.17  100.39
   2   0   3   39.00    2.40
   2   0   3   42.20    2.00
  -2   0  -3   40.20    2.20
   3   0   3  853.31   17.10
   3   0   3  833.52   17.40
  -3   0  -3  842.92   17.10
   4   0   3  807.82   17.20
   4   0   3  823.92   17.00
  -4   0  -3  823.22   16.90
  -5   0  -3   48.10    3.10
   5   0   3   51.09    3.30
   6   0   3  324.27    8.50
   7   0   3   29.60    3.20
   8   0   3   34.60    3.70
   9   0   3   34.60    4.00
  10   0   3   85.29    5.90
  11   0   3   -1.50    3.20
  12   0   3   16.60    4.20
  12  -1  -3    0.00    3.30
  12   1  -3   -5.60    3.40
  11  -1  -3    3.90    3.20
  11   1  -3    7.80    3.50
  10  -1  -3   52.89    4.60
  10   1  -3   45.40    4.40
   9  -1  -3   17.10    3.20
   9   1  -3   15.00    3.20
   8  -1  -3   25.70    3.40
   8   1  -3   21.90    3.10
   7  -1  -3   73.99    4.50
   7   1  -3   79.79    4.30
   6  -1  -3  164.78    5.50
   6   1  -3  165.18    5.50
   5  -1  -3   35.80    2.90
   5   1  -3   38.80    2.60
  -5   1   3   33.90    3.10
   5   1  -3   36.00    3.10
   4  -1  -3   49.60    3.00
  -4   1   3   48.60    3.10
  -4   1   3   49.10    2.70
   4   1  -3   51.69    3.00
   4   1  -3   52.39    2.80
  -3  -1   3 1115.39   21.50
   3  -1  -3 1054.49   21.50
  -3  -1   3 1112.79   21.50
   3  -1  -3 1077.79   21.60
  -3   1   3 1061.59   21.60
   3   1  -3 1113.09   21.50
   3   1  -3 1104.89   21.50
  -3   1   3 1100.29   21.60
   2  -1  -3  140.29    4.00
  -2  -1   3  135.49    3.70
  -2  -1   3  141.99    3.90
   2  -1  -3  142.09    4.00
   2   1  -3  139.59    3.80
  -2   1   3  138.79    4.00
   2   1  -3  136.79    3.90
  -2   1   3  143.99    4.10
  -1  -1   3  605.94   12.00
   1  -1  -3  606.54   12.20
   1  -1  -3  603.14   12.30
   1   1  -3  586.94   12.00
  -1   1   3  600.54   12.30
   1   1  -3  609.14   12.00
   0  -1   3  108.79    2.90
   0  -1  -3  110.49    3.30
   0   1  -3  111.19    3.00
   0   1   3  111.59    3.40
   1  -1   3  132.29    3.50
  -1  -1  -3  130.79    3.70
  -1  -1  -3  134.39    3.90
   1  -1   3  136.49    3.10
  -1   1  -3  134.49    3.40
   1   1   3  137.19    3.90
  -2  -1  -3   30.40    2.20
   2  -1   3   31.90    2.10
  -2  -1  -3   30.70    2.20
   2   1   3   33.90    2.20
   2   1   3   30.70    2.30
  -2   1  -3   32.10    1.90
  -3  -1  -3    3.80    1.30
   3  -1   3    4.40    1.40
  -3  -1  -3   11.00    1.80
   3   1   3    6.90    1.50
   3   1   3    8.40    1.90
  -3   1  -3    4.20    1.40
   4  -1   3   30.50    2.40
  -4   1  -3   27.20    2.50
   4   1   3   29.60    2.60
   5  -1   3  126.99    4.40
   5   1   3  119.09    4.80
  -5   1  -3  123.29    4.40
   6  -1   3  155.78    5.40
  -6   1  -3  150.58    5.30
   6   1   3  148.99    5.50
   7  -1   3   67.59    4.10
   7   1   3   59.89    4.40
   8  -1   3  153.18    6.10
   8   1   3  156.68    6.30
   9  -1   3    6.50    2.60
   9   1   3    4.60    3.00
  10  -1   3   91.59    5.90
  10   1   3   93.19    6.40
  11  -1   3   23.70    4.20
  11   1   3   31.50    4.70
  12  -1   3    3.80    3.50
  12   1   3    6.90    3.70
  12  -2  -3    8.10    3.60
  12   2  -3    4.90    4.40
  11  -2  -3   47.20    4.90
  11   2  -3   43.50    5.00
  10  -2  -3   17.20    3.60
  10   2  -3   17.90    3.80
   9  -2  -3   23.30    3.50
   9   2  -3   19.70    3.40
   8  -2  -3  350.96    9.90
   8   2  -3  350.66   10.00
   7  -2  -3   35.20    3.30
   7   2  -3   39.90    3.80
   6  -2  -3    4.30    2.10
   6   2  -3    2.20    1.90
   5  -2  -3   32.60    3.20
   5   2  -3   29.90    2.90
   5   2  -3   30.90    2.60
  -5   2   3   31.10    2.70
  -5   2   3   26.00    2.40
   4  -2  -3  371.96    8.70
   4   2  -3  354.36    8.30
  -4   2   3  368.06    8.70
  -4   2   3  359.46    8.60
   4   2  -3  372.36    8.50
   3  -2  -3  173.28    5.00
  -3  -2   3  175.48    4.60
   3   2  -3  175.98    4.70
  -3   2   3  168.78    4.80
   3   2  -3  172.18    4.60
  -3   2   3  172.68    4.90
   2  -2  -3   40.50    2.40
  -2  -2   3   41.60    2.00
   2  -2  -3   43.50    2.60
  -2   2   3   42.60    2.50
   2   2  -3   41.40    1.70
   2   2  -3   40.90    2.10
   2   2  -3   42.90    2.20
   1  -2  -3    2.30    1.30
  -1  -2   3    3.00    0.90
   1  -2  -3    2.20    1.20
   1   2  -3    2.60    1.00
  -1   2   3    0.80    1.10
   1   2  -3    1.10    0.90
   0  -2  -3   56.29    2.50
   0  -2   3   53.99    1.80
   0   2  -3   50.99    1.90
   0   2   3   51.59    2.60
  -1  -2  -3  332.37    7.60
   1  -2   3  334.67    6.80
  -1  -2  -3  332.27    7.90
   1   2   3  327.87    7.60
  -2  -2  -3  141.59    4.40
   2  -2   3  145.59    3.70
  -2  -2  -3  152.48    4.40
  -2   2  -3  141.59    3.70
   2   2   3  143.99    4.50
  -3  -2  -3  285.47    7.40
   3  -2   3  278.17    6.50
   3   2   3  291.37    7.40
  -3   2  -3  292.47    6.60
  -4  -2  -3   89.39    4.10
   4  -2   3   89.99    3.50
   4   2   3   91.79    4.20
  -4   2  -3   88.09    3.40
   5  -2   3   18.00    2.20
  -5   2  -3   18.30    2.00
   5   2   3   15.00    2.40
   6  -2   3   65.29    3.80
  -6   2  -3   65.49    3.50
   6   2   3   54.79    4.00
   7  -2   3   19.10    2.70
  -7   2  -3   19.20    2.40
   7   2   3   20.30    3.30
   8  -2   3    2.80    2.30
   8   2   3    7.30    2.90
   9  -2   3    3.30    2.50
   9   2   3   -1.00    2.90
  10  -2   3   68.19    5.30
  10   2   3   72.39    6.10
  11   2   3    0.90    3.50
  11   3  -3    1.80    4.10
  10  -3  -3   20.40    3.50
  10   3  -3   20.10    4.30
   9  -3  -3    4.10    2.90
   9   3  -3    1.80    3.20
   8  -3  -3   13.60    3.10
   8   3  -3   18.90    3.40
   7  -3  -3   54.49    4.60
   7   3  -3   64.09    4.70
   6  -3  -3  234.88    7.20
   6   3  -3  237.28    7.00
   6   3  -3  242.18    7.30
   5  -3  -3   18.00    2.40
  -5   3   3   14.70    2.20
   5   3  -3   16.10    2.00
  -5   3   3   17.30    2.20
   5   3  -3   13.00    2.00
   4  -3  -3  147.79    5.00
   4   3  -3  151.18    4.40
   4   3  -3  143.99    4.60
  -4   3   3  157.88    5.10
  -4   3   3  147.69    4.80
   4   3  -3  150.78    4.60
   3  -3  -3  868.61   17.60
  -3   3   3  861.51   17.50
   3   3  -3  841.72   17.50
   3   3  -3  858.71   17.20
   3   3  -3  848.52   17.10
   2   3  -3   71.29    2.60
   1  -3  -3  789.82   16.00
   1   3  -3  774.82   15.10
  -1   3   3  779.72   16.00
   1   3  -3  794.72   15.20
   0   3   3  165.58    5.00
   0   3  -3  168.98    3.60
   0   3  -3  173.98    3.60
  -1  -3  -3   44.10    3.10
   1   3   3   42.00    2.90
  -1   3  -3   40.00    1.50
  -2  -3  -3   75.99    3.70
   2  -3   3   76.89    2.20
  -2   3  -3   79.79    2.30
   2   3   3   78.49    3.70
   3  -3   3    5.60    1.20
  -3  -3  -3    9.60    2.00
   3   3   3    6.00    1.90
   4  -3   3   81.29    3.10
  -4  -3  -3   85.79    4.30
  -4   3  -3   85.29    3.20
   4   3   3   74.79    4.30
   5  -3   3  216.98    5.80
  -5   3  -3  206.58    5.70
   5   3   3  221.78    7.00
   6  -3   3   72.79    3.80
  -6   3  -3   76.39    3.60
   6   3   3   89.19    5.50
   7  -3   3   54.79    3.90
   7   3   3   60.69    5.40
   8  -3   3  162.68    6.80
   8   3   3  165.88    7.60
   9   3   3   21.00    4.20
  10   3   3   53.29    5.70
  11   3   3   38.80    5.60
  10   4  -3    6.40    4.30
   9   4  -3   24.00    4.60
   8   4  -3  159.58    7.40
   7  -4  -3   21.40    3.20
   7   4  -3   32.80    4.00
   6  -4  -3    9.00    2.70
   6   4  -3   10.40    3.10
   5  -4  -3    0.40    2.20
  -5   4   3   -2.70    2.30
  -5   4   3   -3.90    1.60
   5   4  -3    1.10    2.30
   5   4  -3    1.90    1.70
   4  -4  -3   50.19    3.70
  -4   4   3   54.99    3.80
   4   4  -3   53.49    3.10
   4   4  -3   54.39    3.50
   3  -4  -3  139.29    4.90
  -3   4   3  132.79    4.70
   3   4  -3  136.79    4.10
   3   4  -3  146.69    4.50
   2  -4  -3    2.20    1.70
   2   4  -3    1.90    1.40
   2   4  -3   -0.20    1.10
  -2   4   3    1.50    1.80
  -1  -4   3   -1.40    1.30
   1  -4  -3    1.40    1.70
   1   4  -3    0.70    0.80
  -1   4   3   -0.60    1.50
   1   4  -3   -1.30    0.90
   0  -4   3   57.99    2.50
   0   4   3   63.29    3.30
  -1  -4  -3  180.38    6.00
   1   4   3  178.98    5.50
  -2  -4  -3   13.70    2.60
   2   4   3   11.00    2.20
  -3  -4  -3   67.49    4.20
  -3   4  -3   67.79    2.20
   3   4   3   71.09    4.30
  -4  -4  -3   82.09    4.80
   4  -4   3   81.99    2.90
   4   4   3   85.49    4.80
  -4   4  -3   79.89    2.80
  -5  -4  -3    1.30    3.20
   5  -4   3    3.00    1.60
   5   4   3    1.30    2.90
  -5   4  -3    2.10    1.40
   6   4   3   35.20    4.00
   7   4   3   10.10    3.70
   8   4   3   16.90    4.20
   9   4   3    3.70    4.30
  10   4   3   27.70    5.60
   9   5  -3    4.00    4.50
   8   5  -3    6.30    4.00
   7   5  -3   21.10    4.10
   6   5  -3   31.30    3.90
   5   5  -3   16.70    3.10
  -5   5   3   16.40    3.00
   4  -5  -3   36.30    3.70
  -4   5   3   37.90    3.40
   4   5  -3   45.30    3.70
   3  -5  -3   74.49    4.20
   3   5  -3   78.49    3.60
   3   5  -3   79.19    3.40
  -3   5   3   79.69    4.40
  -2   5   3   18.30    2.70
   2   5  -3   23.00    2.30
   1  -5  -3   68.59    3.90
  -1  -5   3   60.19    3.30
  -1   5   3   67.69    4.00
   0  -5  -3   29.60    3.80
   0  -5   3   27.60    2.60
   0   5   3   26.90    2.80
  -1  -5  -3    1.10    2.90
   1   5   3    2.30    2.30
  -2  -5  -3    0.60    3.20
   2   5   3   -5.00    2.60
  -3  -5  -3   12.10    3.40
   3   5   3    0.00    2.80
  -4  -5  -3   20.20    4.10
   4   5   3   10.80    3.40
  -5  -5  -3   46.90    5.10
   5   5   3   42.00    4.70
   6   5   3   19.10    4.30
   7   5   3   31.50    5.00
   8   5   3   29.40    5.20
   9   5   3   -5.50    4.30
   8   6  -3   39.90    5.30
   7   6  -3   11.50    4.00
   6   6  -3   -2.30    3.30
   5   6  -3    2.60    2.90
  -4   6   3   13.70    3.30
   4   6  -3   14.00    2.90
  -3   6   3   20.90    3.10
   3   6  -3   17.70    2.20
  -2   6   3    8.60    2.80
  -1  -6   3    2.70    2.70
  -1   6   3   -1.70    2.70
   0  -6   3   21.10    2.90
   0  -6  -3   18.50    4.50
   0   6   3   27.90    3.30
  -1  -6  -3   48.00    5.10
   1  -6   3   52.29    3.70
   1   6   3   44.70    4.50
  -2  -6  -3    4.00    4.20
   2   6   3   12.50    3.20
  -3  -6  -3   44.10    5.40
   3   6   3   44.10    4.40
  -4  -6  -3   27.60    4.90
   4   6   3   25.60    4.00
  -5  -6  -3    9.70    4.70
   5   6   3    7.30    4.10
   6   6   3    4.00    4.70
   7   6   3    3.00    4.70
   8   6   3   -5.90    4.90
   6   7  -3   19.80    3.90
   5   7  -3    8.30    3.20
  -3   7   3   38.00    3.90
  -2   7   3    9.60    3.40
   1  -7  -3   38.80    6.00
  -1   7   3   33.80    3.60
   0  -7  -3   19.30    5.00
   0   7   3   15.90    3.60
  -1  -7  -3    4.70    5.50
   1   7   3    3.40    3.30
  -2  -7  -3   -2.90    5.00
   2   7   3    2.20    3.40
  -3  -7  -3    6.10    5.20
   3   7   3    1.60    3.80
  -4  -7  -3   12.70    5.00
   4   7   3   13.30    4.40
  -5  -7  -3   28.40    6.10
   5   7   3   14.70    4.70
   6   7   3    6.60    4.70
   1  -8  -3    4.90    5.60
   0  -8  -3   -9.90    5.10
  -1  -8  -3   -7.40    5.70
   1   8   3   -0.90    3.50
  12   0  -4   50.19    5.30
  11   0  -4   17.30    4.10
  10   0  -4    2.70    3.00
   9   0  -4   89.39    5.70
   8   0  -4    2.70    2.70
   7   0  -4    3.50    2.60
   6   0  -4    0.90    1.80
  -5   0   4   30.10    2.80
   5   0  -4   33.20    3.00
   4   0  -4  402.56    9.20
  -4   0   4  396.66    9.20
   4   0  -4  392.96    9.20
   3   0  -4  179.28    5.10
  -3   0   4  176.88    5.00
  -3   0   4  184.58    5.10
   3   0  -4  182.48    5.00
   2   0  -4  109.59    3.60
   2   0  -4  109.79    3.60
  -2   0   4  109.69    3.60
  -2   0   4  111.29    3.70
  -1   0   4  112.59    3.50
   1   0  -4  109.69    3.60
   1   0  -4  112.19    3.50
   0   0   4  965.30   19.20
   0   0  -4  975.60   19.10
  -1   0  -4   27.00    1.80
  -1   0  -4   29.20    2.20
   1   0   4   26.60    2.20
   2   0   4   76.09    2.80
   2   0   4   70.59    3.10
  -2   0  -4   68.49    2.70
  -2   0  -4   75.49    3.10
   3   0   4    0.40    1.30
  -3   0  -4    0.40    1.30
   3   0   4    0.00    1.60
   4   0   4  614.84   13.30
  -4   0  -4  600.84   13.20
   5   0   4    1.60    1.90
   6   0   4   52.69    3.90
   7   0   4   13.50    2.60
   8   0   4    4.00    2.60
   9   0   4   10.20    3.00
  10   0   4   11.70    3.30
  11   0   4   20.10    4.10
  12  -1  -4   37.50    4.70
  12   1  -4   40.70    5.30
  11  -1  -4   24.70    4.10
  11   1  -4   23.90    4.50
  10  -1  -4   53.89    4.90
  10   1  -4   43.90    4.50
   9  -1  -4  235.78    8.40
   9   1  -4  243.58    8.40
   8  -1  -4  131.39    6.00
   8   1  -4  128.79    6.00
   7  -1  -4  172.18    6.20
   7   1  -4  175.38    6.30
   6  -1  -4  122.89    4.80
  -6   1   4  118.69    5.00
   6   1  -4  122.79    5.10
   5  -1  -4   91.09    4.10
   5   1  -4   88.19    4.00
  -5   1   4   90.49    4.10
  -4  -1   4  456.75   10.30
   4  -1  -4  470.35   10.60
   4   1  -4  457.65   10.40
  -4   1   4  463.75   10.50
   4   1  -4  464.05   10.40
   3  -1  -4 1259.97   24.80
   3  -1  -4 1220.98   24.40
  -3  -1   4 1235.68   24.10
   3   1  -4 1203.78   24.10
   3   1  -4 1234.48   24.10
  -3   1   4 1236.88   24.30
  -3   1   4 1185.38   24.20
  -2  -1   4  264.27    6.20
   2  -1  -4  250.87    6.30
  -2  -1   4  261.97    6.20
   2  -1  -4  270.37    6.60
  -2   1   4  258.97    6.50
   2   1  -4  266.47    6.20
   2   1  -4  257.97    6.20
   1  -1  -4 1054.59   20.40
  -1  -1   4  997.90   20.00
   1  -1  -4 1031.70   20.40
  -1   1   4 1004.40   20.30
   1   1  -4 1038.20   20.10
   1   1  -4 1032.50   20.10
   0  -1  -4  313.97    7.20
   0  -1   4  311.67    6.90
   0   1   4  304.07    7.20
   0   1  -4  313.37    6.90
   1  -1   4  169.48    3.90
   1  -1   4  170.18    4.50
  -1  -1  -4  171.68    4.90
  -1  -1  -4  161.98    4.70
   1   1   4  170.08    4.80
  -1   1  -4  175.78    4.50
   2  -1   4 1302.27   25.70
   2  -1   4 1291.97   25.30
  -2  -1  -4 1310.47   25.60
  -2  -1  -4 1274.87   26.30
   2   1   4 1274.57   25.70
  -2   1  -4 1305.87   25.30
   2   1   4 1329.17   26.40
  -3  -1  -4  271.57    7.00
  -3  -1  -4  263.17    6.90
   3  -1   4  272.37    6.70
   3  -1   4  272.97    6.40
  -3   1  -4  267.07    6.60
   3   1   4  267.07    7.00
   4  -1   4   78.39    3.50
  -4   1  -4   84.19    3.70
   4   1   4   77.79    3.90
   5  -1   4  386.06    9.40
  -5   1  -4  385.16    9.40
   5   1   4  381.26    9.80
   6  -1   4  549.85   12.80
   6   1   4  541.95   13.00
   7  -1   4   56.09    4.30
   7   1   4   57.89    4.60
   8  -1   4  138.29    5.90
   8   1   4  135.29    6.40
   9  -1   4    6.00    2.70
   9   1   4   11.40    3.00
  10  -1   4   83.99    5.70
  10   1   4   88.19    6.30
  11  -1   4  100.79    6.60
  11   1   4  111.49    7.10
  11  -2  -4   12.90    3.60
  11   2  -4   14.00    4.00
  10  -2  -4   -0.90    3.00
  10   2  -4    0.60    3.30
   9  -2  -4   79.69    5.60
   9   2  -4   77.19    5.90
   8  -2  -4   11.40    2.90
   8   2  -4   12.30    3.00
   7  -2  -4   -1.90    2.40
   7   2  -4   -0.20    2.40
   6  -2  -4   23.80    3.00
  -6   2   4   28.90    3.00
   6   2  -4   25.80    2.80
   5  -2  -4   67.49    3.90
   5   2  -4   68.79    3.40
   5   2  -4   64.09    3.80
  -5   2   4   65.19    3.80
   4  -2  -4  323.47    8.10
   4   2  -4  324.57    7.90
  -4   2   4  319.87    8.10
   4   2  -4  313.77    7.70
  -4   2   4  319.97    8.10
  -3  -2   4  445.16    9.80
   3  -2  -4  451.05   10.30
  -3   2   4  443.16   10.20
   3   2  -4  461.55    9.90
   3   2  -4  453.55    9.90
   2  -2  -4  358.06    8.40
  -2  -2   4  343.87    7.80
  -2  -2   4  354.66    7.80
   2   2  -4  354.66    7.80
  -2   2   4  350.86    8.20
   2   2  -4  349.17    7.70
  -1  -2   4    3.50    1.10
   1   2  -4    1.10    1.00
  -1   2   4    1.20    1.20
   1   2  -4    4.20    1.10
   0  -2   4   14.50    1.30
   0   2  -4   11.90    1.30
   0   2   4   11.70    1.80
   0   2  -4   12.80    1.30
   1  -2   4    2.80    1.00
  -1  -2  -4    1.20    1.70
   1   2   4    1.70    1.50
  -1   2  -4    0.90    1.00
  -2  -2  -4  163.38    5.20
   2  -2   4  170.88    4.40
  -2   2  -4  175.18    4.50
   2   2   4  170.98    5.20
  -3  -2  -4  201.48    6.10
   3  -2   4  201.98    5.30
  -3   2  -4  204.68    5.30
   3   2   4  196.48    6.00
   4  -2   4  215.58    5.80
  -4  -2  -4  210.98    6.50
   4   2   4  204.08    6.40
  -4   2  -4  221.98    5.90
   5  -2   4    3.60    1.80
   5   2   4    4.80    2.10
  -5   2  -4    1.70    1.70
   6  -2   4    6.30    2.20
  -6   2  -4    7.40    2.00
   6   2   4    6.30    2.70
   7  -2   4   13.80    2.60
   7   2   4   12.50    3.30
   8  -2   4    0.00    2.30
   8   2   4   -0.20    3.00
   9  -2   4   10.10    2.70
   9   2   4   10.10    3.60
  10   2   4   24.40    4.50
  11   2   4    6.40    4.10
  11   3  -4   23.10    5.00
  10  -3  -4   12.60    3.40
  10   3  -4   21.80    4.50
   9  -3  -4  121.39    6.40
   9   3  -4  116.09    6.50
   8  -3  -4   93.99    5.70
   8   3  -4   78.49    5.70
   7  -3  -4   37.70    3.80
   7   3  -4   46.90    4.50
   6  -3  -4   72.19    4.80
   6   3  -4   76.49    4.20
   6   3  -4   78.29    4.20
  -6   3   4   82.29    4.80
   5  -3  -4   24.70    2.90
  -5   3   4   18.80    2.70
   5   3  -4   21.70    2.60
   5   3  -4   19.20    2.30
   4  -3  -4   65.09    3.90
  -4   3   4   59.79    4.00
   4   3  -4   57.29    2.60
   4   3  -4   58.99    3.40
   4   3  -4   56.29    3.10
   3  -3  -4  454.85   10.40
  -3   3   4  446.76   10.40
   3   3  -4  456.65    9.90
   3   3  -4  442.36    9.60
   3   3  -4  446.06    9.80
   2  -3  -4  109.39    4.30
   2   3  -4  107.99    3.40
   2   3  -4  107.29    3.60
  -2   3   4  105.79    4.20
   1  -3  -4   57.29    3.40
  -1  -3   4   60.39    2.10
   1   3  -4   55.99    2.40
  -1   3   4   55.49    3.20
   0  -3   4  182.08    4.10
   0   3   4  177.18    5.30
   0   3  -4  185.58    4.20
   0   3  -4  176.78    4.20
   1  -3   4    6.20    0.90
  -1  -3  -4    6.70    2.10
  -1   3  -4    4.80    1.00
   1   3   4    6.10    1.80
  -2  -3  -4  239.78    6.70
   2  -3   4  238.78    5.10
  -2   3  -4  195.98    5.10
   2   3   4  236.78    6.50
  -3  -3  -4  120.19    4.80
   3  -3   4  119.09    3.60
  -3   3  -4  107.49    3.50
   3   3   4  116.49    4.80
   4  -3   4    3.90    1.40
  -4  -3  -4    7.10    2.60
   4   3   4    0.60    2.10
  -4   3  -4    3.00    1.40
  -5  -3  -4  187.88    6.80
   5  -3   4  179.68    5.50
   5   3   4  183.48    6.80
  -5   3  -4  180.28    5.40
   6  -3   4  256.77    7.20
   6   3   4  258.67    8.50
   7  -3   4   13.90    2.60
   7   3   4   16.80    3.80
   8   3   4   84.09    6.70
   9   3   4    1.90    3.70
  10   3   4   39.80    5.50
  11   3   4   79.59    8.10
  10   4  -4    0.20    4.20
   9   4  -4   23.40    4.60
   8  -4  -4   11.80    3.60
   8   4  -4   13.10    3.60
   7  -4  -4    0.60    2.70
   7   4  -4   -1.80    3.00
   6  -4  -4   -1.40    2.60
   6   4  -4    1.20    2.70
  -6   4   4    4.30    2.80
   5  -4  -4    6.50    2.50
  -5   4   4   12.30    2.90
   5   4  -4   10.80    2.70
   4  -4  -4   20.80    2.60
  -4   4   4   24.80    3.10
   4   4  -4   27.20    2.70
   4   4  -4   24.70    2.20
   4   4  -4   17.00    2.00
   3  -4  -4  103.09    4.50
  -3   4   4   97.29    4.60
   3   4  -4   97.99    3.60
   3   4  -4  110.19    3.90
   2  -4  -4   77.89    3.90
   2   4  -4   54.09    2.40
   2   4  -4   66.99    2.80
  -2   4   4   67.49    3.90
   1  -4  -4   62.49    4.00
  -1   4   4   59.69    3.60
   1   4  -4   59.39    2.10
   1   4  -4   58.29    2.20
   0   4   4    3.20    1.90
  -1  -4  -4   -2.90    2.30
   1   4   4   -3.10    1.80
  -2  -4  -4    6.10    2.90
   2   4   4    1.00    2.10
  -3  -4  -4   42.80    4.00
   3  -4   4   36.90    1.70
  -3   4  -4   39.20    2.00
   3   4   4   40.40    3.90
   4  -4   4   60.99    2.60
  -4  -4  -4   58.59    4.70
   4   4   4   73.39    5.30
  -4   4  -4   56.79    2.60
  -5  -4  -4    1.90    3.50
   5   4   4   10.00    3.20
   6   4   4    0.00    3.30
   7   4   4    1.30    3.80
   8   4   4    8.40    4.30
   9   4   4    3.00    4.20
  10   4   4   11.40    4.90
   9   5  -4   49.70    5.50
   8   5  -4   15.20    4.40
   7   5  -4   28.80    4.30
   6   5  -4   42.20    4.30
  -6   5   4   56.79    5.20
   5   5  -4    3.80    3.00
  -5   5   4    3.90    3.20
   4  -5  -4   92.19    5.00
  -4   5   4  101.49    5.30
   4   5  -4  104.99    4.70
   3  -5  -4  103.79    4.90
   3   5  -4  109.59    4.20
  -3   5   4  107.89    5.20
  -2   5   4   24.60    3.00
   1  -5  -4  112.19    5.00
  -1   5   4  114.09    5.20
   0  -5   4   34.50    2.40
   0  -5  -4   35.10    4.20
   0   5   4   35.30    3.30
  -1  -5  -4   28.20    4.00
   1  -5   4   27.30    2.40
   1   5   4   28.70    3.40
  -2  -5  -4  108.59    5.90
   2   5   4  112.79    5.60
  -3  -5  -4   35.70    4.30
   3   5   4   38.90    4.10
  -4  -5  -4   31.10    4.70
   4   5   4   23.50    3.90
  -5  -5  -4  107.19    6.60
   5   5   4  110.59    6.70
   6   5   4   52.89    5.40
   7   5   4   24.10    4.90
   8   5   4   43.50    5.70
   9   5   4    2.50    5.00
   8   6  -4    1.20    4.30
   7   6  -4    1.20    4.00
   6   6  -4    2.20    3.40
   5   6  -4    0.20    3.00
  -5   6   4    2.80    3.50
   4   6  -4    5.00    2.60
  -4   6   4    3.90    3.40
   3   6  -4    9.20    2.00
  -3   6   4    2.00    3.10
  -2   6   4   16.60    3.50
  -1   6   4   20.10    3.50
   0  -6  -4    8.10    4.60
   0   6   4   10.60    3.30
  -1  -6  -4   -2.30    4.30
   1   6   4   -3.40    3.10
  -2  -6  -4   -4.10    4.20
   2   6   4   -2.00    3.40
  -3  -6  -4    8.30    4.50
   3   6   4    4.50    3.60
  -4  -6  -4   19.60    5.00
   4   6   4   14.00    4.30
  -5  -6  -4   18.30    5.30
   5   6   4    4.50    4.00
   6   6   4   -2.30    4.50
   7   6   4    4.80    5.20
  -4   7   4   14.70    4.10
  -3   7   4   21.60    3.80
  -2   7   4    7.10    3.70
   1  -7  -4    3.80    5.50
  -1   7   4   10.50    3.60
   0  -7  -4    9.20    5.10
   0   7   4    9.90    3.80
  -1  -7  -4    1.70    5.70
   1   7   4    1.60    3.70
  -2  -7  -4   10.80    5.20
   2   7   4   10.00    3.90
  -3  -7  -4   17.40    5.70
   3   7   4   11.10    4.40
  -4  -7  -4   16.90    5.60
   4   7   4    3.40    4.40
  -5  -7  -4   23.10    6.10
   5   7   4   17.80    5.10
  11   0  -5   20.40    4.00
  10   0  -5    0.70    3.10
   9   0  -5   16.70    3.20
   8   0  -5    1.00    2.60
   7   0  -5   80.79    4.90
  -6   0   5    4.60    2.20
   6   0  -5    4.50    2.30
   5   0  -5   56.49    3.60
  -5   0   5   48.40    3.50
  -4   0   5   38.90    3.20
   4   0  -5   33.50    3.00
   3   0  -5  221.18    6.10
  -3   0   5  221.58    6.20
   3   0  -5  230.88    6.10
   2   0  -5  140.49    4.70
  -2   0   5  142.89    4.60
   2   0  -5  150.78    4.60
   1   0  -5   47.70    2.60
   1   0  -5   42.10    2.90
  -1   0   5   49.99    2.80
   0   0   5  141.99    4.30
   0   0  -5  139.39    4.00
   0   0  -5  143.59    4.30
   1   0   5 1740.33   34.00
  -1   0  -5 1734.93   34.60
  -1   0  -5 1780.32   34.00
   2   0   5    9.90    1.80
  -2   0  -5   11.60    1.70
   2   0   5   10.40    1.60
  -2   0  -5   11.60    1.50
   3   0   5   22.70    2.30
   3   0   5   24.30    2.40
  -3   0  -5   21.70    2.30
   4   0   5  210.88    6.20
   5   0   5    0.60    1.90
   6   0   5    0.40    2.10
   7   0   5  326.37    9.60
   8   0   5   10.60    3.10
   9   0   5    3.30    2.80
  10   0   5   47.40    4.60
  11   0   5    0.80    3.20
  11  -1  -5   19.90    4.30
  11   1  -5   19.70    4.20
  10  -1  -5   28.50    4.00
  10   1  -5   35.80    4.40
   9  -1  -5  319.57   10.10
   9   1  -5  334.17   10.30
   8  -1  -5   49.40    4.40
   8   1  -5   29.40    3.50
   7  -1  -5  113.49    5.80
   7   1  -5  104.99    5.50
   6  -1  -5   29.40    3.10
   6   1  -5   27.60    3.00
  -6   1   5   35.80    3.40
  -5  -1   5    7.60    1.90
   5  -1  -5    7.60    2.00
   5   1  -5    8.00    2.10
  -5   1   5    8.20    2.10
   4  -1  -5  212.48    6.20
  -4  -1   5  220.98    6.10
  -4   1   5  209.08    6.10
   4   1  -5  206.58    5.80
   4   1  -5  203.48    6.00
  -3  -1   5  128.29    4.40
   3  -1  -5  134.99    4.60
   3   1  -5  126.59    4.20
  -3   1   5  136.49    4.60
   3   1  -5  128.79    4.40
  -2  -1   5   30.10    2.60
   2  -1  -5   30.90    2.80
   2   1  -5   33.10    2.40
  -2   1   5   33.10    2.70
   2   1  -5   31.60    2.40
   1  -1  -5  886.21   17.80
  -1  -1   5  866.71   17.50
  -1   1   5  856.11   17.80
   1   1  -5  875.51   17.50
   1   1  -5  858.81   17.50
   0  -1   5 1244.48   24.80
   0  -1  -5 1293.57   25.30
   0   1   5 1259.07   25.30
   0   1  -5 1276.27   24.90
   0   1  -5 1278.67   24.90
  -1  -1  -5    8.90    1.80
  -1  -1  -5    7.70    1.70
   1  -1   5    7.20    1.50
   1   1   5    7.60    1.70
  -1   1  -5    5.90    1.40
  -2  -1  -5 1695.73   35.10
   2  -1   5 1790.52   34.40
   2  -1   5 1745.73   33.90
  -2   1  -5 1757.42   33.90
   2   1   5 1759.32   34.30
  -3  -1  -5   51.99    3.20
   3  -1   5   50.99    2.40
   3  -1   5   50.69    2.90
  -3   1  -5   50.39    2.80
   3   1   5   45.20    3.20
   4  -1   5    1.10    1.50
  -4   1  -5    0.90    1.40
   4   1   5    3.60    1.80
   5  -1   5  264.37    7.40
   5   1   5  255.87    7.80
  -5   1  -5  252.57    7.20
   6  -1   5   25.50    2.90
   6   1   5   29.70    3.30
   7  -1   5    0.90    2.30
   7   1   5    2.80    2.50
   8  -1   5    7.80    2.90
   8   1   5    8.10    3.10
   9  -1   5   21.60    3.40
   9   1   5   15.80    3.50
  10  -1   5   41.10    4.60
  10   1   5   33.60    4.80
  11   1   5   15.10    4.30
  11  -2  -5   21.00    4.30
  11   2  -5   35.50    5.20
  10  -2  -5    2.30    3.20
  10   2  -5    0.40    3.20
   9  -2  -5    5.90    2.90
   9   2  -5   12.10    3.40
   8  -2  -5    2.60    2.60
   8   2  -5    2.30    2.70
   7  -2  -5   91.09    5.30
  -7   2   5  101.59    5.50
   7   2  -5   95.49    5.30
   6  -2  -5   20.70    2.80
   6   2  -5   20.80    2.80
  -6   2   5   22.80    3.10
   5  -2  -5   59.99    4.20
   5   2  -5   60.19    3.90
   5   2  -5   64.49    3.60
  -5   2   5   61.29    4.10
   4  -2  -5  132.19    5.00
  -4  -2   5  131.59    4.50
   4   2  -5  126.49    4.60
   4   2  -5  133.29    4.50
  -4   2   5  120.39    4.80
  -3  -2   5   19.60    2.00
   3  -2  -5   12.00    2.00
   3   2  -5   18.30    1.90
   3   2  -5   14.50    2.00
  -3   2   5   13.70    2.20
   2  -2  -5  259.47    7.00
  -2  -2   5  261.27    6.30
   2   2  -5  252.87    6.30
   2   2  -5  251.67    6.30
  -2   2   5  256.97    6.80
  -1  -2   5  254.27    6.00
  -1   2   5  246.68    6.60
   1   2  -5  248.88    6.00
   1   2  -5  249.18    6.10
   0  -2   5  267.37    6.30
   0   2  -5  262.87    6.30
   0   2  -5  267.27    6.40
   0   2   5  273.47    7.10
  -1  -2  -5  225.48    6.30
   1  -2   5  218.58    5.50
  -1   2  -5  233.28    5.60
   1   2   5  224.58    6.30
  -2  -2  -5   34.10    2.90
   2  -2   5   36.20    2.40
   2  -2   5   34.30    1.70
   2   2   5   37.20    3.20
  -2   2  -5   33.30    2.30
   3  -2   5    3.40    1.10
   3  -2   5    1.50    1.30
  -3  -2  -5    2.30    1.90
   3   2   5    1.60    1.90
  -3   2  -5    2.80    1.40
  -4  -2  -5  271.87    8.10
   4  -2   5  301.17    7.50
   4   2   5  298.97    8.40
  -4   2  -5  298.37    7.60
   5  -2   5   85.49    4.20
   5   2   5   85.49    4.70
  -5   2  -5   80.59    4.10
   6  -2   5    4.70    2.10
  -6   2  -5    4.60    2.10
   6   2   5    4.90    2.80
   7  -2   5  199.18    6.90
   7   2   5  192.78    7.50
   8  -2   5   16.70    3.10
   8   2   5   18.50    3.60
   9   2   5   12.10    3.60
  10   2   5   43.20    5.30
  11   2   5    5.70    4.10
  11   3  -5    9.70    4.30
  10  -3  -5   18.80    3.80
  10   3  -5   19.80    4.00
   9  -3  -5  156.78    7.40
   9   3  -5  164.88    7.50
   8  -3  -5   28.00    3.60
   8   3  -5   22.80    3.60
   7  -3  -5   60.39    5.10
   7   3  -5   57.09    4.90
  -7   3   5   59.09    5.10
   6  -3  -5    3.00    2.60
  -6   3   5    9.90    3.00
   6   3  -5   10.10    2.90
   5  -3  -5   25.00    3.10
   5   3  -5   31.20    3.10
   5   3  -5   29.30    3.00
  -5   3   5   30.80    3.30
   4  -3  -5  123.69    5.20
   4   3  -5  121.39    3.70
   4   3  -5  126.99    4.80
   4   3  -5  125.19    4.50
  -4   3   5  128.99    5.10
   3  -3  -5   43.40    3.60
   3   3  -5   44.20    1.90
   3   3  -5   37.90    2.50
  -3   3   5   43.90    3.60
   3   3  -5   40.70    3.20
  -2  -3   5   29.30    2.30
   2  -3  -5   28.50    2.80
   2   3  -5   28.90    2.20
  -2   3   5   25.00    2.60
   2   3  -5   26.00    2.60
  -1  -3   5  301.17    6.80
  -1   3   5  311.97    8.00
   1   3  -5  311.97    7.00
   1   3  -5  309.97    6.90
   0  -3   5  356.86    7.50
   0   3  -5  350.26    7.60
   0   3   5  344.37    8.70
  -1  -3  -5   73.39    4.00
   1  -3   5   78.59    2.70
   1   3   5   75.59    4.00
   2  -3   5  415.76    8.80
  -2  -3  -5  414.86   10.40
  -2   3  -5  393.06    8.80
   2   3   5  419.06   10.10
   3  -3   5   40.30    2.40
  -3  -3  -5   41.20    3.70
   3   3   5   32.30    3.00
  -3   3  -5   39.20    2.60
   4  -3   5    7.70    1.70
  -4  -3  -5    9.10    2.70
  -4   3  -5   12.50    1.90
   4   3   5    6.40    2.50
   5  -3   5   61.79    3.40
  -5  -3  -5   68.29    4.90
  -5   3  -5   60.89    3.60
   5   3   5   64.79    5.10
   6  -3   5    2.80    2.00
   6   3   5    0.20    3.00
   7   3   5    2.40    3.30
   8   3   5    3.30    3.80
   9   3   5    5.20    3.70
  10   3   5   22.60    4.80
  10   4  -5    8.90    4.10
   9   4  -5    9.90    4.00
   8  -4  -5    3.70    3.30
   8   4  -5    3.00    3.30
   7  -4  -5   14.30    3.30
  -7   4   5   14.00    3.60
   7   4  -5   10.20    3.40
   6  -4  -5    9.40    2.80
  -6   4   5   22.60    3.70
   6   4  -5   11.20    3.10
   5  -4  -5   22.90    3.20
  -5   4   5   33.40    3.80
   5   4  -5   30.90    3.10
   4  -4  -5   22.60    3.00
   4   4  -5   24.00    2.70
  -4   4   5   23.10    3.00
   3  -4  -5   12.00    2.50
   3   4  -5   19.30    2.40
   3   4  -5    9.60    1.70
  -3   4   5   19.00    2.90
   2  -4  -5   59.29    4.10
   2   4  -5   63.99    3.10
  -2   4   5   64.89    4.10
   1  -4  -5   51.69    4.10
  -1   4   5   49.40    3.90
   1   4  -5   51.09    2.30
   1   4  -5   49.60    2.40
   0  -4  -5   26.80    3.70
   0   4  -5   26.70    1.90
   0   4   5   26.40    3.00
   0   4  -5   28.20    1.90
  -1  -4  -5   76.39    4.70
   1  -4   5   73.89    2.00
  -1   4  -5   73.39    2.40
   1   4   5   75.49    4.50
  -1   4  -5   71.59    2.40
  -2  -4  -5    4.60    2.80
   2  -4   5   -0.40    0.80
   2   4   5    2.70    2.70
  -2   4  -5   -0.60    1.20
   3  -4   5   25.50    1.80
  -3  -4  -5   21.40    3.50
   3   4   5   24.20    3.30
  -3   4  -5   25.70    2.30
  -4  -4  -5   61.19    5.00
   4   4   5   60.59    5.10
  -5  -4  -5   32.10    4.50
   5   4   5   22.00    4.00
   6   4   5   21.00    4.40
   7   4   5   75.59    6.70
   8   4   5    9.60    4.40
   9   4   5    6.20    4.70
   9   5  -5   72.89    7.30
   8   5  -5   36.30    4.90
   7   5  -5    3.40    3.80
  -6   5   5   18.60    3.90
   6   5  -5    9.00    3.40
   5   5  -5    0.80    2.90
  -5   5   5    1.30    3.30
   4  -5  -5   16.70    3.20
  -4   5   5   15.40    3.50
   4   5  -5   23.00    3.10
   3  -5  -5   53.89    4.60
  -3   5   5   49.40    4.90
   3   5  -5   48.00    3.50
   2  -5  -5   12.90    2.90
   2   5  -5   10.80    1.90
  -2   5   5   13.40    3.10
   1  -5  -5   73.39    5.20
  -1   5   5   70.99    4.90
   0  -5  -5  172.28    7.40
   0   5   5  182.58    6.80
  -1  -5  -5   25.20    3.90
   1   5   5   29.10    3.50
  -2  -5  -5  109.89    6.20
   2   5   5  123.79    6.10
  -3  -5  -5   86.49    5.90
   3   5   5   94.89    6.40
  -4  -5  -5   19.80    4.70
   4   5   5   16.00    4.10
  -5  -5  -5   25.30    4.90
   5   5   5   26.00    4.60
   6   5   5   19.80    4.50
   7   5   5   -4.30    4.10
   8   5   5    0.60    4.80
   7   6  -5    1.70    4.20
   6   6  -5    5.30    3.80
  -6   6   5    2.00    4.00
   5   6  -5   17.10    3.30
  -5   6   5   15.00    4.20
  -4   6   5    9.50    3.70
   4   6  -5    7.90    2.70
   3   6  -5   12.30    2.10
  -3   6   5   12.90    3.80
  -2   6   5   23.10    3.80
   1  -6  -5    4.40    5.00
  -1   6   5    3.50    3.40
   0  -6  -5   -3.40    4.30
   0   6   5    2.20    3.50
  -1  -6  -5    9.50    4.60
   1   6   5   14.20    4.00
  -2  -6  -5   12.70    4.90
   2   6   5   16.70    4.10
  -3  -6  -5   11.50    5.00
   3   6   5    9.70    4.10
  -4  -6  -5   13.00    5.40
   4   6   5   15.30    4.70
  -5  -6  -5    4.80    5.00
   5   6   5    5.90    4.50
  -6  -6  -5   13.60    5.70
   6   6   5   -3.40    4.80
   7   6   5   10.50    5.40
  -5   7   5    3.40    4.10
  -4   7   5    8.20    4.30
  -3   7   5    2.10    4.00
  -2   7   5    4.60    3.70
   1  -7  -5   11.70    5.70
  -1   7   5   15.20    4.10
   0  -7  -5   17.10    5.60
   0   7   5   18.80    4.40
  -1  -7  -5    2.30    5.80
   1   7   5    8.70    4.10
  -2  -7  -5   16.90    5.70
   2   7   5   23.40    4.80
  -3  -7  -5   30.10    6.20
   3   7   5   23.60    5.00
  -4  -7  -5    8.60    5.90
   4   7   5    8.80    4.60
  11   0  -6   48.20    5.40
  10   0  -6   36.30    4.40
   9   0  -6    1.10    3.10
   8   0  -6   14.60    3.40
   7   0  -6   65.29    4.90
  -6   0   6   21.40    3.20
   6   0  -6   21.90    3.20
  -5   0   6  342.07    9.00
   5   0  -6  342.57    9.10
  -4   0   6  673.13   14.70
   4   0  -6  652.33   14.70
  -3   0   6   11.90    1.90
   3   0  -6   12.10    2.00
  -2   0   6  608.74   13.40
   2   0  -6  614.74   13.60
   2   0  -6  619.54   13.50
   1   0  -6   28.40    2.90
  -1   0   6   32.40    2.50
   1   0  -6   28.80    2.60
   0   0  -6   48.30    3.00
   0   0   6   53.99    3.10
   0   0  -6   50.89    2.50
   1   0   6  162.58    5.20
  -1   0  -6  175.88    5.30
  -1   0  -6  176.88    4.80
  -2   0  -6  250.17    6.40
   2   0   6  243.88    6.80
  -2   0  -6  256.07    6.80
   3   0   6  349.87    8.80
   4   0   6  634.94   14.40
   5   0   6  610.84   14.20
   6   0   6  429.16   11.20
   7   0   6  622.64   15.20
   8   0   6    8.30    2.90
   9   0   6   21.70    3.50
  10   0   6  105.69    6.80
  11   0   6    3.70    3.60
  11  -1  -6    7.10    3.80
  11   1  -6    6.80    3.80
  10  -1  -6   11.90    3.70
  10   1  -6    6.70    3.30
   9  -1  -6   96.79    6.50
   9   1  -6   94.19    6.30
   8  -1  -6   25.80    3.70
   8   1  -6   30.90    3.90
   7  -1  -6    9.80    3.10
  -7   1   6    5.60    2.70
   7   1  -6    5.10    2.60
  -6  -1   6   16.10    2.70
   6  -1  -6   13.70    2.90
   6   1  -6   16.00    2.80
  -6   1   6   13.60    2.80
  -5  -1   6    1.40    1.90
   5  -1  -6    0.40    2.20
   5   1  -6    0.70    2.00
  -5   1   6    1.60    2.10
  -4  -1   6   15.00    2.20
   4  -1  -6   13.10    2.20
  -4   1   6   14.20    2.20
   4   1  -6   20.00    2.50
   3  -1  -6   -1.30    1.70
  -3  -1   6   -0.60    1.40
   3   1  -6    0.30    1.30
  -3   1   6    2.70    1.90
   3   1  -6   -0.40    1.40
   2  -1  -6   60.59    3.60
  -2  -1   6   60.39    3.30
  -2   1   6   64.89    3.50
   2   1  -6   64.19    3.10
   2   1  -6   65.09    3.30
   1  -1  -6   13.90    2.00
  -1  -1   6   16.80    1.80
   1   1  -6   17.00    1.90
  -1   1   6   13.50    2.00
   1   1  -6   16.00    1.90
   0  -1   6  366.56    8.70
   0  -1  -6  366.96    8.90
   0   1   6  377.16    9.10
   0   1  -6  371.16    8.00
   0   1  -6  400.16    8.90
  -1  -1  -6   14.10    2.00
   1  -1   6   12.80    1.80
  -1   1  -6   13.10    1.90
   1   1   6    8.90    1.70
   2  -1   6   45.40    2.20
   2  -1   6   44.70    2.90
  -2  -1  -6   50.99    2.90
   2   1   6   43.00    3.30
  -2   1  -6   45.50    2.70
  -3  -1  -6   79.39    3.90
   3  -1   6   81.79    3.80
   3  -1   6   82.19    3.20
  -3   1  -6   80.49    3.60
   3   1   6   79.59    4.00
   4  -1   6   46.80    3.40
  -4   1  -6   48.90    3.30
   4   1   6   51.19    3.80
   5  -1   6  177.28    6.20
   5   1   6  179.58    6.60
   6  -1   6  307.87    8.80
   6   1   6  305.97    9.20
   7  -1   6   37.50    3.60
   7   1   6   30.10    3.60
   8  -1   6    8.10    2.70
   8   1   6    7.80    3.30
   9  -1   6    6.40    2.70
   9   1   6    6.80    3.30
  10   1   6   10.30    3.70
  11  -2  -6   24.30    4.50
  11   2  -6   23.20    4.90
  10  -2  -6   24.50    4.20
  10   2  -6   19.30    4.00
   9  -2  -6    4.00    3.20
   9   2  -6   -0.30    3.20
   8  -2  -6   -1.40    3.00
   8   2  -6    1.90    2.90
   7  -2  -6   19.20    3.40
   7   2  -6   19.20    3.40
  -7   2   6   13.50    3.30
   6  -2  -6   15.60    3.20
  -6   2   6    9.80    2.90
   6   2  -6   18.30    3.00
   5  -2  -6  139.49    5.80
   5   2  -6  141.39    5.50
  -5   2   6  149.59    5.90
  -4  -2   6  227.48    6.50
   4  -2  -6  231.08    7.10
   4   2  -6  231.78    6.50
   4   2  -6  233.48    6.70
  -4   2   6  234.48    7.10
  -3  -2   6    8.70    1.80
   3  -2  -6    4.40    1.90
   3   2  -6   12.00    2.10
   3   2  -6   10.60    1.80
  -3   2   6   10.00    2.30
  -2  -2   6   91.69    3.70
   2  -2  -6   96.39    4.40
  -2   2   6   90.89    4.20
   2   2  -6   94.49    3.60
   2   2  -6   94.99    3.70
  -1  -2   6    7.80    1.60
   1   2  -6    4.40    1.40
  -1   2   6    5.10    1.80
   1   2  -6    3.70    1.50
   0  -2  -6    1.40    2.00
   0  -2   6    1.50    1.30
   0   2   6   -0.10    1.60
   0   2  -6    1.00    1.20
   0   2  -6    0.90    1.40
   1  -2   6    0.80    1.30
  -1  -2  -6    1.10    1.70
  -1   2  -6    1.50    1.30
   1   2   6    0.10    1.60
   2  -2   6   24.60    2.30
  -2  -2  -6   18.90    2.50
   2  -2   6   21.10    1.50
  -2   2  -6   25.40    2.30
   2   2   6   29.70    3.00
  -3  -2  -6   64.79    3.90
   3  -2   6   66.69    3.30
   3  -2   6   68.39    2.70
   3   2   6   57.79    4.00
  -3   2  -6   67.49    3.30
  -4  -2  -6  324.17    9.20
   4  -2   6  334.97    8.50
   4  -2   6  327.37    7.90
  -4   2  -6  329.27    8.40
   4   2   6  325.37    9.20
   5  -2   6  247.58    7.20
   5   2   6  237.08    8.00
  -5   2  -6  254.57    7.40
   6  -2   6  181.88    6.30
   6   2   6  183.58    7.40
   7  -2   6  298.27    8.80
   7   2   6  296.67    9.70
   8   2   6   10.90    3.60
   9   2   6   26.60    4.40
  10   2   6   35.90    5.20
  10  -3  -6    6.60    3.30
  10   3  -6   12.00    3.90
   9  -3  -6   68.29    6.00
   9   3  -6   67.39    6.00
   8  -3  -6   33.40    4.20
   8   3  -6   38.60    4.30
   7  -3  -6    5.10    3.00
  -7   3   6    8.90    3.40
   7   3  -6    3.40    3.10
   6  -3  -6   25.00    3.30
   6   3  -6   29.30    3.50
  -6   3   6   20.90    3.30
   5  -3  -6   10.60    2.70
  -5   3   6   16.90    3.20
   5   3  -6   16.40    2.80
   4  -3  -6   18.20    3.00
   4   3  -6   20.20    2.70
   4   3  -6   21.30    2.30
  -4   3   6   20.00    2.80
   4   3  -6   19.50    1.80
   3  -3  -6   53.59    4.20
  -3  -3   6   53.89    3.00
  -3   3   6   54.29    4.20
   3   3  -6   52.09    3.60
   3   3  -6   51.69    3.10
   2  -3  -6   93.19    4.70
  -2  -3   6   95.79    3.60
   2   3  -6   91.59    3.80
  -2   3   6   89.89    4.50
   2   3  -6   92.49    3.50
   1  -3  -6   65.19    4.30
  -1  -3   6   62.09    2.90
   1   3  -6   60.39    3.00
  -1   3   6   69.19    4.10
   1   3  -6   66.59    3.20
   0  -3  -6  373.86    9.90
   0  -3   6  361.06    8.20
   0   3  -6  379.86    8.40
   0   3   6  362.56    9.40
   0   3  -6  374.36    8.40
   1  -3   6    5.00    1.40
  -1  -3  -6    7.60    2.50
  -1   3  -6    4.50    1.50
   1   3   6    6.30    2.20
  -1   3  -6    4.90    1.70
  -2  -3  -6   90.29    4.80
   2  -3   6   93.99    3.40
   2   3   6   89.39    4.90
  -2   3  -6   99.39    3.50
   3  -3   6  149.69    4.10
  -3  -3  -6  146.09    6.00
   3  -3   6  145.59    4.60
   3   3   6  150.68    6.10
  -3   3  -6  161.48    4.80
   4  -3   6   15.30    2.00
   4  -3   6   21.70    2.20
  -4  -3  -6   21.00    3.50
  -4   3  -6   28.30    2.90
   4   3   6   18.60    3.10
   5  -3   6   63.29    3.80
  -5  -3  -6   61.39    5.20
   5   3   6   62.09    5.20
   6   3   6   62.79    5.70
   7   3   6    5.80    3.40
   8   3   6    7.50    3.70
   9   3   6   11.90    4.30
  10   3   6   12.60    4.90
   9   4  -6    2.20    3.80
   8   4  -6    9.80    3.80
   7  -4  -6    2.90    3.20
   7   4  -6   -0.90    3.00
  -7   4   6    6.70    3.80
   6  -4  -6    7.10    3.10
   6   4  -6   14.60    3.20
  -6   4   6   16.60    3.80
   5  -4  -6  110.29    6.00
   5   4  -6  108.79    5.40
  -5   4   6  108.39    6.10
   4  -4  -6   71.59    5.00
  -4   4   6   73.89    5.30
   4   4  -6   73.99    4.30
   3  -4  -6   13.40    2.90
  -3   4   6   13.70    2.90
   3   4  -6   14.30    2.50
   2  -4  -6   65.09    5.00
   2   4  -6   57.89    3.40
  -2   4   6   61.69    4.70
   2   4  -6   56.09    3.20
   1  -4  -6   -0.40    2.70
   1   4  -6    2.60    1.70
  -1   4   6    2.10    2.20
   1   4  -6    1.00    1.00
   0  -4   6    2.60    1.20
   0  -4  -6    1.20    2.80
   0   4  -6    2.50    1.50
   0   4   6   -0.40    2.50
   0   4  -6    0.20    1.40
  -1  -4  -6    5.00    3.00
   1   4   6    4.70    2.80
  -1   4  -6    2.00    1.50
  -1   4  -6    3.20    1.40
  -2  -4  -6    7.60    3.10
  -2   4  -6    4.80    1.70
  -2   4  -6    7.00    1.70
   2   4   6    4.80    2.80
  -3  -4  -6   53.79    4.80
   3   4   6   56.09    5.30
  -4  -4  -6  197.28    8.10
   4   4   6  191.28    8.10
  -5  -4  -6  125.49    6.80
   5   4   6  128.19    6.90
   6   4   6   88.99    6.70
   7   4   6  152.18    8.10
   8   4   6   21.10    4.90
   9   4   6   10.90    4.90
   8   5  -6   17.20    4.30
   7   5  -6   -2.80    3.50
  -7   5   6    1.30    4.00
   6   5  -6    5.50    3.30
  -6   5   6   -0.50    3.60
   5   5  -6    4.50    3.20
  -5   5   6    9.50    3.60
   4  -5  -6    1.10    3.10
   4   5  -6    5.00    2.80
  -4   5   6    0.80    3.30
   3  -5  -6    3.10    2.80
  -3   5   6    3.60    3.40
   3   5  -6    4.40    2.40
   2  -5  -6    1.40    2.90
  -2   5   6    6.40    3.40
   2   5  -6    7.00    2.00
   1  -5  -6    9.20    3.20
   1   5  -6    6.10    1.60
  -1   5   6   10.30    3.30
   0  -5  -6   39.40    5.00
   0   5   6   43.00    4.10
  -1  -5  -6    3.40    3.60
   1   5   6    6.80    3.20
  -2  -5  -6    6.70    4.10
   2   5   6   11.80    3.70
  -3  -5  -6   11.00    4.10
   3   5   6   12.50    3.80
  -4  -5  -6   19.40    5.10
   4   5   6   19.50    4.20
  -5  -5  -6   53.89    6.00
   5   5   6   73.39    6.90
  -6  -5  -6   36.70    6.10
   6   5   6   40.90    5.50
   7   5   6   -3.50    4.30
   8   5   6   -4.10    4.90
  -6   6   6    4.00    4.50
   6   6  -6   -0.10    3.60
   5   6  -6   26.90    3.60
  -5   6   6   24.70    4.60
   4   6  -6   25.20    3.20
  -4   6   6   31.70    4.70
  -3   6   6    4.70    3.70
  -2   6   6    6.20    4.10
   1  -6  -6    1.20    4.70
  -1   6   6    8.70    3.90
   0  -6  -6   -5.00    4.60
   0   6   6    2.80    3.80
  -1  -6  -6    1.00    4.80
   1   6   6    3.70    4.00
  -2  -6  -6   -3.70    4.80
   2   6   6    7.00    4.20
  -3  -6  -6   31.20    5.70
   3   6   6   30.90    4.80
  -4  -6  -6   85.99    7.80
   4   6   6   96.69    7.20
  -5  -6  -6   32.10    6.10
   5   6   6   27.60    5.40
  -6  -6  -6   31.40    6.40
   6   6   6   22.20    5.50
  -4   7   6    3.10    4.30
  -3   7   6   13.10    4.70
   2  -7  -6    8.00    6.00
  -2   7   6    1.80    4.30
   1  -7  -6    7.70    5.80
  -1   7   6    5.70    4.30
   0  -7  -6   29.50    6.00
   0   7   6   23.80    4.70
  -1  -7  -6    8.40    6.10
   1   7   6    1.70    4.30
  -2  -7  -6    6.50    5.60
   2   7   6   10.70    4.90
  -3  -7  -6    9.80    6.00
   3   7   6   12.30    5.00
  11   0  -7    9.60    4.20
  10   0  -7   20.50    4.10
   9   0  -7    5.90    3.50
   8   0  -7    2.50    3.30
   7   0  -7   12.20    3.20
  -7   0   7   15.20    3.20
   6   0  -7   65.09    4.90
  -6   0   7   72.39    4.90
   5   0  -7   52.29    4.60
  -5   0   7   56.99    4.40
   4   0  -7  427.96   10.80
  -4   0   7  433.16   10.70
   3   0  -7   14.50    2.10
  -3   0   7   26.10    3.00
   2   0  -7   12.60    2.30
  -2   0   7   11.40    2.00
  -1   0   7  219.68    6.40
   1   0  -7  211.38    6.50
   0   0  -7   31.80    2.40
   0   0   7   34.10    2.80
   1   0   7   90.69    4.10
  -1   0  -7   92.29    3.50
   2   0   7    1.40    1.80
  -2   0  -7    2.70    1.70
   3   0   7    1.20    1.90
   4   0   7  361.96    9.50
   5   0   7  336.87    9.40
   6   0   7   22.60    3.00
   7   0   7   23.20    3.40
   8   0   7   39.10    4.00
   9   0   7   20.50    4.10
  10   0   7   -1.70    3.40
  10  -1  -7    1.00    3.20
  10   1  -7   -0.80    3.40
   9  -1  -7   96.99    6.70
   9   1  -7   99.99    6.70
   8  -1  -7  147.49    7.10
   8   1  -7  139.19    7.00
   7  -1  -7   28.40    4.00
   7   1  -7   23.60    3.70
  -7   1   7   28.30    3.90
  -6  -1   7  135.69    5.90
   6  -1  -7  140.59    6.20
   6   1  -7  132.19    6.20
  -6   1   7  138.79    6.20
   5  -1  -7   10.70    2.60
  -5  -1   7   13.60    2.60
   5   1  -7    9.60    2.60
  -5   1   7   15.10    2.80
   4  -1  -7   17.70    2.60
  -4  -1   7   17.10    2.40
   4   1  -7   18.70    2.80
  -4   1   7   16.80    2.60
  -3  -1   7   31.60    3.20
   3  -1  -7   31.70    2.90
   3   1  -7   31.70    3.10
  -3   1   7   33.70    3.00
  -2  -1   7   36.30    3.20
   2  -1  -7   38.60    3.60
   2   1  -7   42.30    3.20
   2   1  -7   44.70    3.00
  -2   1   7   37.50    3.50
  -1  -1   7   26.30    2.40
   1  -1  -7   27.90    2.90
   1   1  -7   25.20    1.90
  -1   1   7   30.20    2.80
   1   1  -7   33.90    2.80
   1   1  -7   26.50    2.50
   0  -1  -7    5.80    1.80
   0  -1   7    4.10    1.70
   0   1  -7    2.50    1.50
   0   1   7   -0.10    1.80
   0   1  -7    2.80    1.20
   1  -1   7   15.90    2.00
  -1  -1  -7   14.50    2.30
  -1   1  -7   10.70    1.80
   1   1   7   14.10    2.40
   2  -1   7   75.09    3.70
  -2  -1  -7   71.59    3.80
  -2   1  -7   72.99    3.60
   2   1   7   72.09    4.10
   3  -1   7  196.98    5.50
  -3  -1  -7  196.28    6.30
   3  -1   7  201.58    6.40
   3   1   7  197.18    6.70
  -3   1  -7  206.78    6.20
   4  -1   7   16.50    2.40
   4   1   7   23.70    2.90
   5  -1   7  109.89    5.20
   5   1   7  108.89    5.50
   6  -1   7    9.10    2.70
   6   1   7    5.30    2.80
   7  -1   7    2.30    2.50
   7   1   7   -3.90    2.60
   8  -1   7   18.50    3.30
   8   1   7   25.80    4.00
   9  -1   7   48.70    5.30
   9   1   7   49.20    5.10
  10   1   7   16.40    4.20
  10  -2  -7   24.20    4.50
  10   2  -7   23.60    4.50
   9  -2  -7    4.90    3.20
   9   2  -7    0.90    3.30
   8  -2  -7    9.00    3.50
   8   2  -7    7.00    3.40
  -8   2   7    9.50    3.60
   7  -2  -7    7.30    3.10
   7   2  -7    7.00    2.90
  -7   2   7    9.70    3.60
   6  -2  -7   86.79    5.60
   6   2  -7   84.89    5.50
  -6   2   7   77.09    5.50
  -5  -2   7  117.59    5.10
   5  -2  -7  123.29    5.90
  -5   2   7  123.09    6.00
   5   2  -7  121.59    5.60
   4  -2  -7  296.67    8.70
  -4  -2   7  278.57    7.90
  -4   2   7  293.77    8.60
   4   2  -7  293.17    8.20
  -3  -2   7    7.80    2.00
   3  -2  -7    9.90    2.50
   3   2  -7    6.20    1.90
   3   2  -7   10.20    2.30
  -3   2   7    9.30    2.60
   2  -2  -7   93.99    4.90
  -2  -2   7  101.59    4.20
  -2   2   7   98.09    4.60
   2   2  -7   98.59    4.20
   2   2  -7  102.79    4.10
   1  -2  -7  125.59    5.40
  -1  -2   7  117.79    4.50
   1   2  -7  128.49    4.50
   1   2  -7  123.99    4.60
  -1   2   7  128.79    5.10
   0  -2   7   18.70    2.20
   0  -2  -7   21.40    2.80
   0   2  -7   16.70    2.20
   0   2  -7   16.90    1.90
   0   2   7   16.90    2.40
   1  -2   7  150.98    4.80
  -1  -2  -7  146.09    5.40
   1   2   7  149.69    5.60
  -1   2  -7  154.98    4.80
  -2  -2  -7    0.90    2.00
   2  -2   7   -2.60    1.50
  -2   2  -7    0.30    1.60
   2   2   7   -3.00    2.20
   3  -2   7   77.99    3.90
   3  -2   7   76.39    3.00
  -3  -2  -7   73.59    4.50
  -3   2  -7   74.89    3.70
   3   2   7   70.89    4.60
   4  -2   7  412.76   10.30
  -4  -2  -7  419.06   11.20
  -4   2  -7  439.66   10.50
   4   2   7  417.26   11.20
   5  -2   7  154.18    5.90
   5   2   7  161.28    6.90
   6  -2   7   41.80    4.10
   6   2   7   35.20    4.00
   7   2   7   70.49    6.10
   8   2   7    9.70    3.60
   9   2   7   15.50    4.10
  10   2   7    0.80    3.70
  10  -3  -7    2.20    3.50
  10   3  -7    3.20    3.70
   9  -3  -7   36.80    4.60
   9   3  -7   46.00    4.90
   8  -3  -7   88.39    6.60
  -8   3   7   95.39    6.70
   8   3  -7   90.19    6.40
   7  -3  -7   26.90    3.90
   7   3  -7   28.00    3.80
  -7   3   7   27.40    4.40
   6  -3  -7   39.30    4.20
  -6   3   7   32.10    4.20
   6   3  -7   39.00    4.00
   5  -3  -7   10.00    2.80
  -5   3   7   14.10    3.20
   5   3  -7   20.10    3.20
   4  -3  -7    0.00    2.50
  -4  -3   7    1.80    2.00
  -4   3   7    2.30    2.70
   4   3  -7    1.20    2.50
   3  -3  -7   -1.00    2.50
  -3  -3   7   -0.10    1.80
  -3   3   7    2.80    2.50
   3   3  -7    0.90    2.20
  -2  -3   7   28.50    2.50
   2  -3  -7   26.70    3.20
   2   3  -7   27.60    2.80
   2   3  -7   30.30    2.80
  -2   3   7   31.20    3.40
   1  -3  -7    0.30    2.50
  -1  -3   7   -1.70    1.50
   1   3  -7    1.10    1.80
   1   3  -7    1.70    1.50
  -1   3   7    0.40    2.10
   0  -3   7    2.80    1.60
   0  -3  -7   -1.20    2.60
   0   3   7   -2.30    2.40
   0   3  -7    2.20    1.60
   0   3  -7    1.20    1.80
   1  -3   7   28.60    2.60
  -1  -3  -7   27.40    3.30
   1   3   7   27.20    3.30
  -1   3  -7   27.90    2.80
  -1   3  -7   27.40    2.60
   2  -3   7    2.50    1.40
  -2  -3  -7   -2.60    2.60
  -2   3  -7    2.00    1.60
   2   3   7    1.10    2.60
   3  -3   7   46.90    3.10
  -3  -3  -7   44.80    4.60
   3   3   7   48.40    4.50
  -4  -3  -7   48.70    4.80
   4   3   7   40.70    4.30
  -5  -3  -7   97.39    6.00
   5   3   7   99.39    5.70
   6   3   7    4.40    3.30
   7   3   7   -0.80    3.70
   8   3   7    3.70    4.00
   9   3   7   32.80    5.20
   9   4  -7    3.80    3.90
   8   4  -7    2.30    3.40
  -8   4   7    6.30    4.30
   7  -4  -7    1.40    3.10
  -7   4   7   -0.70    3.70
   7   4  -7    1.10    3.40
   6  -4  -7   20.90    3.60
   6   4  -7   27.60    3.90
  -6   4   7   21.80    4.10
   5  -4  -7   60.09    5.50
  -5   4   7   60.79    5.80
   5   4  -7   64.69    5.00
   4  -4  -7  134.99    6.60
   4   4  -7  131.89    5.50
  -4   4   7  132.19    6.60
   3  -4  -7   32.40    3.80
  -3   4   7   31.70    3.80
   3   4  -7   41.20    4.00
   2  -4  -7   26.80    3.80
   2   4  -7   28.50    2.90
  -2   4   7   29.10    3.60
   1  -4  -7   65.59    5.40
  -1   4   7   72.79    5.00
   1   4  -7   63.69    3.60
   0  -4  -7   19.10    3.70
   0   4  -7   17.80    2.20
   0   4   7   14.90    3.20
  -1  -4  -7   47.20    4.70
  -1   4  -7   46.60    3.10
   1   4   7   41.80    4.20
  -2  -4  -7    4.60    3.50
   2   4   7    5.20    3.20
  -2   4  -7    7.00    2.00
  -3  -4  -7   21.10    4.00
   3   4   7   22.70    4.00
  -4  -4  -7  177.48    7.90
   4   4   7  171.78    7.70
  -5  -4  -7   91.69    6.60
   5   4   7   74.09    6.60
   6   4   7   16.20    4.40
   7   4   7   39.80    5.70
   8   4   7   16.10    5.10
  -7   5   7   10.00    4.40
   7   5  -7    3.50    4.00
  -6   5   7   13.90    4.40
   6   5  -7   13.50    3.90
  -5   5   7    9.80    4.10
   5   5  -7   10.00    3.20
  -4   5   7   18.40    4.20
   4   5  -7   19.00    3.20
   3  -5  -7   14.30    3.40
  -3   5   7    7.30    3.80
   3   5  -7   14.90    2.80
   2  -5  -7    6.50    3.40
  -2   5   7    2.80    3.40
   2   5  -7    0.00    2.20
   1  -5  -7   16.50    3.70
   1  -5  -7   25.40    5.20
  -1   5   7   24.70    4.10
   1   5  -7   24.40    2.30
   0  -5  -7    8.30    4.20
   0   5  -7    8.00    1.80
   0   5   7    5.70    3.50
  -1  -5  -7   -8.30    3.70
   1   5   7    4.10    3.60
  -1   5  -7    3.40    1.50
  -2  -5  -7   15.80    4.80
   2   5   7   16.50    4.20
  -3  -5  -7   13.20    4.50
  -3   5  -7   16.10    2.00
   3   5   7   13.80    4.30
  -4  -5  -7   14.80    5.20
   4   5   7    9.10    4.60
  -5  -5  -7   13.90    5.20
   5   5   7   11.50    4.80
  -6  -5  -7    4.10    5.40
   6   5   7    2.20    4.90
   7   5   7    3.20    4.50
  -6   6   7   14.00    5.10
   6   6  -7    9.10    4.10
  -5   6   7   17.60    4.80
   5   6  -7   19.80    3.80
   4   6  -7   25.70    3.50
  -4   6   7   28.70    4.80
  -3   6   7   27.10    5.00
  -2   6   7    4.30    4.10
   1  -6  -7   12.40    5.60
  -1   6   7   22.00    4.60
   0  -6  -7    4.30    5.20
   0   6   7   15.30    4.30
  -1  -6  -7   -2.30    5.00
   1   6   7   -1.80    4.10
  -2  -6  -7    2.20    5.20
   2   6   7    9.30    4.40
  -3  -6  -7   10.60    5.40
   3   6   7   11.00    4.70
  -4  -6  -7   55.89    7.20
   4   6   7   49.70    6.00
  -5  -6  -7   29.30    6.20
   5   6   7   39.10    6.20
   1  -7  -7   -1.60    5.80
  -1   7   7   -3.80    4.40
   0  -7  -7   -5.30    5.60
   0   7   7    1.30    4.60
  -1  -7  -7    0.50    5.70
   1   7   7    5.40    4.80
  10   0  -8   20.40    4.60
   9   0  -8    2.70    3.30
   8   0  -8   14.40    3.50
   7   0  -8   -3.20    2.80
  -7   0   8   -0.30    2.80
  -6   0   8   18.10    3.40
   6   0  -8   14.50    3.20
  -5   0   8   58.29    4.70
   5   0  -8   71.39    5.30
   4   0  -8  366.36   10.00
  -4   0   8  365.16   10.00
  -3   0   8  337.27    9.10
   3   0  -8  320.67    9.10
   2   0  -8   -1.30    2.30
  -2   0   8   -0.20    1.90
   1   0  -8  494.65   11.10
  -1   0   8  482.95   11.60
   1   0  -8  474.05   11.70
   0   0   8    3.40    2.10
   0   0  -8    2.40    1.60
   1   0   8    2.60    1.80
  -1   0  -8    3.30    1.70
  -2   0  -8    0.20    1.70
   2   0   8   -0.60    1.90
   3   0   8   12.80    2.70
   4   0   8   14.40    3.10
   5   0   8    1.30    2.40
   6   0   8    0.30    2.70
   7   0   8   56.99    5.20
   8   0   8   76.89    5.90
   9   0   8    7.80    3.70
  10  -1  -8    6.10    4.00
  10   1  -8    2.40    3.90
   9  -1  -8   19.70    4.10
   9   1  -8   24.80    4.30
   8  -1  -8   74.79    6.30
   8   1  -8   65.49    5.90
  -8   1   8   67.39    6.00
   7  -1  -8    3.20    3.20
  -7  -1   8    1.70    2.60
   7   1  -8    1.40    3.20
  -7   1   8    1.60    3.00
   6  -1  -8   80.39    5.50
  -6  -1   8   78.29    5.10
   6   1  -8   78.49    5.60
  -6   1   8   72.89    5.40
   5  -1  -8    8.60    2.80
  -5  -1   8   11.40    2.90
   5   1  -8    7.60    2.80
  -5   1   8    5.70    3.00
   4  -1  -8   21.10    3.40
  -4  -1   8   18.80    2.90
  -4   1   8   18.70    3.10
   4   1  -8   12.40    2.90
  -3  -1   8    5.20    2.20
   3  -1  -8   10.80    2.80
  -3   1   8   10.20    2.60
   3   1  -8    7.50    2.20
   2  -1  -8  342.87    9.50
  -2  -1   8  353.76    9.10
  -2   1   8  349.47    9.50
   2   1  -8  346.07    9.20
  -1  -1   8   54.29    3.70
   1  -1  -8   51.49    4.20
   1   1  -8   56.09    3.90
  -1   1   8   56.19    4.10
   1   1  -8   53.29    2.50
   0  -1  -8   39.90    3.20
   0  -1   8   37.00    3.40
   0   1   8   38.40    3.60
   0   1  -8   40.10    2.30
  -1  -1  -8   83.49    4.20
   1  -1   8   86.69    4.30
   1   1   8   80.49    4.60
   2  -1   8    7.00    2.20
  -2  -1  -8    9.80    2.40
   2   1   8    6.10    2.20
   3  -1   8   98.19    4.90
  -3  -1  -8   89.39    4.60
   3   1   8   95.09    5.40
   4  -1   8   69.29    4.50
   4   1   8   66.09    5.00
   5  -1   8   10.10    2.60
   5   1   8    8.40    2.90
   6  -1   8   29.50    3.70
   6   1   8   28.40    4.10
   7  -1   8    7.60    2.80
   7   1   8    5.00    2.80
   8   1   8   21.00    4.20
   9   1   8   35.60    4.90
  10  -2  -8   23.30    4.50
  10   2  -8   23.60    5.00
   9  -2  -8    6.30    4.00
   9   2  -8    6.40    3.80
   8  -2  -8    6.20    3.60
   8   2  -8    4.10    3.30
  -8   2   8    6.50    3.60
   7  -2  -8    5.50    3.00
  -7   2   8    2.70    3.50
   7   2  -8    1.80    3.20
  -6  -2   8   28.60    3.30
   6  -2  -8   25.30    3.70
  -6   2   8   28.90    4.10
   6   2  -8   26.90    3.80
   5  -2  -8   35.00    3.90
  -5  -2   8   41.20    3.60
  -5   2   8   38.40    4.20
   5   2  -8   42.60    4.10
  -4  -2   8  390.76   10.30
   4  -2  -8  419.26   11.20
   4   2  -8  405.66   10.70
  -4   2   8  389.66   10.80
   3  -2  -8  441.16   11.70
  -3  -2   8  440.46   11.10
   3   2  -8  459.55   11.30
  -3   2   8  472.45   12.00
  -2  -2   8    4.10    2.10
   2  -2  -8    2.00    2.50
  -2   2   8    4.00    2.30
   2   2  -8    0.40    1.70
   2   2  -8    4.90    2.30
   1  -2  -8  615.34   14.50
  -1  -2   8  600.44   13.60
  -1   2   8  598.04   14.30
   1   2  -8  605.04   13.60
   1   2  -8  605.64   13.70
   0  -2  -8   55.69    4.10
   0  -2   8   52.39    3.70
   0   2  -8   55.49    3.60
   0   2  -8   52.89    4.00
   0   2   8   48.80    4.40
   1  -2   8   11.70    2.20
  -1  -2  -8   17.70    2.90
  -1   2  -8   17.00    2.40
   1   2   8   10.50    3.00
   2  -2   8   71.09    3.90
  -2  -2  -8   67.89    4.60
  -2   2  -8   70.49    3.90
   2   2   8   69.69    4.80
   3  -2   8    4.20    2.10
  -3  -2  -8    5.20    2.90
   3   2   8    1.20    2.70
   4  -2   8   19.10    2.90
  -4  -2  -8   22.30    3.70
   4   2   8   16.00    3.30
   5  -2   8   29.90    3.30
   5   2   8   21.30    3.40
   6   2   8    7.50    3.40
   7   2   8   40.20    4.30
   8   2   8   82.29    7.00
   9   2   8   21.30    4.60
   9  -3  -8   16.10    4.10
   9   3  -8   22.20    4.60
   8  -3  -8   26.20    4.30
  -8   3   8   32.20    5.00
   8   3  -8   33.30    4.60
   7  -3  -8    0.00    3.30
  -7   3   8   -0.20    3.60
   7   3  -8    1.40    3.20
   6  -3  -8   25.70    4.10
   6   3  -8   32.90    4.00
  -6   3   8   25.80    4.20
   5  -3  -8    5.10    3.30
   5   3  -8   11.40    3.10
  -5   3   8    9.60    3.20
   4  -3  -8   31.20    3.80
  -4  -3   8   41.40    3.80
  -4   3   8   39.70    4.50
   4   3  -8   45.20    4.60
  -3  -3   8    4.00    2.00
   3  -3  -8    2.50    2.80
   3   3  -8    1.00    2.50
  -3   3   8    1.90    2.90
  -2  -3   8  254.07    7.20
   2  -3  -8  271.17    8.60
   2   3  -8  262.67    7.50
  -2   3   8  260.27    8.40
  -1  -3   8  112.59    4.60
   1  -3  -8  128.39    6.20
   1   3  -8  120.79    4.90
  -1   3   8  119.89    5.90
   0  -3  -8    0.70    2.80
   0  -3   8    2.30    1.90
   0   3   8   -1.40    2.70
   0   3  -8    0.90    2.10
   1  -3   8    3.90    1.90
  -1  -3  -8    1.50    2.80
  -1   3  -8    2.20    2.20
   1   3   8   -0.60    2.90
  -2  -3  -8   16.80    3.40
   2   3   8   18.00    3.60
  -3  -3  -8   21.20    3.80
   3   3   8   19.70    3.70
  -4  -3  -8   17.80    3.70
   4   3   8   16.30    3.80
  -5  -3  -8    3.50    3.70
   5   3   8    2.30    3.30
   6   3   8   -1.40    3.70
   7   3   8    8.10    3.70
   8   3   8   12.50    4.00
  -8   4   8    6.50    4.70
   8   4  -8   -3.10    3.70
   7  -4  -8   -4.00    3.20
  -7   4   8    0.40    4.00
   7   4  -8   -2.80    3.70
   6  -4  -8   -1.20    3.10
   6   4  -8    8.00    3.50
  -6   4   8    6.30    3.90
   5  -4  -8   15.60    3.60
   5   4  -8   28.40    3.80
  -5   4   8   25.40    4.20
   4  -4  -8  176.78    7.70
  -4   4   8  174.68    7.60
   4   4  -8  185.58    6.80
   3  -4  -8  161.18    7.30
   3   4  -8  164.18    6.10
  -3   4   8  173.58    7.60
   2  -4  -8    7.90    3.40
  -2   4   8    8.80    3.50
   2   4  -8   13.00    2.70
   1  -4  -8  171.18    7.60
   1  -4  -8  160.58    7.70
   1   4  -8  162.08    5.60
  -1   4   8  157.88    7.20
   0  -4  -8   22.60    4.10
   0   4   8   29.40    3.90
   0   4  -8   29.10    2.80
  -1  -4  -8    9.70    3.60
   1   4   8    8.90    3.50
  -1   4  -8    9.10    2.40
  -2  -4  -8    7.60    3.80
   2   4   8    9.10    3.80
  -2   4  -8   11.70    2.50
  -3  -4  -8   -0.10    3.70
   3   4   8    1.30    3.60
  -4  -4  -8   19.50    4.60
   4   4   8   13.70    4.30
  -5  -4  -8    9.50    4.60
   5   4   8    7.10    4.30
   6   4   8   -2.20    4.20
   7   4   8   23.80    5.40
   7   5  -8    5.20    4.10
  -7   5   8    6.20    4.60
  -6   5   8    6.60    4.60
   6   5  -8   -4.00    3.30
  -5   5   8   -2.70    4.20
   5   5  -8   -1.70    3.20
   4   5  -8    3.10    3.20
  -4   5   8    0.30    4.00
   3  -5  -8    0.60    3.60
   3   5  -8    3.90    2.80
  -3   5   8   -1.70    3.70
   2  -5  -8   27.60    4.40
   2   5  -8   27.80    3.10
  -2   5   8   25.20    4.50
   1  -5  -8    6.50    4.40
   1  -5  -8   12.00    3.80
  -1   5   8   23.00    4.40
   1   5  -8   17.00    2.60
   0  -5  -8    3.70    4.50
   0  -5  -8    7.90    3.70
   0   5  -8    8.30    2.20
   0   5   8    5.60    3.80
  -1  -5  -8   19.70    4.70
   1   5   8   19.00    4.70
  -1   5  -8   18.70    2.30
  -2  -5  -8    0.80    4.40
  -2   5  -8    5.20    2.00
   2   5   8    5.90    4.30
  -3  -5  -8   32.20    5.50
   3   5   8   23.30    4.80
  -3   5  -8   21.10    2.40
  -4  -5  -8   44.70    6.30
   4   5   8   42.40    5.60
  -5  -5  -8    3.60    5.00
   5   5   8    2.80    4.90
  -6  -5  -8    1.70    5.40
   6   5   8   -3.00    4.60
  -4   6   8   84.99    7.50
  -3   6   8   54.69    5.80
   2  -6  -8   10.40    6.30
  -2   6   8    7.30    4.60
   1  -6  -8   26.40    6.00
  -1   6   8   33.30    5.20
   0  -6  -8    3.20    5.10
   0   6   8    4.60    4.50
  -1  -6  -8   -3.30    5.70
   1   6   8    3.50    4.70
  -2  -6  -8   -8.40    4.90
   2   6   8    2.40    4.80
  -3  -6  -8   11.50    5.90
   3   6   8   10.70    5.00
   9   0  -9   39.90    5.20
   8   0  -9    1.40    3.40
  -8   0   9    5.50    3.60
   7   0  -9   82.49    6.60
  -7   0   9   94.89    6.20
   6   0  -9   55.39    5.20
  -6   0   9   42.80    4.10
   5   0  -9   95.19    5.90
  -5   0   9   93.59    5.70
   4   0  -9  328.67    9.80
  -4   0   9  319.37    9.60
   3   0  -9  634.54   15.10
  -3   0   9  619.84   14.90
   2   0  -9   41.60    3.90
  -2   0   9   57.49    4.40
   1   0  -9  115.99    5.80
   1   0  -9  117.19    4.40
  -1   0   9  118.89    5.50
   0   0  -9   -3.20    1.70
   0   0   9   -3.50    2.00
   1   0   9  254.37    8.00
  -1   0  -9  245.38    6.80
   2   0   9  103.99    5.40
  -2   0  -9  106.99    4.40
   3   0   9   12.50    2.90
   4   0   9    5.00    3.00
   5   0   9   25.70    3.60
   6   0   9   -1.10    2.70
   7   0   9   69.99    5.40
   8   0   9  122.69    7.20
   9  -1  -9    0.30    3.60
   9   1  -9    3.60    3.50
   8  -1  -9    0.40    3.40
   8   1  -9   -4.30    3.60
  -8   1   9    0.40    3.00
   7  -1  -9   10.10    3.70
  -7  -1   9   10.00    3.10
  -7   1   9   14.30    3.80
   7   1  -9    9.70    3.90
  -6  -1   9   -1.20    2.80
   6  -1  -9   -0.90    3.00
  -6   1   9    0.40    2.80
   6   1  -9   -3.90    2.80
   5  -1  -9    3.20    2.80
  -5  -1   9    2.70    2.70
   5   1  -9    2.90    3.10
  -5   1   9   -0.90    2.70
  -4  -1   9   15.50    3.00
   4  -1  -9   11.80    2.80
  -4   1   9   15.40    2.90
   4   1  -9   16.50    3.20
  -3  -1   9   17.10    3.00
   3  -1  -9   21.90    3.50
  -3   1   9   14.20    3.10
   3   1  -9   17.40    3.10
  -2  -1   9  132.39    5.60
   2  -1  -9  135.79    6.30
   2   1  -9  124.59    5.70
  -2   1   9  129.59    5.90
  -1  -1   9    2.20    2.40
   1  -1  -9   -1.00    2.00
   1  -1  -9   -0.20    2.50
   1   1  -9   -0.10    2.30
  -1   1   9    0.90    2.50
   1   1  -9    2.50    1.50
   0  -1   9   40.80    3.90
   0  -1  -9   43.50    3.50
   0   1  -9   44.30    4.20
   0   1  -9   46.30    2.60
   0   1   9   47.60    4.40
   1  -1   9   46.10    4.00
  -1  -1  -9   45.10    3.70
   1   1   9   48.70    4.40
  -2  -1  -9   76.09    4.30
   2  -1   9   79.69    4.60
   2   1   9   72.19    5.10
   3  -1   9   75.79    4.80
  -3  -1  -9   74.19    4.60
   3   1   9   76.89    5.30
   4  -1   9  105.99    5.50
   4   1   9  109.39    6.30
   5  -1   9    7.90    2.90
   5   1   9    5.70    3.10
   6  -1   9    0.40    2.50
   6   1   9   -2.70    2.80
   7   1   9   24.70    4.00
   8   1   9   12.00    4.10
   9  -2  -9   23.20    4.50
   9   2  -9   12.40    4.10
  -9   2   9   26.70    5.00
   8  -2  -9   -4.20    3.40
   8   2  -9    2.20    3.40
  -8   2   9   -1.80    3.40
   7  -2  -9   44.00    5.00
   7   2  -9   46.80    5.00
  -7   2   9   37.60    4.60
  -6  -2   9   13.10    3.00
   6  -2  -9   14.80    3.60
  -6   2   9   19.40    4.00
   6   2  -9   14.30    3.70
  -5  -2   9   45.60    4.60
   5  -2  -9   37.00    4.20
  -5   2   9   43.40    4.50
   5   2  -9   50.59    4.60
  -4  -2   9  147.59    6.20
   4  -2  -9  154.78    7.00
   4   2  -9  154.58    6.70
  -4   2   9  158.68    6.90
  -3  -2   9  315.87    9.00
   3  -2  -9  314.17    9.70
  -3   2   9  315.97    9.80
   3   2  -9  321.97    9.30
   2  -2  -9    0.70    2.80
  -2  -2   9    1.30    2.20
   2   2  -9   -2.10    2.30
  -2   2   9   -0.80    2.60
   1  -2  -9    9.80    3.50
   1  -2  -9   10.20    2.90
  -1  -2   9    5.00    2.40
  -1   2   9    5.00    2.90
   1   2  -9   10.80    2.90
   0  -2   9    1.70    2.10
   0  -2  -9    3.30    2.60
   0   2   9    3.50    2.60
   0   2  -9   -0.70    2.40
  -1  -2  -9   50.09    4.40
   1  -2   9   44.90    3.80
   1   2   9   49.90    4.90
   2  -2   9    4.30    2.30
  -2  -2  -9    2.50    2.70
   2   2   9    3.00    2.80
  -3  -2  -9   18.20    3.50
   3  -2   9   15.00    2.70
   3   2   9   16.00    3.60
  -4  -2  -9    1.70    3.10
   4   2   9    0.60    3.10
   5   2   9   -0.10    3.30
   6   2   9   -0.80    3.20
   7   2   9   28.00    4.70
   8   2   9   73.39    6.70
   8  -3  -9   -1.40    3.60
   8   3  -9    3.00    3.70
  -8   3   9    4.70    4.20
   7  -3  -9    2.10    3.20
  -7   3   9    2.80    3.90
   7   3  -9    1.20    3.40
   6  -3  -9    3.70    3.40
  -6   3   9   -0.70    3.10
   6   3  -9    1.70    3.40
   5  -3  -9   10.20    3.70
   5   3  -9   12.20    3.40
  -5   3   9    7.70    3.60
   4  -3  -9    2.80    3.30
   4   3  -9    5.50    3.00
  -4   3   9    4.30    3.30
   3  -3  -9   -1.60    2.90
  -3   3   9    1.10    3.00
   3   3  -9    1.00    2.80
   2  -3  -9    9.30    3.30
   2   3  -9   15.40    3.20
  -2   3   9   16.40    3.60
   1  -3  -9    8.00    3.30
   1  -3  -9   -2.50    3.00
   1   3  -9    1.90    2.50
  -1   3   9    4.70    3.20
   0  -3  -9   81.79    5.60
   0   3   9   97.29    5.90
   0   3  -9   87.19    4.90
  -1  -3  -9  113.09    6.10
  -1   3  -9  118.19    5.50
   1   3   9  126.79    6.70
  -2  -3  -9   16.90    3.70
   2   3   9   22.50    4.00
  -3  -3  -9  103.89    6.00
   3   3   9  106.69    6.70
  -4  -3  -9  114.19    6.70
   4   3   9  111.99    6.90
  -5  -3  -9    4.40    4.00
   5   3   9    4.40    3.80
   6   3   9    2.30    3.70
   7   3   9   12.20    4.10
   7  -4  -9   13.70    4.10
  -7   4   9   17.40    4.90
   7   4  -9   22.90    4.40
   6  -4  -9    5.80    3.40
   6   4  -9   16.20    4.00
  -6   4   9    6.80    3.90
   5  -4  -9   17.80    3.90
   5   4  -9   30.40    4.00
  -5   4   9   35.60    5.20
   4  -4  -9  116.29    7.10
  -4   4   9  136.09    7.40
   4   4  -9  133.49    6.10
   3  -4  -9  110.89    7.00
  -3   4   9  115.09    7.20
   3   4  -9  117.69    5.80
   2  -4  -9    0.60    3.60
  -2   4   9    1.10    3.60
   2   4  -9    2.60    2.80
   1  -4  -9   13.40    4.20
   1  -4  -9    9.50    3.80
  -1   4   9    7.10    3.80
   1   4  -9   18.10    3.10
   0  -4  -9   -1.50    3.60
   0   4   9    3.20    3.60
   0   4  -9    5.50    2.60
  -1  -4  -9   17.40    4.30
  -1   4  -9   18.40    2.90
   1   4   9   25.40    4.70
  -2  -4  -9    1.90    3.80
   2   4   9    4.90    4.00
  -2   4  -9    4.20    2.40
  -3  -4  -9    5.40    4.00
   3   4   9    9.00    3.90
  -4  -4  -9   -0.90    4.00
   4   4   9    1.40    3.90
  -5  -4  -9   -2.50    4.50
   5   4   9   -1.00    4.30
   6   4   9    8.20    4.40
  -5   5   9   -1.70    4.40
   5   5  -9    0.20    3.70
   4   5  -9    2.60    3.30
  -4   5   9   -0.80    4.00
   3   5  -9    6.40    3.30
  -3   5   9    9.30    4.30
   2  -5  -9   14.70    4.60
   2   5  -9   19.30    3.30
  -2   5   9   19.10    4.80
   1  -5  -9    2.70    3.80
   1  -5  -9    3.80    4.70
  -1   5   9    0.80    4.30
   1   5  -9    6.90    2.70
   0  -5  -9    7.80    4.00
   0  -5  -9    5.90    4.60
   0   5  -9    6.40    2.60
   0   5   9   10.80    4.40
  -1  -5  -9   24.40    5.50
   1   5   9   29.50    5.10
  -1   5  -9   24.40    2.80
  -2  -5  -9    1.10    4.30
   2   5   9   13.60    4.60
  -2   5  -9    8.40    2.50
  -3  -5  -9    8.30    5.10
  -3   5  -9    9.90    2.60
   3   5   9    8.90    4.80
  -4  -5  -9   23.30    5.70
   4   5   9   35.10    5.60
   2  -6  -9    0.60    5.50
  -2   6   9    1.20    4.70
   1  -6  -9    9.80    5.60
  -1   6   9    7.10    5.20
   0  -6  -9    5.80    5.60
   0   6   9    1.10    5.10
  -1  -6  -9    3.70    5.30
   1   6   9    1.30    4.80
  -8   0  10    2.30    3.30
   8   0 -10   -2.30    3.50
  -7   0  10   31.60    4.40
   7   0 -10   28.50    4.50
   6   0 -10   -0.80    3.40
  -6   0  10    3.50    3.30
   5   0 -10   15.90    3.60
  -5   0  10   18.70    3.60
   4   0 -10    6.70    3.00
  -4   0  10    5.50    3.10
   3   0 -10    3.60    2.70
  -3   0  10    0.70    2.70
   2   0 -10    0.60    2.80
  -2   0  10    1.40    2.60
   1   0 -10   20.60    3.70
   1   0 -10   21.90    2.60
  -1   0  10   15.40    3.00
   0   0  10   12.70    2.70
   0   0 -10    6.40    2.90
   0   0 -10   13.90    2.40
  -1   0 -10   10.50    2.40
   1   0  10    3.80    2.50
  -2   0 -10    4.50    2.10
   2   0  10    4.50    2.60
   3   0  10    2.60    2.60
   4   0  10    2.80    2.90
   5   0  10   -3.80    2.90
   6   0  10   40.60    4.60
   7   0  10    4.90    3.40
   8  -1 -10    7.50    4.10
   8   1 -10    3.40    3.70
  -8   1  10    1.00    3.90
  -7  -1  10   30.90    4.30
   7  -1 -10   33.30    4.90
  -7   1  10   29.50    4.60
   7   1 -10   29.40    4.50
  -6  -1  10    2.30    3.20
   6  -1 -10    0.70    3.10
  -6   1  10   -3.50    3.00
   6   1 -10    0.20    3.30
   5  -1 -10   91.79    6.40
  -5  -1  10   99.99    6.10
   5   1 -10  103.29    6.50
  -5   1  10   97.89    6.40
  -4  -1  10   24.50    3.60
   4  -1 -10   25.10    3.80
  -4   1  10   25.20    3.70
   4   1 -10   32.00    4.30
  -3  -1  10    5.80    2.70
   3  -1 -10   10.40    3.20
  -3   1  10    8.50    2.80
   3   1 -10    9.80    3.10
  -2  -1  10  134.99    6.10
   2  -1 -10  139.39    6.60
   2   1 -10  137.69    4.50
   2   1 -10  145.89    6.50
  -2   1  10  135.99    6.50
   1  -1 -10   -0.80    2.20
  -1  -1  10   -1.60    2.40
   1  -1 -10    0.60    3.00
   1   1 -10   -0.40    1.40
  -1   1  10   -3.70    2.20
   1   1 -10   -1.10    2.60
   0  -1  10   56.29    4.60
   0  -1 -10   58.29    4.20
   0   1 -10   57.59    2.80
   0   1 -10   57.89    5.00
   0   1  10   55.79    5.10
   1  -1  10  111.09    5.60
  -1  -1 -10  107.39    5.30
   1   1  10  117.19    6.30
   2  -1  10   25.70    3.40
  -2  -1 -10   39.00    4.10
   2   1  10   27.50    3.80
  -3  -1 -10   46.50    4.40
   3  -1  10   44.30    4.60
   3   1  10   50.89    4.60
   4  -1  10   50.79    4.80
   4   1  10   54.79    4.80
   5   1  10   -2.00    3.10
   6   1  10   30.30    4.10
   7   1  10    6.80    3.50
   8  -2 -10    1.80    4.00
   8   2 -10    8.40    4.00
  -8   2  10   13.10    4.20
   7  -2 -10   29.40    4.60
   7   2 -10   41.90    5.00
  -7   2  10   25.00    4.50
   6  -2 -10    2.90    3.40
   6   2 -10    3.70    3.50
  -6   2  10    2.50    3.30
   5  -2 -10   40.10    4.80
  -5   2  10   34.70    4.60
   5   2 -10   40.20    4.50
  -4  -2  10   33.30    3.90
   4  -2 -10   30.50    4.40
   4   2 -10   30.70    4.20
  -4   2  10   29.60    4.20
  -3  -2  10   -1.90    2.50
   3  -2 -10   -5.40    2.90
   3   2 -10   -2.00    2.80
  -3   2  10   -0.40    3.00
  -2  -2  10    8.30    2.60
   2  -2 -10    6.60    3.20
   2   2 -10   11.40    3.00
  -2   2  10    8.30    3.10
   1  -2 -10    1.20    2.90
   1  -2 -10    0.80    2.70
  -1  -2  10   -1.10    2.30
  -1   2  10   -0.40    2.50
   1   2 -10   -4.90    2.40
   0  -2  10    3.30    2.50
   0  -2 -10    1.30    2.70
   0   2 -10    1.40    2.70
   0   2  10   -1.00    2.80
  -1  -2 -10   45.60    4.60
  -1   2 -10   43.00    4.00
   1   2  10   57.29    5.90
  -2  -2 -10   -0.80    2.90
   2   2  10    1.30    3.20
  -3  -2 -10   15.00    3.50
   3   2  10   16.70    3.80
  -4  -2 -10   28.00    4.30
   4   2  10   23.00    4.10
   5   2  10    6.60    3.90
   6   2  10   13.80    4.10
   7   2  10    0.50    3.50
   7  -3 -10    2.60    3.50
  -7   3  10   19.00    4.90
   7   3 -10   13.70    4.00
   6  -3 -10    0.70    3.60
  -6   3  10   -0.20    3.50
   6   3 -10    3.70    3.40
   5  -3 -10   23.40    4.00
  -5   3  10   35.50    5.00
   5   3 -10   36.10    4.50
   4  -3 -10   33.30    4.60
   4   3 -10   37.60    4.30
  -4   3  10   29.70    4.50
   3  -3 -10    2.30    3.40
  -3   3  10    0.20    3.50
   3   3 -10   -1.30    2.90
   2  -3 -10   33.00    4.40
   2   3 -10   41.10    4.20
  -2   3  10   38.20    4.60
   1  -3 -10    7.80    3.40
   1  -3 -10    8.30    3.60
   1   3 -10    7.10    2.90
  -1   3  10    2.40    3.20
   0  -3 -10   16.20    3.60
   0   3  10   18.30    4.00
   0   3 -10   16.80    3.40
  -1  -3 -10   71.49    5.70
   1   3  10   70.99    6.40
  -1   3 -10   73.69    5.10
  -2  -3 -10   47.40    5.10
   2   3  10   54.79    5.40
  -2   3 -10   42.40    4.00
  -3  -3 -10    6.30    3.90
   3   3  10    7.40    3.60
  -4  -3 -10   36.70    4.90
   4   3  10   26.80    4.60
  -5  -3 -10    3.00    4.20
   5   3  10   -1.00    3.60
   6   3  10    2.20    4.00
   6  -4 -10   -5.30    3.40
  -6   4  10    2.80    4.30
   6   4 -10   -2.20    3.80
   5  -4 -10    4.70    3.80
   5   4 -10   12.30    3.90
  -5   4  10   12.40    4.50
   4  -4 -10    7.80    3.60
  -4   4  10    7.30    4.40
   4   4 -10   18.30    3.80
   3  -4 -10    2.00    3.70
  -3   4  10   -1.20    3.80
   3   4 -10    1.80    3.30
   2  -4 -10    5.20    3.60
   2  -4 -10   -5.60    4.10
   2   4 -10   -8.40    2.90
  -2   4  10   -3.50    3.80
   1  -4 -10   -4.90    3.60
   1  -4 -10   -1.70    3.60
   1   4 -10   -5.20    2.70
  -1   4  10   -0.20    3.70
   0  -4 -10    3.50    3.80
   0  -4 -10    3.50    3.90
   0   4  10    3.80    3.90
   0   4 -10   -2.80    2.70
  -1  -4 -10    2.10    3.80
   1   4  10    7.90    4.00
  -1   4 -10    5.30    2.80
  -2  -4 -10   -2.80    3.90
   2   4  10    0.20    3.80
  -2   4 -10   -0.80    2.60
  -3  -4 -10    1.70    3.90
   3   4  10    2.70    4.20
  -3   4 -10   -1.30    2.80
  -4  -4 -10    4.30    4.10
   4   4  10    2.10    4.10
  -5  -4 -10    1.00    4.70
   5   4  10    0.90    4.40
   3   5 -10    2.50    3.40
  -3   5  10   13.00    5.00
   2  -5 -10   12.80    5.10
  -2   5  10   15.60    4.70
   2   5 -10   10.00    3.30
   1  -5 -10    6.10    4.40
   1  -5 -10    4.30    4.80
  -1   5  10    3.40    4.70
   1   5 -10    4.10    2.90
   0  -5 -10   40.20    5.90
   0  -5 -10   28.50    5.30
   0   5  10   41.60    5.60
   0   5 -10   38.40    3.60
  -1  -5 -10   34.50    5.60
  -1   5 -10   34.50    3.50
   1   5  10   38.50    5.60
  -2  -5 -10   -1.90    4.80
   2   5  10    2.20    5.10
   3   5  10    8.10    5.50
   7   0 -11   23.80    4.50
  -7   0  11   26.80    4.70
  -6   0  11   -5.40    3.00
   6   0 -11   -1.80    3.40
   5   0 -11   30.20    4.70
  -5   0  11   21.80    4.00
   4   0 -11   -0.30    3.10
  -4   0  11    2.20    3.10
  -3   0  11   16.60    3.50
   3   0 -11   21.60    4.10
   2   0 -11    0.40    3.00
   2   0 -11    0.00    2.00
  -2   0  11    1.30    2.70
   1   0 -11    0.60    2.90
   1   0 -11    0.40    2.20
  -1   0  11   -1.60    2.60
   0   0 -11   31.30    3.30
   0   0  11   28.00    3.80
   0   0 -11   36.90    4.50
  -1   0 -11    3.90    2.10
   1   0  11   -0.50    2.70
   2   0  11   -0.40    3.10
   3   0  11    2.40    3.10
   4   0  11   -4.70    2.70
   5   0  11    7.20    3.60
   7  -1 -11   32.90    4.80
  -7  -1  11   40.30    5.20
  -7   1  11   27.10    4.50
   7   1 -11   23.70    4.70
   6  -1 -11    2.20    3.50
  -6  -1  11   -1.70    3.20
   6   1 -11    1.70    3.70
  -6   1  11    1.80    3.40
   5  -1 -11   62.99    5.90
  -5  -1  11   57.59    5.30
   5   1 -11   63.29    6.30
  -5   1  11   71.09    6.30
   4  -1 -11   66.89    6.30
  -4  -1  11   77.59    5.90
  -4   1  11   77.79    6.10
   4   1 -11   76.09    6.40
   3  -1 -11    5.80    3.50
  -3  -1  11   14.50    3.50
   3   1 -11   15.70    3.60
  -3   1  11   13.80    3.60
   2  -1 -11   49.30    4.90
  -2  -1  11   54.19    4.70
   2  -1 -11   42.30    4.20
  -2   1  11   47.30    4.50
   2   1 -11   47.10    4.60
   1  -1 -11   25.40    3.20
   1  -1 -11   22.40    4.00
  -1  -1  11   28.00    3.60
  -1   1  11   29.20    4.20
   1   1 -11   22.60    3.60
   0  -1 -11   77.39    4.80
   0  -1  11   73.99    5.50
   0  -1 -11   74.99    6.10
   0   1 -11   79.89    5.90
   0   1  11   77.49    5.70
  -1  -1 -11   46.20    4.20
   1  -1  11   49.20    4.90
   1   1  11   47.10    4.50
   2  -1  11   10.10    3.10
  -2  -1 -11   14.30    3.10
   2   1  11   12.80    3.50
  -3  -1 -11    0.20    2.70
   3   1  11    2.20    3.10
   4   1  11   14.40    3.90
   5   1  11    9.80    3.80
   6   1  11   80.19    7.30
   6  -2 -11    3.30    3.90
  -6   2  11    5.30    3.90
   6   2 -11    3.60    3.80
   5  -2 -11    5.60    3.50
  -5   2  11    3.80    3.70
   5   2 -11   -1.50    3.40
   4  -2 -11    1.00    3.20
  -4   2  11    0.50    3.00
   4   2 -11    0.60    3.40
   3  -2 -11   -3.70    3.20
   3   2 -11    1.70    3.30
  -3   2  11   -0.30    3.20
   2  -2 -11   15.70    3.50
   2  -2 -11    7.00    3.50
  -2   2  11   12.00    3.50
   2   2 -11   19.30    3.70
   1  -2 -11    1.90    3.10
   1  -2 -11   -0.60    3.50
  -1   2  11    3.80    3.40
   1   2 -11    2.20    3.10
   0  -2 -11   82.99    5.60
   0  -2 -11   86.79    6.60
   0   2  11   93.39    6.30
   0   2 -11   98.09    6.10
  -1  -2 -11   17.40    3.60
   1   2  11   28.80    4.40
  -1   2 -11   15.80    3.60
  -2  -2 -11   12.10    3.40
   2   2  11    9.70    3.60
  -3  -2 -11   20.40    4.00
   3   2  11   20.90    4.30
  -4  -2 -11    7.70    3.70
   4   2  11    7.70    3.90
   5   2  11    4.90    4.00
   5  -3 -11   19.00    4.10
  -5   3  11   29.50    5.10
   5   3 -11   23.30    4.40
   4  -3 -11   19.80    4.20
   4   3 -11   25.50    4.30
  -4   3  11   25.20    4.90
   3  -3 -11   15.60    4.30
   3   3 -11   14.70    3.90
  -3   3  11   19.20    4.00
   2  -3 -11   11.00    3.80
   2  -3 -11    7.30    3.60
  -2   3  11   14.60    4.00
   2   3 -11   14.60    3.70
   1  -3 -11   26.20    4.40
   1  -3 -11   38.20    4.80
  -1   3  11   37.10    4.80
   1   3 -11   35.60    4.10
   0  -3 -11   61.19    5.60
   0  -3 -11   57.39    5.40
   0   3 -11   68.99    5.50
   0   3  11   74.79    6.50
  -1  -3 -11    9.80    3.90
   1   3  11    8.50    3.80
  -1   3 -11    6.40    3.20
  -2  -3 -11    2.50    3.70
  -2   3 -11   -7.10    2.90
   2   3  11    1.40    3.80
  -3  -3 -11   -0.40    3.60
   3   3  11   -5.40    3.70
  -4  -3 -11    0.40    4.00
   4   3  11   -6.20    3.50
   4  -4 -11    0.60    3.90
   4   4 -11    1.10    3.60
  -4   4  11    1.40    4.00
   3  -4 -11   -0.30    3.70
   3   4 -11    4.10    3.50
  -3   4  11    0.80    4.30
   2  -4 -11    5.10    4.20
   2  -4 -11    0.50    4.10
  -2   4  11    0.60    4.30
   2   4 -11   -1.20    3.30
   1  -4 -11   -1.70    4.00
   1  -4 -11   -1.00    3.70
  -1   4  11   -1.00    4.10
   1   4 -11   -3.40    3.10
   0  -4 -11   17.20    4.60
   0  -4 -11   20.90    4.70
   0   4  11   22.80    4.70
   0   4 -11   18.90    3.70
  -1  -4 -11    5.10    4.20
   1   4  11    7.20    4.40
  -1   4 -11    6.10    3.20
  -2  -4 -11    3.60    4.20
   2   4  11    5.00    4.80
  -2   4 -11   -0.20    2.80
  -3  -4 -11    8.90    4.80
  -3   4 -11    1.20    3.10
   3   4  11    2.80    4.40
   6   0 -12   25.10    5.10
  -6   0  12   17.80    4.30
  -5   0  12   -6.50    3.20
   5   0 -12    2.80    3.90
  -4   0  12    3.50    3.30
   4   0 -12    9.20    4.10
  -3   0  12    4.40    3.50
   3   0 -12    5.40    3.40
   2   0 -12    2.70    3.20
  -2   0  12    5.70    3.30
  -1   0  12   12.50    3.60
   1   0 -12   18.30    4.10
   0   0  12   48.20    4.90
   0   0 -12   46.20    5.30
   1   0  12    1.40    3.00
  -1   0 -12    4.70    3.60
   2   0  12   32.10    4.50
   3   0  12   31.00    4.60
   5  -1 -12    7.10    4.20
   5   1 -12    8.20    4.00
  -5   1  12    5.80    3.80
   4  -1 -12   17.30    4.40
   4   1 -12   11.20    4.10
  -4   1  12   10.70    3.80
   3  -1 -12   -0.30    2.70
   3  -1 -12    3.00    3.60
   3   1 -12   -3.20    3.20
  -3   1  12   -1.20    3.30
   2  -1 -12   15.20    4.00
   2  -1 -12   17.30    3.30
   2   1 -12   10.90    3.70
  -2   1  12   23.40    4.30
   1  -1 -12   -0.10    3.20
   1  -1 -12    4.80    2.80
   1   1 -12    2.20    3.40
  -1   1  12    0.70    3.10
   0  -1 -12    0.80    2.70
   0  -1 -12   -0.50    3.40
   0   1  12    1.00    3.30
   0   1 -12   -1.40    3.00
  -1  -1 -12   11.80    3.20
  -1   1 -12    9.80    3.70
   1   1  12    8.30    3.50
  -2  -1 -12    3.30    2.90
   2   1  12    1.60    3.20
   3   1  12   -2.20    3.10
   4   1  12   11.20    4.10
   5  -2 -12    1.80    4.10
   5   2 -12    0.90    3.90
  -5   2  12   -1.70    3.90
   4  -2 -12   -7.30    3.50
   4   2 -12   -4.40    3.60
  -4   2  12   -4.50    3.40
   3  -2 -12    2.70    3.70
   3   2 -12    6.30    3.80
  -3   2  12   -0.20    3.50
   2  -2 -12   -1.60    3.80
   2  -2 -12   -0.20    3.00
  -2   2  12    2.30    3.60
   2   2 -12   -3.30    3.20
   1  -2 -12    4.10    3.70
   1  -2 -12   -0.40    2.90
  -1   2  12   -0.70    3.40
   1   2 -12    2.20    3.30
   0  -2 -12    2.10    3.30
   0  -2 -12    8.10    4.20
   0   2  12    1.50    3.50
   0   2 -12    3.00    3.20
  -1  -2 -12   -0.20    3.20
   1   2  12    1.70    3.40
  -1   2 -12   -0.70    3.30
  -2  -2 -12    4.10    3.60
   2   2  12    0.70    3.40
  -2   2 -12   -1.20    3.20
  -3  -2 -12    1.10    3.60
   3   2  12    1.60    3.70
   4   2  12    5.20    4.00
   3  -3 -12    0.30    4.00
   3  -3 -12   -8.00    3.70
  -3   3  12    4.30    3.80
   3   3 -12   -5.10    3.60
   2  -3 -12   32.10    5.50
   2  -3 -12   30.00    4.80
  -2   3  12   28.90    4.80
   2   3 -12   29.50    4.60
   1  -3 -12   10.10    4.30
   1  -3 -12    7.10    3.80
   1   3 -12    5.90    3.60
  -1   3  12    8.90    4.20
   0  -3 -12    2.80    4.10
   0  -3 -12    9.30    4.10
   0   3 -12    9.00    3.70
   0   3  12    2.70    3.80
  -1  -3 -12   30.90    4.90
   1   3  12   33.20    5.20
  -1   3 -12   24.20    4.10
  -2  -3 -12    9.20    4.00
   2   3  12    8.00    4.10
  -2   3 -12   12.10    3.80
   3   0 -13   22.50    4.60
  -3   0  13   20.20    4.20
  -2   0  13   16.40    3.80
   2   0 -13   20.30    4.40
   1   0 -13   10.10    4.20
  -1   0  13    0.80    3.30
   0   0 -13    9.80    4.00
   0   0  13    6.60    3.80
  -1   0 -13   15.30    4.40
   2  -1 -13   66.69    6.80
   2   1 -13   77.29    7.00
  -2   1  13   75.49    7.30
   1  -1 -13  106.79    8.00
  -1   1  13  108.99    7.30
   1   1 -13  119.49    7.60
   0  -1 -13    3.90    4.00
   0   1  13    5.90    3.60
   0   1 -13    4.60    3.80
  -1  -1 -13   14.90    4.40
   1   1  13   23.30    4.70
  -1   1 -13   24.60    4.80
;
_shelx_hkl_checksum              92935
#END Tags that were not found in dictionaries
loop_
_space_group_symop_operation_xyz
'x, y, z'
'-x, y+1/2, -z'
'-x, -y, -z'
'x, -y-1/2, z'
loop_
_atom_site_label
_atom_site_type_symbol
_atom_site_fract_x
_atom_site_fract_y
_atom_site_fract_z
_atom_site_U_iso_or_equiv
_atom_site_adp_type
_atom_site_occupancy
_atom_site_site_symmetry_order
_atom_site_calc_flag
_atom_site_refinement_flags_posn
_atom_site_refinement_flags_adp
_atom_site_refinement_flags_occupancy
_atom_site_disorder_assembly
_atom_site_disorder_group
Cl1 Cl 0.67173(11) 0.7500 0.96444(12) 0.0481(4) Uani 1 2 d S T P . .
O1 O 0.3249(4) 0.721(6) 0.6985(3) 0.062(7) Uani 0.5 1 d . . P . .
O2 O 0.2180(4) 0.779(6) 1.1378(3) 0.045(6) Uani 0.5 1 d . . P . .
N1 N 0.2942(3) 0.7500 0.9054(3) 0.0342(9) Uani 1 2 d DS T P . .
H1 H 0.234(5) 0.7500 0.965(5) 0.09(2) Uiso 1 2 d DS T P . .
N2 N 0.4324(4) 0.7500 1.0866(3) 0.0291(8) Uani 1 2 d S T P . .
H2 H 0.510(4) 0.7500 1.116(4) 0.018(10) Uiso 1 2 d S T P . .
N3 N 0.5191(3) 0.7500 0.8826(3) 0.0345(9) Uani 1 2 d S T P . .
C1 C 0.0242(8) 0.6589(18) 0.8500(8) 0.084(3) Uani 0.5 1 d . U P A -1
H1A H -0.0681 0.6599 0.8177 0.126 Uiso 0.5 1 calc GR . P A -1
H1B H 0.0356 0.7566 0.9188 0.126 Uiso 0.5 1 calc GR . P A -1
H1C H 0.0473 0.5241 0.8814 0.126 Uiso 0.5 1 calc GR . P A -1
C2 C 0.0776(11) 1.003(2) 0.7740(13) 0.111(4) Uani 0.5 1 d . U P A -1
H2A H -0.0179 1.0268 0.7751 0.167 Uiso 0.5 1 calc GR . P A -1
H2B H 0.1137 1.0781 0.7039 0.167 Uiso 0.5 1 calc GR . P A -1
H2C H 0.1201 1.0493 0.8537 0.167 Uiso 0.5 1 calc GR . P A -1
C3 C 0.0610(7) 0.7024(18) 0.6278(6) 0.060(3) Uani 0.5 1 d . U P A -1
H3A H 0.0791 0.5689 0.5933 0.091 Uiso 0.5 1 calc GR . P A -1
H3B H 0.1096 0.8045 0.5821 0.091 Uiso 0.5 1 calc GR . P A -1
H3C H -0.0340 0.7302 0.6185 0.091 Uiso 0.5 1 calc GR . P A -1
C4 C 0.1022(6) 0.792(2) 0.7583(6) 0.047(5) Uani 0.5 1 d . . P . .
C5 C 0.2508(4) 0.7500 0.7807(4) 0.0342(10) Uani 1 2 d S T P A .
C6 C 0.4221(4) 0.7500 0.9558(4) 0.0246(8) Uani 1 2 d S T P . .
C7 C 0.3338(4) 0.7500 1.1709(4) 0.0358(11) Uani 1 2 d S T P . .
C8 C 0.3788(5) 0.7500 1.3103(4) 0.0382(11) Uani 1 2 d S T P . .
C9 C 0.5298(6) 0.7500 1.3322(5) 0.0646(18) Uani 1 2 d S T P . .
H9A H 0.5528 0.7117 1.4196 0.097 Uiso 0.5 1 calc GR . P B -1
H9B H 0.5642 0.8850 1.3160 0.097 Uiso 0.5 1 calc GR . P B -1
H9C H 0.5687 0.6534 1.2749 0.097 Uiso 0.5 1 calc GR . P B -1
C10 C 0.3234(5) 0.5624(7) 1.3681(3) 0.0654(12) Uani 1 1 d . . . . .
H10A H 0.2278 0.5565 1.3493 0.098 Uiso 1 1 calc GR . . . .
H10B H 0.3409 0.5655 1.4596 0.098 Uiso 1 1 calc GR . . . .
H10C H 0.3655 0.4435 1.3329 0.098 Uiso 1 1 calc GR . . . .
loop_
_atom_site_aniso_label
_atom_site_aniso_U_11
_atom_site_aniso_U_22
_atom_site_aniso_U_33
_atom_site_aniso_U_23
_atom_site_aniso_U_13
_atom_site_aniso_U_12
Cl1 0.0259(6) 0.0611(9) 0.0573(8) 0.000 0.0022(5) 0.000
O1 0.038(2) 0.12(2) 0.0291(18) -0.025(8) 0.0033(16) 0.013(6)
O2 0.0323(17) 0.077(19) 0.0262(16) -0.003(3) -0.0003(13) 0.016(6)
N1 0.0247(18) 0.054(3) 0.0239(17) 0.000 0.0024(14) 0.000
N2 0.0254(18) 0.034(2) 0.0277(18) 0.000 -0.0045(14) 0.000
N3 0.0261(18) 0.040(2) 0.038(2) 0.000 0.0030(15) 0.000
C1 0.048(4) 0.143(9) 0.062(4) 0.005(5) 0.000(3) -0.030(5)
C2 0.074(6) 0.110(8) 0.146(8) -0.024(7) -0.039(6) 0.036(6)
C3 0.047(3) 0.085(9) 0.048(3) -0.007(4) -0.009(3) -0.006(4)
C4 0.030(3) 0.072(15) 0.038(3) -0.007(4) -0.002(2) 0.005(4)
C5 0.037(2) 0.041(3) 0.024(2) 0.000 0.0012(18) 0.000
C6 0.030(2) 0.0155(19) 0.028(2) 0.000 0.0010(16) 0.000
C7 0.038(2) 0.043(3) 0.027(2) 0.000 0.0029(18) 0.000
C8 0.045(3) 0.045(3) 0.024(2) 0.000 -0.0067(18) 0.000
C9 0.058(3) 0.099(5) 0.035(3) 0.000 -0.020(2) 0.000
C10 0.107(3) 0.057(3) 0.0316(17) 0.0074(18) -0.0064(19) -0.023(3)
loop_
_atom_type_symbol
_atom_type_description
_atom_type_scat_dispersion_real
_atom_type_scat_dispersion_imag
_atom_type_scat_source
C C 0.0033 0.0016 'International Tables Vol C Tables 4.2.6.8 and 6.1.1.4'
H H 0.0000 0.0000 'International Tables Vol C Tables 4.2.6.8 and 6.1.1.4'
Cl Cl 0.1484 0.1585 'International Tables Vol C Tables 4.2.6.8 and 6.1.1.4'
N N 0.0061 0.0033 'International Tables Vol C Tables 4.2.6.8 and 6.1.1.4'
O O 0.0106 0.0060 'International Tables Vol C Tables 4.2.6.8 and 6.1.1.4'
loop_
_geom_angle_atom_site_label_1
_geom_angle_atom_site_label_2
_geom_angle_atom_site_label_3
_geom_angle
_geom_angle_site_symmetry_1
_geom_angle_site_symmetry_3
O1 O1 C5 80.6(18) 4_575 .
O2 O2 C7 81.0(17) 4_575 .
C5 N1 H1 118(4) . .
C5 N1 C6 128.8(4) . .
C6 N1 H1 113(4) . .
C6 N2 H2 114(3) . .
C7 N2 H2 117(3) . .
C7 N2 C6 129.1(4) . .
C6 N3 Cl1 112.7(3) . .
H1A C1 H1B 109.5 . .
H1A C1 H1C 109.5 . .
H1B C1 H1C 109.5 . .
C4 C1 H1A 109.5 4_575 .
C4 C1 H1A 106.3 . .
C4 C1 H1B 92.5 . .
C4 C1 H1B 109.5 4_575 .
C4 C1 H1C 127.8 . .
C4 C1 H1C 109.5 4_575 .
C4 C1 C4 20.5(11) 4_575 .
H2A C2 H2B 109.5 . .
H2A C2 H2C 109.5 . .
H2B C2 H2C 109.5 . .
C4 C2 H2A 106.6 4_575 .
C4 C2 H2A 109.5 . .
C4 C2 H2B 112.6 4_575 .
C4 C2 H2B 109.5 . .
C4 C2 H2C 109.2 4_575 .
C4 C2 H2C 109.5 . .
C4 C2 C4 3.5(3) . 4_575
H3A C3 H3B 109.5 . .
H3A C3 H3C 109.5 . .
H3B C3 H3C 109.5 . .
C4 C3 H3A 109.5 4_575 .
C4 C3 H3A 129.5 . .
C4 C3 H3B 93.2 . .
C4 C3 H3B 109.5 4_575 .
C4 C3 H3C 109.5 4_575 .
C4 C3 H3C 103.8 . .
C4 C3 C4 21.3(11) 4_575 .
C2 C4 C1 112.8(10) . .
C2 C4 C3 116.1(9) . .
C2 C4 C5 109.6(8) . .
C3 C4 C1 102.5(8) . .
C4 C4 C1 55.3(6) 4_575 .
C4 C4 C2 167.7(7) 4_575 .
C4 C4 C3 67.3(7) 4_575 .
C4 C4 C5 79.5(5) 4_575 .
C5 C4 C1 108.7(7) . .
C5 C4 C3 106.7(6) . .
O1 C5 O1 19(4) 4_575 .
O1 C5 N1 121.4(5) . .
O1 C5 N1 121.4(5) 4_575 .
O1 C5 C4 120.1(7) 4_575 .
O1 C5 C4 124.1(5) . .
O1 C5 C4 124.1(5) 4_575 4_575
O1 C5 C4 120.1(7) . 4_575
N1 C5 C4 114.5(4) . .
N1 C5 C4 114.5(4) . 4_575
C4 C5 C4 21.1(11) 4_575 .
N1 C6 N2 114.5(3) . .
N3 C6 N1 119.8(4) . .
N3 C6 N2 125.7(4) . .
O2 C7 O2 18(4) 4_575 .
O2 C7 N2 122.0(4) . .
O2 C7 N2 122.0(4) 4_575 .
O2 C7 C8 121.1(4) . .
O2 C7 C8 121.1(4) 4_575 .
N2 C7 C8 116.0(4) . .
C7 C8 C9 113.3(4) . .
C10 C8 C7 107.1(3) . .
C10 C8 C7 107.1(3) 4_575 .
C10 C8 C9 109.0(3) . .
C10 C8 C9 109.0(3) 4_575 .
C10 C8 C10 111.3(5) 4_575 .
C8 C9 H9A 109.5 . .
C8 C9 H9B 109.5 . .
C8 C9 H9C 109.5 . .
H9A C9 H9B 109.5 . .
H9A C9 H9C 109.5 . .
H9B C9 H9C 109.5 . .
C8 C10 H10A 109.5 . .
C8 C10 H10B 109.5 . .
C8 C10 H10C 109.5 . .
H10A C10 H10B 109.5 . .
H10A C10 H10C 109.5 . .
H10B C10 H10C 109.5 . .
loop_
_geom_bond_atom_site_label_1
_geom_bond_atom_site_label_2
_geom_bond_distance
_geom_bond_site_symmetry_2
Cl1 N3 1.737(4) .
O1 O1 0.39(8) 4_575
O1 C5 1.194(8) .
O2 O2 0.38(8) 4_575
O2 C7 1.223(8) .
N1 H1 0.90(2) .
N1 C5 1.375(5) .
N1 C6 1.378(5) .
N2 H2 0.83(4) .
N2 C6 1.388(5) .
N2 C7 1.373(5) .
N3 C6 1.282(5) .
C1 H1A 0.9800 .
C1 H1B 0.9800 .
C1 H1C 0.9800 .
C1 C4 1.323(10) 4_575
C1 C4 1.559(13) .
C2 H2A 0.9800 .
C2 H2B 0.9800 .
C2 H2C 0.9800 .
C2 C4 1.43(2) .
C2 C4 1.988(18) 4_575
C3 H3A 0.9800 .
C3 H3B 0.9800 .
C3 H3C 0.9800 .
C3 C4 1.429(8) 4_575
C3 C4 1.548(11) .
C4 C4 0.56(3) 4_575
C4 C5 1.538(8) .
C5 O1 1.194(9) 4_575
C5 C4 1.538(8) 4_575
C7 O2 1.223(9) 4_575
C7 C8 1.529(6) .
C8 C9 1.535(7) .
C8 C10 1.509(5) .
C8 C10 1.509(5) 4_575
C9 H9A 0.9800 .
C9 H9B 0.9800 .
C9 H9C 0.9800 .
C10 H10A 0.9800 .
C10 H10B 0.9800 .
C10 H10C 0.9800 .
loop_
_geom_hbond_atom_site_label_D
_geom_hbond_atom_site_label_H
_geom_hbond_atom_site_label_A
_geom_hbond_distance_DH
_geom_hbond_distance_HA
_geom_hbond_distance_DA
_geom_hbond_angle_DHA
_geom_hbond_site_symmetry_A
N1 H1 O2 0.90(2) 1.86(4) 2.628(6) 142(6) 4_575
N1 H1 O2 0.90(2) 1.86(4) 2.628(6) 142(6) .
N2 H2 Cl1 0.83(4) 2.35(4) 2.802(4) 114(3) .
loop_
_geom_torsion_atom_site_label_1
_geom_torsion_atom_site_label_2
_geom_torsion_atom_site_label_3
_geom_torsion_atom_site_label_4
_geom_torsion
_geom_torsion_site_symmetry_1
_geom_torsion_site_symmetry_4
Cl1 N3 C6 N1 180.000(1) . .
Cl1 N3 C6 N2 0.000(1) . .
O1 O1 C5 N1 -95.8(11) 4_575 .
O1 O1 C5 C4 108.1(12) 4_575 4_575
O1 O1 C5 C4 83.6(14) 4_575 .
O2 O2 C7 N2 95.7(11) 4_575 .
O2 O2 C7 C8 -95.5(11) 4_575 .
O2 C7 C8 C9 -169(2) . .
O2 C7 C8 C9 169(2) 4_575 .
O2 C7 C8 C10 49(2) 4_575 .
O2 C7 C8 C10 -49(2) . 4_575
O2 C7 C8 C10 -70(2) 4_575 4_575
O2 C7 C8 C10 70(2) . .
N2 C7 C8 C9 0.000(2) . .
N2 C7 C8 C10 -120.2(3) . .
N2 C7 C8 C10 120.2(3) . 4_575
C1 C4 C5 O1 155(2) . 4_575
C1 C4 C5 O1 133(2) . .
C1 C4 C5 N1 -47.2(9) . .
C1 C4 C5 C4 47.7(8) . 4_575
C2 C4 C5 O1 -81(2) . 4_575
C2 C4 C5 O1 -103(2) . .
C2 C4 C5 N1 76.4(8) . .
C2 C4 C5 C4 171.3(7) . 4_575
C3 C4 C5 O1 23(2) . .
C3 C4 C5 O1 45(2) . 4_575
C3 C4 C5 N1 -157.1(6) . .
C3 C4 C5 C4 -62.2(8) . 4_575
C4 C1 C4 C2 176.3(5) 4_575 .
C4 C1 C4 C3 50.6(7) 4_575 .
C4 C1 C4 C5 -62.1(7) 4_575 .
C4 C2 C4 C1 -15(2) 4_575 .
C4 C2 C4 C3 103(3) 4_575 .
C4 C2 C4 C5 -136(3) 4_575 .
C4 C3 C4 C1 -43.6(7) 4_575 .
C4 C3 C4 C2 -167.0(7) 4_575 .
C4 C3 C4 C5 70.6(7) 4_575 .
C4 C4 C5 O1 107(2) 4_575 4_575
C4 C4 C5 O1 86(2) 4_575 .
C4 C4 C5 N1 -94.9(3) 4_575 .
C5 N1 C6 N2 180.000(1) . .
C5 N1 C6 N3 0.000(2) . .
C6 N1 C5 O1 11(2) . .
C6 N1 C5 O1 -11(2) . 4_575
C6 N1 C5 C4 -168.4(6) . .
C6 N1 C5 C4 168.4(6) . 4_575
C6 N2 C7 O2 -11(2) . .
C6 N2 C7 O2 11(2) . 4_575
C6 N2 C7 C8 180.000(2) . .
C7 N2 C6 N1 0.000(2) . .
C7 N2 C6 N3 180.000(1) . .
