#------------------------------------------------------------------------------
#$Date: 2016-03-22 21:41:18 +0200 (Tue, 22 Mar 2016) $
#$Revision: 179023 $
#$URL: svn://www.crystallography.net/cod/cif/4/12/21/4122108.cif $
#------------------------------------------------------------------------------
#
# This file is available in the Crystallography Open Database (COD),
# http://www.crystallography.net/
#
# All data on this site have been placed in the public domain by the
# contributors.
#
data_4122108
loop_
_publ_author_name
'Pitts, Cody Ross'
'Bloom, Steven'
'Woltornist, Ryan'
'Auvenshine, Dillon Jay'
'Ryzhkov, Lev R.'
'Siegler, Maxime A.'
'Lectka, Thomas'
_publ_section_title
;
 Direct, Catalytic Monofluorination of sp(3) C-H Bonds: A Radical-Based
 Mechanism with Ionic Selectivity.
;
_journal_issue                   27
_journal_name_full               'Journal of the American Chemical Society'
_journal_page_first              9780
_journal_page_last               9791
_journal_paper_doi               10.1021/ja505136j
_journal_volume                  136
_journal_year                    2014
_chemical_formula_moiety         'C8 H6 Cl2 Cu I N'
_chemical_formula_sum            'C8 H6 Cl2 Cu I N'
_chemical_formula_weight         377.48
_chemical_name_systematic
;
 ?
;
_space_group_crystal_system      monoclinic
_space_group_IT_number           13
_space_group_name_Hall           '-P 2yc'
_space_group_name_H-M_alt        'P 1 2/c 1'
_symmetry_space_group_name_Hall  '-P 2yc'
_symmetry_space_group_name_H-M   'P 1 2/c 1'
_atom_sites_solution_hydrogens   geom
_atom_sites_solution_primary     direct
_atom_sites_solution_secondary   difmap
_audit_creation_method           SHELXL-2013
_cell_angle_alpha                90
_cell_angle_beta                 94.4721(18)
_cell_angle_gamma                90
_cell_formula_units_Z            4
_cell_length_a                   8.25345(18)
_cell_length_b                   7.57776(17)
_cell_length_c                   17.1862(3)
_cell_measurement_reflns_used    6122
_cell_measurement_temperature    110(2)
_cell_measurement_theta_max      27.66
_cell_measurement_theta_min      2.68
_cell_volume                     1071.60(4)
_computing_cell_refinement
;
CrysAlisPro, Agilent Technologies,
Version 1.171.36.24 (release 03-12-2012 CrysAlis171 .NET)
(compiled Dec  3 2012,18:21:49)
;
_computing_data_collection
;
CrysAlisPro, Agilent Technologies,
Version 1.171.36.24 (release 03-12-2012 CrysAlis171 .NET)
(compiled Dec  3 2012,18:21:49)
;
_computing_data_reduction
;
CrysAlisPro, Agilent Technologies,
Version 1.171.36.24 (release 03-12-2012 CrysAlis171 .NET)
(compiled Dec  3 2012,18:21:49)
;
_computing_molecular_graphics    'SHELXTL v6.10 (Sheldrick, 2008)'
_computing_publication_material  'SHELXTL v6.10 (Sheldrick, 2008)'
_computing_structure_refinement  'SHELXL-2013 (Sheldrick, 2013)'
_computing_structure_solution    'SHELXS-2013 (Sheldrick, 2013)'
_diffrn_ambient_temperature      110(2)
_diffrn_measured_fraction_theta_full 0.999
_diffrn_measured_fraction_theta_max 1.000
_diffrn_measurement_device_type  'SuperNova, Dual, Cu at zero, Atlas'
_diffrn_measurement_method       '\w scans'
_diffrn_radiation_monochromator  mirror
_diffrn_radiation_source         'SuperNova (Cu) X-ray Source'
_diffrn_radiation_type           MoK\a
_diffrn_radiation_wavelength     0.71073
_diffrn_reflns_av_R_equivalents  0.0215
_diffrn_reflns_av_unetI/netI     0.0191
_diffrn_reflns_Laue_measured_fraction_full 0.999
_diffrn_reflns_Laue_measured_fraction_max 1.000
_diffrn_reflns_limit_h_max       10
_diffrn_reflns_limit_h_min       -10
_diffrn_reflns_limit_k_max       9
_diffrn_reflns_limit_k_min       -9
_diffrn_reflns_limit_l_max       22
_diffrn_reflns_limit_l_min       -22
_diffrn_reflns_number            9111
_diffrn_reflns_point_group_measured_fraction_full 0.999
_diffrn_reflns_point_group_measured_fraction_max 1.000
_diffrn_reflns_theta_full        25.242
_diffrn_reflns_theta_max         27.497
_diffrn_reflns_theta_min         2.377
_exptl_absorpt_coefficient_mu    5.368
_exptl_absorpt_correction_T_max  0.772
_exptl_absorpt_correction_T_min  0.420
_exptl_absorpt_correction_type   analytical
_exptl_absorpt_process_details
;
CrysAlisPro, Agilent Technologies,
Version 1.171.36.24 (release 03-12-2012 CrysAlis171 .NET)
(compiled Dec  3 2012,18:21:49)
Analytical numeric absorption correction using a multifaceted crystal
            model based on expressions derived by R.C. Clark & J.S. Reid.
(Clark, R. C. & Reid, J. S. (1995). Acta Cryst. A51, 887-897)
;
_exptl_crystal_colour            yellow
_exptl_crystal_density_diffrn    2.340
_exptl_crystal_description       'irregular shape'
_exptl_crystal_F_000             708
_exptl_crystal_size_max          0.25
_exptl_crystal_size_mid          0.16
_exptl_crystal_size_min          0.06
_refine_diff_density_max         0.457
_refine_diff_density_min         -0.397
_refine_diff_density_rms         0.086
_refine_ls_extinction_method     none
_refine_ls_goodness_of_fit_ref   1.051
_refine_ls_hydrogen_treatment    constr
_refine_ls_matrix_type           full
_refine_ls_number_parameters     118
_refine_ls_number_reflns         2467
_refine_ls_number_restraints     0
_refine_ls_restrained_S_all      1.051
_refine_ls_R_factor_all          0.0186
_refine_ls_R_factor_gt           0.0167
_refine_ls_shift/su_max          0.000
_refine_ls_shift/su_mean         0.000
_refine_ls_structure_factor_coef Fsqd
_refine_ls_weighting_details
;
 w=1/[\s^2^(Fo^2^)+(0.0160P)^2^+0.8418P]
 where P=(Fo^2^+2Fc^2^)/3
;
_refine_ls_weighting_scheme      calc
_refine_ls_wR_factor_gt          0.0389
_refine_ls_wR_factor_ref         0.0398
_reflns_Friedel_coverage         0.000
_reflns_number_gt                2319
_reflns_number_total             2467
_reflns_threshold_expression     'I > 2\s(I)'
_cod_data_source_file            ja505136j_si_004.cif
_cod_data_source_block           Cu_complex
_cod_depositor_comments          'Adding full bibliography for 4122108.cif.'
_cod_database_code               4122108
#BEGIN Tags that were not found in dictionaries:
_shelx_space_group_comment
;
The symmetry employed for this shelxl refinement is uniquely defined
by the following loop, which should always be used as a source of
symmetry information in preference to the above space-group names.
They are only intended as comments.
;
_shelxl_version_number           2013-2
_shelx_res_file
;
TITL xs0060a in P2/c
CELL  0.71073    8.25345    7.57776   17.1862    90.000    94.4721    90.000
ZERR        4    0.00018    0.00017    0.0003     0.000     0.0018     0.000
LATT   1
SYMM             - X ,              Y ,    0.50000 - Z
SFAC  C  H  Cl  Cu  I  N
UNIT    32    24   8   4   4   4

TEMP -163

ACTA
HTAB
BOND
BOND $H
CONF
WPDB

L.S. 6
FMAP 2
PLAN 10
OMIT -2 55

WGHT    0.016000    0.841800
FVAR       3.81928
CU1   4    0.350933    0.105988    0.231331    11.00000    0.00870    0.01716 =
         0.01731    0.00196   -0.00025   -0.00002
C1    1    0.015720   -0.040012    0.207313    11.00000    0.01242    0.01324 =
         0.01830   -0.00365    0.00031    0.00066
AFIX  23
H1A   2    0.067841   -0.152674    0.194168    11.00000   -1.20000
H1B   2   -0.088913   -0.030815    0.175247    11.00000   -1.20000
AFIX   0
C2    1    0.062030    0.223506    0.141229    11.00000    0.01203    0.01769 =
         0.01503   -0.00307    0.00023    0.00229
AFIX  43
H2    2   -0.048499    0.213664    0.121717    11.00000   -1.20000
AFIX   0
C3    1    0.160172    0.373106    0.115314    11.00000    0.01222    0.01580 =
         0.01776    0.00120    0.00053    0.00393
C4    1    0.238037    0.498380    0.165088    11.00000    0.01551    0.01639 =
         0.01741    0.00257    0.00008    0.00461
C5    1    0.332415    0.631280    0.137496    11.00000    0.01953    0.01755 =
         0.02464    0.00138    0.00258    0.00044
AFIX  43
H5    2    0.383535    0.714968    0.172501    11.00000   -1.20000
AFIX   0
C6    1    0.351891    0.641572    0.058658    11.00000    0.02238    0.02349 =
         0.02901    0.00553    0.00781   -0.00045
AFIX  43
H6    2    0.416906    0.732804    0.039449    11.00000   -1.20000
AFIX   0
C7    1    0.277637    0.520261    0.007195    11.00000    0.02552    0.02674 =
         0.01798    0.00364    0.00691    0.00522
AFIX  43
H7    2    0.291376    0.527321   -0.047087    11.00000   -1.20000
AFIX   0
C8    1    0.183778    0.389561    0.036045    11.00000    0.01795    0.01992 =
         0.01765   -0.00133    0.00067    0.00654
N1    6    0.121592    0.108171    0.188776    11.00000    0.01052    0.01441 =
         0.01296   -0.00340    0.00266   -0.00013
CL1   3    0.216145    0.494674    0.265445    11.00000    0.02816    0.02094 =
         0.01535    0.00187   -0.00002   -0.00540
CL2   3    0.095935    0.233186   -0.028306    11.00000    0.03193    0.02677 =
         0.01636   -0.00695   -0.00086    0.00296
I1    5    0.554271    0.088669    0.124695    11.00000    0.01225    0.02657 =
         0.01396    0.00074    0.00193   -0.00110
HKLF 4

REM  xs0060a in P2/c
REM R1 =  0.0167 for    2319 Fo > 4sig(Fo)  and  0.0186 for all    2467 data
REM    118 parameters refined using      0 restraints

END

WGHT      0.0158      0.8463

REM Instructions for potential hydrogen bonds
EQIV $1 -x, -y, -z
HTAB C1 Cl2_$1
EQIV $2 x-1, y, z
HTAB C1 I1_$2
EQIV $3 x, y+1, z
HTAB C5 I1_$3

REM Highest difference peak  0.457,  deepest hole -0.397,  1-sigma level  0.086
Q1    1   0.2247  0.5324  0.2958  11.00000  0.05    0.46
Q2    1   0.2356  0.9047 -0.0198  11.00000  0.05    0.46
Q3    1   0.6376  0.0883  0.1693  11.00000  0.05    0.39
Q4    1   0.2090  0.4277  0.1450  11.00000  0.05    0.36
Q5    1   0.2170  0.1052  0.2027  11.00000  0.05    0.36
Q6    1   0.4537  0.1233  0.2917  11.00000  0.05    0.36
Q7    1   0.1626  0.4996  0.2506  11.00000  0.05    0.36
Q8    1   0.4578  0.0853  0.0863  11.00000  0.05    0.35
Q9    1   0.3274  0.5644  0.0381  11.00000  0.05    0.35
Q10   1   0.1057  0.2941  0.1325  11.00000  0.05    0.34
;
_shelx_res_checksum              21220
_shelx_hkl_file
;
   0   0  -2 174204. 2169.63   3
   0   0   2 174643. 2238.39   5
   0   0   3 38.4678 31.3719   3
   0   0  -3-6.59920 27.7247   3
   0   0   3 10.2959 35.4889   5
   0   0   4 4835.89 240.746   3
   0   0  -4 4543.10 220.358   3
   0   0   4 4395.01 253.575   5
   0   0   5-18.7564 55.7739   5
   0   0  -5 132.552 77.6569   5
   0   0  -5 46.3100 44.4878   3
   0   0   5 10.8280 52.3693   3
   0   0   6 21860.8 715.438   5
   0   0   6 21864.6 667.245   3
   0   0  -6 20683.3 605.215   3
   0   0  -6 22070.8 711.378   5
   0   0   7 164.096 81.3727   3
   0   0  -7 372.998 130.870   5
   0   0  -7 141.976 71.6088   3
   0   0   7 289.206 123.244   5
   0   0  -8 752559. 9450.36   3
   0   0   8 767441. 9762.58   5
   0   0   8 767831. 9654.02   3
   0   0   9 79.8847 72.6418   3
   0   0  -9 271.974 106.939   5
   0   0   9 171.397 126.637   5
   0   0  -9 134.143 93.5009   3
   0   0  10 46510.3 1321.97   3
   0   0 -10 46290.7 1201.48   3
   0   0  10 44874.0 1349.73   5
   0   0 -11 89.9017 110.962   5
   0   0 -11-56.1604 74.3343   3
   0   0  11 122.727 105.780   5
   0   0 -12 247410. 3923.33   3
   0   0  12 240353. 4232.25   5
   0   0 -12 249802. 4303.68   5
   0   0  13 39.2053 108.060   5
   0   0 -13 292.725 141.236   3
   0   0  14 7169.48 625.449   5
   0   0 -14 7499.00 544.647   3
   0   0  14 7879.40 595.381   3
   0   0 -15 103.199 87.2634   4
   0   0 -15-62.1221 126.622   3
   0   0  15-115.591 124.076   3
   0   0  15 159.481 189.754   5
   0   0 -16 61280.6 1781.59   3
   0   0  16 59444.0 2021.02   5
   0   0 -16 59705.0 1656.94   4
   0   0 -17-141.938 190.085   3
   0   0  17-52.7976 178.135   5
   0   0 -18 151.638 170.788   3
   0   0 -18 226.486 205.654   1
   0   0  18 185.306 196.935   5
   0   0 -19 106.010 153.463   3
   0   0 -19 323.549 368.503   1
   0   0  19-46.2648 195.158   5
   0   0 -20 170520. 3702.10   3
   0   0  20 163743. 4131.15   5
   0   0 -20 167871. 4772.64   1
   0   0  21 211.731 271.684   5
   0   0 -21 347.648 268.321   3
   0   0 -21 128.127 277.146   1
   0   0  22 3840.08 633.534   5
   0   0 -22 4619.54 814.532   1
   0  -1   0 290941. 3575.05   3
   0  -1   0 292741. 3691.94   4
   0  -1   1 327316. 4220.50   4
   0  -1  -1 330040. 4109.56   4
   0  -1  -1 334856. 4122.80   3
   0  -1   2 110760. 1675.20   4
   0   1  -2 107859. 1670.43   4
   0  -1  -2 109897. 1640.31   4
   0   1   3 4094.93 235.978   4
   0   1  -3 3454.30 225.277   5
   0   1  -3 3742.31 209.272   4
   0   1   3 4033.04 263.041   1
   0  -1  -3 4396.52 263.128   3
   0   1   3 3630.20 230.898   5
   0  -1  -3 3995.23 227.199   4
   0  -1   4 212022. 2915.75   5
   0   1   4 208692. 2969.60   5
   0   1  -4 213649. 2907.63   5
   0  -1  -4 207233. 2873.84   4
   0   1   4 208481. 3086.86   1
   0  -1   4 211114. 2554.76   3
   0   1   5 79002.0 1542.91   3
   0  -1  -5 76479.3 1413.97   4
   0   1   5 72255.5 1487.84   5
   0   1  -5 76700.2 1171.00   3
   0  -1   5 80438.1 1194.07   3
   0  -1  -5 80176.6 1531.28   3
   0   1  -5 77594.7 1452.13   5
   0  -1   5 74438.2 1455.61   5
   0   1   6 8643.25 467.691   3
   0  -1   6 9161.09 344.250   3
   0   1  -6 8429.72 312.970   3
   0   1  -6 8113.30 421.219   5
   0  -1   6 8111.32 431.703   5
   0   1   6 8416.96 454.863   5
   0  -1  -6 8286.98 404.005   4
   0  -1  -6 8117.94 435.316   3
   0  -1   7 295764. 4261.64   5
   0   1  -7 293474. 3853.03   3
   0   1   7 308269. 4398.48   3
   0  -1  -7 297354. 4147.47   4
   0  -1  -7 298966. 4283.79   3
   0  -1   7 296770. 3928.69   3
   0   1  -7 300444. 4273.27   5
   0   1   7 289970. 4326.37   5
   0   1   8 175461. 2976.07   3
   0   1  -8 166374. 2865.41   5
   0   1   8 166296. 2927.93   5
   0   1  -8 164709. 2451.32   3
   0  -1  -8 169818. 2937.09   5
   0  -1   8 169852. 2556.31   3
   0  -1  -8 164563. 3171.66   1
   0  -1  -8 164166. 2702.21   4
   0  -1  -8 167379. 2823.04   3
   0  -1   8 167986. 2848.72   5
   0  -1   9 31814.0 871.065   3
   0   1   9 28079.9 1033.64   5
   0  -1  -9 27611.1 957.546   3
   0   1  -9 29629.7 1022.19   5
   0   1   9 29602.0 1062.78   3
   0  -1   9 28020.7 993.934   5
   0  -1  -9 27950.8 903.022   4
   0   1  -9 29751.1 795.385   3
   0   1  10 8686.91 586.086   5
   0  -1 -10 9326.38 604.462   5
   0  -1 -10 8410.53 491.067   4
   0  -1  10 7655.95 533.581   5
   0  -1 -10 8762.14 537.561   3
   0  -1 -10 9115.57 685.347   1
   0   1 -10 8936.88 445.623   3
   0  -1  10 8335.38 455.774   3
   0  -1 -11 4297.66 431.719   5
   0  -1 -11 4485.52 373.926   4
   0   1 -11 3433.39 292.912   3
   0  -1  11 3750.02 398.330   5
   0  -1  11 3842.52 321.318   3
   0  -1 -11 4274.31 389.605   3
   0   1 -11 3765.61 382.979   5
   0  -1 -11 4125.30 491.319   1
   0   1  11 3992.36 423.537   5
   0  -1 -12 176733. 3282.04   3
   0   1 -12 180190. 2979.27   3
   0  -1  12 183006. 3445.79   5
   0  -1 -12 174917. 3124.81   4
   0   1  12 185799. 3558.61   5
   0  -1  12 186347. 3046.88   3
   0  -1 -12 180930. 3884.84   1
   0   1 -12 179893. 3448.50   5
   0   1  12 188291. 3575.23   3
   0  -1 -13 40462.6 1360.83   3
   0   1 -13 40111.1 1174.23   3
   0  -1  13 42119.9 1224.39   3
   0  -1 -13 40834.5 1273.61   4
   0   1  13 41805.6 1521.50   3
   0  -1  13 38346.2 1426.58   5
   0  -1 -13 42213.6 1724.61   1
   0   1  13 42720.3 1526.75   5
   0   1  14 462.818 206.202   5
   0  -1  14 337.932 164.783   5
   0  -1 -14 977.370 298.978   1
   0  -1  14 698.024 171.750   3
   0  -1 -14 513.878 187.317   3
   0   1 -14 386.344 149.638   3
   0  -1 -14 698.646 172.955   4
   0  -1  15 33356.9 1412.36   5
   0  -1 -15 32964.0 1216.67   4
   0   1  15 33117.5 1438.61   5
   0   1 -15 35369.2 1177.53   3
   0  -1 -15 31095.6 1599.90   1
   0  -1 -15 33115.2 1312.72   3
   0  -1  16 60577.1 1649.85   3
   0  -1 -16 62762.0 1918.73   3
   0  -1 -16 59460.0 1740.01   4
   0   1 -16 58751.4 1355.56   2
   0   1  16 60367.3 2062.32   5
   0  -1  16 62633.2 2058.39   5
   0   1 -16 62225.3 1673.55   3
   0  -1 -16 61910.9 2382.04   1
   0  -1 -17 6064.29 769.774   1
   0   1 -17 5222.48 482.787   3
   0   1 -17 5737.56 394.619   2
   0  -1 -17 5747.56 577.492   3
   0  -1  17 6109.42 651.330   5
   0   1  17 5482.88 645.180   5
   0  -1 -18 238.874 190.808   1
   0  -1 -18-100.451 147.852   3
   0   1  18 171.655 229.667   5
   0  -1  18 231.285 188.762   5
   0  -1 -19 22876.9 1235.52   3
   0  -1 -19 20899.6 1536.73   1
   0   1  19 22048.5 1353.20   5
   0  -1  19 23870.3 1376.84   5
   0  -1 -20 68548.2 2280.53   3
   0  -1  20 66246.8 2455.41   5
   0   1  20 62076.5 2416.79   5
   0  -1 -20 64669.7 2825.40   1
   0   1  21 14356.6 1167.02   5
   0  -1 -21 13305.3 1299.17   1
   0  -1 -21 13845.3 1028.59   3
   0  -1  21 13581.9 1158.10   5
   0   1  22 908.755 373.682   5
   0  -1  22 196.443 244.919   5
   0  -1 -22 877.333 403.869   1
   0  -1 -22 293.529 211.351   3
   0  -2   0 274075. 3727.61   3
   0   2   0 287005. 3703.91   3
   0  -2   0 276825. 3938.35   4
   0  -2  -1 729610. 8957.52   4
   0  -2  -1 703909. 8877.78   3
   0  -2   1 709840. 8669.32   3
   0   2   1 759527. 8862.43   3
   0  -2   1 741753. 9128.52   4
   0   2  -1 734349. 8637.95   3
   0  -2   2 261726. 3771.37   4
   0  -2   2 258146. 3254.26   3
   0  -2  -2 247456. 3569.72   4
   0   2  -2 247585. 3699.67   4
   0  -2  -2 249408. 3613.33   3
   0   2  -3 5371.68 358.891   4
   0  -2   3 4658.45 342.022   4
   0  -2   3 5444.51 207.239   3
   0  -2  -3 5103.18 324.077   4
   0  -2  -3 6107.96 383.245   3
   0  -2   4 2001.97 114.514   2
   0  -2  -4 2132.41 217.450   4
   0  -2   4 2513.79 242.155   4
   0   2   4 2434.44 243.524   4
   0   2  -4 2508.51 246.269   4
   0   2   4 2269.80 255.548   1
   0  -2  -4 2379.12 252.772   3
   0   2  -5 40835.2 1048.38   4
   0   2   5 40046.8 1095.61   4
   0  -2  -5 40898.5 1067.09   4
   0   2   5 40639.8 1114.55   5
   0   2  -5 39986.1 1069.36   5
   0   2   5 39676.9 1178.38   1
   0  -2  -5 44836.6 1225.51   3
   0   2  -6 37920.3 1003.62   4
   0  -2   6 35303.4 623.142   3
   0   2  -6 37017.4 1056.89   5
   0   2   6 38552.8 1205.54   1
   0   2   6 38842.4 1129.76   5
   0  -2  -6 40565.4 1187.72   3
   0  -2  -6 38751.4 1056.63   4
   0   2  -7 281392. 4147.09   5
   0   2   7 283989. 4461.40   1
   0   2  -7 280272. 3982.33   4
   0   2   7 278098. 4273.16   5
   0  -2  -7 286501. 4340.75   3
   0   2   7 291639. 4356.33   3
   0  -2  -7 279059. 4538.03   1
   0  -2  -7 278611. 4116.15   4
   0  -2  -8 100323. 2183.48   3
   0  -2   8 100675. 1511.99   3
   0  -2  -8 98578.4 2020.39   4
   0   2  -8 100947. 1912.69   4
   0   2  -8 97076.0 2044.26   5
   0   2   8 99026.9 2162.80   5
   0   2   9 149853. 2920.33   5
   0  -2  -9 146300. 2886.87   3
   0   2   9 157657. 3021.88   3
   0  -2  -9 149766. 3213.95   1
   0   2  -9 145658. 2773.38   5
   0  -2   9 154681. 2181.00   3
   0   2  -9 151453. 2585.92   4
   0  -2   9 145677. 2811.17   5
   0  -2  -9 149746. 2727.44   4
   0  -2 -10-13.8109 133.638   1
   0  -2 -10 274.186 130.044   3
   0  -2 -10 32.3157 88.2643   4
   0   2  10 57.2619 92.2744   3
   0   2  10 138.578 118.142   5
   0  -2  10 73.1812 45.9158   3
   0  -2  10 127.232 113.929   5
   0   2 -10 4.99095 61.6895   4
   0  -2  11 20102.7 938.583   5
   0  -2 -11 19798.7 948.146   3
   0   2  11 18720.4 1000.78   3
   0  -2 -11 19169.6 1098.59   1
   0   2  11 19076.1 961.289   5
   0   2 -11 21286.4 965.043   5
   0   2 -11 18324.5 742.023   4
   0  -2  11 21947.4 637.923   3
   0  -2 -11 19832.1 867.750   4
   0  -2 -12 2322.03 301.449   4
   0   2 -12 2237.43 262.960   4
   0  -2 -12 2914.46 371.995   3
   0  -2 -12 2930.10 454.931   1
   0  -2  12 2269.64 216.365   3
   0  -2  12 2130.59 334.710   5
   0   2 -12 2270.20 339.608   5
   0   2  12 2412.52 366.640   5
   0  -2 -13 84057.6 2610.38   1
   0   2 -13 81066.6 1824.97   4
   0  -2  13 83943.2 2222.15   5
   0   2  13 83535.2 2332.58   5
   0  -2  13 83128.7 1609.20   3
   0  -2 -13 81538.8 2186.04   3
   0  -2 -13 83421.4 2048.30   4
   0  -2  14 2221.92 235.374   3
   0  -2 -14 2649.44 474.551   1
   0  -2  14 2325.87 373.852   5
   0   2 -14 2098.67 268.561   4
   0  -2 -14 2299.40 356.713   3
   0   2  14 2051.52 364.343   5
   0  -2 -14 2308.46 318.040   4
   0  -2 -15 41596.6 1577.55   3
   0  -2  15 41491.1 1118.15   3
   0   2  15 42857.6 1718.18   5
   0  -2  15 43666.4 1650.53   5
   0  -2 -15 44357.2 1500.62   4
   0  -2 -15 41006.9 1899.34   1
   0   2 -15 43836.3 1305.10   4
   0  -2 -16 41261.0 1965.41   1
   0   2  16 41780.6 1747.84   5
   0  -2  16 36647.9 1083.01   3
   0   2 -16 43089.5 1308.26   4
   0  -2  16 41432.4 1683.00   5
   0  -2 -16 40676.8 1605.80   3
   0   2 -17 32707.1 1138.50   4
   0  -2  17 32796.5 1534.67   5
   0   2  17 28649.8 1484.30   5
   0  -2 -17 30416.9 1750.38   1
   0  -2 -17 30398.9 1426.07   3
   0  -2 -18 19596.7 1168.99   3
   0  -2 -18 18500.2 1405.32   1
   0   2  18 18908.0 1246.15   5
   0  -2  18 17878.0 1192.70   5
   0  -2 -19 54746.1 2535.86   1
   0  -2  19 54726.9 2161.50   5
   0   2  19 52593.5 2184.17   5
   0  -2 -19 54549.1 2062.67   3
   0  -2  20 7799.98 854.988   5
   0   2  20 8039.84 881.275   5
   0  -2 -20 6959.48 774.588   3
   0  -2 -21 43402.4 2395.65   1
   0  -2  21 42173.9 2038.69   5
   0  -2 -21 42530.7 1912.37   3
   0   2  21 44674.2 2132.41   5
   0  -3   0 172514. 2985.74   4
   0  -3   0 168390. 2712.74   3
   0   3   0 165258. 2612.47   3
   0  -3   1 583633. 7256.92   3
   0   3  -1 546369. 7660.47   4
   0   3   1 594654. 7389.04   3
   0  -3  -1 558981. 7462.06   3
   0   3  -1 569384. 7164.57   3
   0  -3  -1 567457. 7629.04   4
   0  -3   1 590817. 7805.93   4
   0  -3  -2 77949.0 1743.41   4
   0  -3   2 79463.2 1439.01   3
   0  -3  -2 75210.7 1706.51   3
   0   3  -2 76565.4 1787.77   4
   0   3   2 80286.4 1672.51   3
   0  -3   2 78391.0 1877.73   4
   0   3   3 36318.8 1091.04   3
   0   3  -3 34982.7 1132.66   4
   0  -3  -3 35427.1 1131.57   3
   0  -3   3 37191.3 811.019   3
   0  -3   3 36915.7 1199.58   4
   0  -3  -3 34818.9 1080.17   4
   0  -3   4 83023.7 1947.05   4
   0  -3  -4 83411.1 1829.40   4
   0   3   4 87183.8 1949.98   4
   0  -3  -4 81587.3 1926.60   3
   0   3  -4 83943.6 1898.84   4
   0  -3   4 85566.5 1336.00   3
   0  -3   5 1250.08 120.550   2
   0  -3  -5 977.860 203.402   3
   0  -3  -5 1111.17 197.412   4
   0  -3   5 885.902 187.054   4
   0  -3   5 1033.77 93.9534   3
   0   3   5 709.005 180.879   1
   0   3   5 1249.22 221.130   4
   0   3   6 6109.80 509.437   1
   0   3   6 5387.03 445.865   4
   0  -3  -6 5797.55 437.267   4
   0  -3  -6 5422.84 482.081   3
   0  -3   6 4632.08 191.969   2
   0   3  -6 6101.14 447.183   5
   0   3  -6 6072.33 454.247   4
   0   3   7 135748. 2752.01   5
   0  -3  -7 138176. 2862.02   3
   0   3   7 139459. 2921.72   1
   0   3  -7 138003. 2654.39   5
   0  -3  -7 137466. 2644.43   4
   0   3  -7 142657. 2656.34   4
   0   3   8 54676.9 1718.11   1
   0   3  -8 51538.7 1435.03   4
   0   3  -8 53252.5 1505.25   5
   0  -3  -8 52909.8 1495.23   4
   0   3   8 53668.9 1601.14   5
   0   3   8 55383.7 1639.88   3
   0  -3  -8 54911.7 1673.37   3
   0   3   9 249963. 4412.35   5
   0   3  -9 259645. 4146.14   4
   0   3   9 260965. 4661.79   1
   0   3   9 265437. 4587.37   3
   0  -3  -9 262378. 4544.93   3
   0  -3  -9 262624. 4289.96   4
   0   3 -10 8383.93 546.346   4
   0   3  10 7039.34 594.074   5
   0  -3 -10 7990.95 637.664   3
   0  -3 -10 8087.60 583.750   4
   0   3 -11 132164. 2467.44   4
   0  -3 -11 131129. 2874.46   3
   0  -3 -11 131507. 2656.23   4
   0   3  11 128408. 2837.30   5
   0   3 -11 135055. 2742.81   5
   0   3 -12 10037.3 609.186   4
   0  -3 -12 10253.9 687.356   4
   0  -3  12 7703.96 258.484   3
   0  -3 -12 9360.01 727.198   3
   0   3  12 9371.27 738.663   5
   0   3 -12 8750.73 663.150   5
   0   3 -13 13506.3 720.027   4
   0   3  13 12862.6 885.332   5
   0  -3  13 11645.7 354.862   3
   0  -3 -13 13370.2 889.308   3
   0   3 -14 1028.26 216.742   4
   0  -3 -14 1155.08 337.970   1
   0  -3 -14 1208.76 298.809   3
   0   3  14 886.232 257.418   5
   0   3 -15 57452.9 1615.81   4
   0  -3 -15 53840.8 1957.06   3
   0  -3 -15 53543.3 2275.76   1
   0   3  15 54959.2 2048.11   5
   0   3  16 138.454 211.350   5
   0  -3 -16 415.871 209.301   3
   0  -3 -16 147.274 222.882   1
   0   3 -16 248.926 158.526   4
   0  -3 -17 17192.1 1130.86   3
   0   3 -17 18102.1 876.813   4
   0   3  17 18589.9 1243.83   5
   0  -3 -17 18985.9 1420.78   1
   0  -3 -18 21.1749 363.902   1
   0   3  18 525.407 286.050   5
   0  -3 -18 469.473 228.102   3
   0   3  19 57411.7 2351.10   5
   0  -3 -19 53582.3 2178.52   3
   0  -3 -19 57371.1 2661.86   1
   0   3  20 8021.57 899.408   5
   0  -3 -20 8751.23 894.330   3
   0  -3 -21 70016.7 2631.69   3
   0   3  21 70092.7 2766.97   5
   0  -4   0 132377. 2794.70   4
   0   4   0 130664. 2363.48   3
   0   4   0 126459. 2742.76   4
   0  -4   0 133019. 2461.22   3
   0   4   1 124564. 2345.12   3
   0   4  -1 122281. 2665.73   4
   0  -4   1 125940. 2764.92   4
   0  -4  -1 126455. 2691.46   4
   0  -4  -1 125878. 2492.46   3
   0  -4   1 126842. 2299.44   3
   0   4   2 41912.5 1250.93   3
   0  -4   2 43041.6 1482.60   4
   0   4  -2 40597.9 1384.69   4
   0  -4  -2 43021.4 1353.92   3
   0  -4   2 44418.6 1109.81   3
   0  -4  -2 43227.9 1405.21   4
   0   4   3 29428.6 1070.16   3
   0  -4  -3 29546.1 1140.71   4
   0   4  -3 30172.3 1157.83   4
   0  -4   3 32688.9 865.195   3
   0  -4  -3 29492.8 1153.65   3
   0  -4   3 32063.2 1246.98   4
   0   4  -4 106583. 2380.38   4
   0  -4  -4 102947. 2357.56   4
   0  -4   4 110277. 1774.02   3
   0  -4   4 107281. 2475.94   4
   0   4   4 104377. 2319.54   3
   0   4   4 105772. 2476.97   4
   0  -4  -4 99046.6 2417.04   3
   0  -4  -5 17825.3 877.589   4
   0   4  -5 18796.6 896.593   4
   0  -4   5 20298.3 979.271   4
   0  -4   5 20697.1 556.652   3
   0   4   5 19442.4 919.179   3
   0   4   5 20585.3 998.102   4
   0  -4  -5 20043.8 999.735   3
   0  -4  -6 34072.0 1253.95   4
   0   4  -6 34638.8 1238.00   4
   0  -4   6 34775.5 1308.02   4
   0   4   6 32387.5 1353.46   1
   0  -4   6 35487.4 831.371   2
   0   4   6 34380.0 1283.13   3
   0   4   6 35805.1 1350.73   4
   0  -4  -6 33757.4 1355.41   3
   0  -4   7 64295.0 910.141   3
   0  -4  -7 74796.8 2088.12   3
   0   4  -7 72813.2 1842.74   4
   0  -4   7 67306.5 1118.44   2
   0  -4  -7 74729.5 1916.89   4
   0   4   7 76904.1 2050.41   4
   0   4  -8 65021.0 1785.18   4
   0   4   8 68890.4 2031.51   4
   0  -4  -8 65320.7 2029.31   3
   0   4   8 67500.2 1957.48   5
   0   4   9 79201.3 2204.51   5
   0   4  -9 74010.6 1941.73   4
   0  -4  -9 78663.3 2277.90   3
   0   4  10-153.247 184.648   5
   0  -4 -10-21.1028 136.342   3
   0   4 -10 270.140 140.033   5
   0   4  11 60828.0 2001.09   5
   0   4 -11 60704.5 1872.10   5
   0  -4 -11 60346.5 2051.70   3
   0   4 -11 59151.0 1714.55   4
   0   4  12 57641.8 1991.87   5
   0   4 -12 56733.3 1681.23   4
   0  -4 -12 56980.2 2032.60   3
   0  -4 -13 12887.5 959.205   3
   0   4  13 13122.8 954.175   5
   0   4 -13 12305.5 751.674   4
   0  -4 -14 1040.78 335.324   3
   0   4  14 1174.88 319.242   5
   0   4 -14 967.311 231.849   4
   0   4  15 19356.2 1233.64   5
   0  -4 -15 19130.0 1220.66   3
   0   4 -15 20978.4 987.511   4
   0   4  16 52803.1 2165.10   5
   0  -4 -16 53037.1 2126.94   3
   0   4 -16 54339.2 1659.25   4
   0   4  17 19551.0 1328.12   5
   0  -4 -17 17024.4 1217.89   3
   0  -4 -18 6000.65 742.965   3
   0   4  18 6609.87 786.285   5
   0  -4 -19 32059.7 1756.31   3
   0   4  19 34867.5 1890.46   5
   0   4  20 19797.3 1455.09   5
   0  -4 -20 17988.1 1348.41   3
   0   5   0 474828. 7408.54   4
   0  -5   0 477769. 7459.20   4
   0  -5   0 486064. 6823.33   3
   0   5  -1 1466.41 302.317   4
   0  -5   1 2313.48 402.245   4
   0  -5  -1 2336.00 331.781   3
   0   5   1 1989.85 350.912   4
   0   5   1 2064.35 289.063   3
   0  -5   1 2128.13 286.025   3
   0   5   2 201651. 3573.34   3
   0  -5   2 201331. 3281.16   3
   0   5   2 195351. 4009.15   4
   0  -5   2 205001. 4052.67   4
   0   5  -2 192551. 3877.70   4
   0  -5  -2 203166. 3756.87   3
   0  -5   3 14446.7 629.933   3
   0   5   3 14484.1 932.992   4
   0  -5   3 15044.0 953.686   4
   0   5  -3 15902.5 914.551   4
   0  -5  -3 14819.5 878.857   3
   0   5   3 15415.2 815.641   3
   0   5  -4 4785.54 497.612   4
   0  -5   4 4280.27 500.397   4
   0   5   4 5011.30 478.901   3
   0   5   4 4582.81 528.151   4
   0  -5   4 5510.39 353.958   3
   0  -5  -4 5159.67 538.118   3
   0  -5   5 46446.8 1697.91   4
   0   5  -5 42490.4 1513.03   4
   0  -5   5 48210.6 1076.00   3
   0  -5  -5 42513.0 1625.81   3
   0   5   5 46909.5 1747.13   4
   0   5   6 56080.5 1927.07   4
   0   5  -6 54497.6 1719.27   4
   0  -5  -6 53821.5 1884.58   3
   0  -5   6 58867.0 1928.76   4
   0  -5   6 56610.0 1094.26   3
   0  -5   6 54286.4 1238.85   2
   0   5  -7 27818.5 1185.11   4
   0  -5   7 27372.9 788.653   2
   0   5   7 28735.7 1354.30   4
   0  -5  -7 27240.8 1344.86   3
   0  -5   7 28979.3 1303.46   4
   0  -5   7 27048.0 603.869   3
   0   5  -8 217210. 3875.01   5
   0   5  -8 211629. 3842.66   4
   0   5   8 214259. 4148.45   5
   0  -5  -8 207920. 4296.58   3
   0   5   8 220486. 4344.80   4
   0   5  -9 737.340 238.970   5
   0   5   9 1135.64 319.976   4
   0   5  -9 1194.72 263.074   4
   0   5   9 546.444 220.632   5
   0  -5  -9 561.360 250.506   3
   0   5  10 5550.68 613.645   5
   0  -5 -10 4071.81 542.309   3
   0   5 -10 3914.45 444.225   4
   0   5 -11 1709.88 310.574   4
   0   5  11 1472.83 349.880   5
   0  -5 -11 1247.41 327.585   3
   0  -5 -12 17837.7 1198.93   3
   0   5  12 17358.4 1138.95   5
   0   5 -12 18535.3 964.940   4
   0  -5 -13 20262.2 1306.54   3
   0   5 -13 20058.8 1002.62   4
   0   5  13 22229.7 1314.65   5
   0   5  14-131.314 202.221   5
   0  -5 -14 11.2309 182.345   3
   0   5 -14 34.1329 122.707   4
   0  -5 -15 6988.00 808.638   3
   0   5  15 7287.74 812.463   5
   0   5 -15 7871.31 620.863   4
   0   5  16 56369.1 2332.65   5
   0  -5 -16 59431.6 2427.15   3
   0   5 -16 58282.4 1780.37   4
   0   5  17 4921.44 712.000   5
   0  -5 -17 4859.78 716.606   3
   0  -5 -18 11316.1 1095.15   3
   0   5  18 15407.5 1274.21   5
   0   5  19 3232.83 658.034   5
   0  -5 -19 2515.49 557.040   3
   0   6   0 195159. 4265.83   4
   0  -6   0 202113. 3646.08   3
   0  -6   1 75435.1 1874.82   3
   0   6  -1 74122.2 2362.83   4
   0  -6  -1 74083.1 2012.59   3
   0   6   1 73526.0 2405.51   4
   0  -6  -2 402.490 184.050   3
   0  -6   2 459.708 163.947   3
   0   6  -2 703.898 242.003   4
   0  -6   3 18515.6 777.212   3
   0  -6  -3 18879.1 1031.16   3
   0   6  -3 18540.7 1086.18   4
   0   6   3 19295.5 1195.55   4
   0  -6  -4 63610.2 2044.73   3
   0   6  -4 63392.0 2066.49   4
   0  -6   4 63711.3 1486.38   3
   0   6   4 65693.5 2304.20   4
   0  -6   5 17777.4 667.779   3
   0   6  -5 18835.4 1066.15   4
   0  -6  -5 18299.2 1094.15   3
   0   6   5 17537.0 1165.47   4
   0  -6   6 228.013 112.706   2
   0   6   6 385.398 262.082   4
   0  -6  -6 90.7978 155.502   3
   0   6  -6 385.270 218.856   4
   0  -6   6 590.246 117.081   3
   0  -6   7 5815.04 399.108   2
   0  -6  -7 6865.90 712.702   3
   0   6   7 6383.58 707.242   4
   0   6  -7 6020.93 590.802   4
   0  -6   7 5894.43 301.949   3
   0   6  -8 89541.2 2363.04   4
   0   6   8 94047.7 2851.82   4
   0  -6   8 84384.5 1606.06   2
   0  -6  -8 87093.0 2700.22   3
   0   6   8 90517.8 2625.46   5
   0   6  -9 12865.3 847.506   4
   0  -6   9 8885.65 368.870   2
   0  -6   9 7543.28 350.679   2
   0   6   9 11850.8 936.964   5
   0  -6  -9 11116.6 959.142   3
   0   6   9 11733.8 994.788   4
   0   6 -10 109.850 126.148   4
   0   6  10-105.569 165.674   5
   0  -6 -10 160.501 160.290   3
   0  -6 -11 745.080 296.981   3
   0   6  11 634.704 283.848   5
   0   6 -11 383.943 137.138   4
   0  -6 -12 115714. 3492.85   3
   0   6  12 118859. 3384.66   5
   0   6 -12 113626. 2784.25   4
   0   6 -13 138.882 166.518   4
   0   6  13 180.354 234.880   5
   0  -6 -13 100.011 192.768   3
   0  -6 -14 1538.27 430.476   3
   0   6  14 1738.86 421.616   5
   0   6 -14 1755.26 328.858   4
   0   6 -15-12.7873 166.126   4
   0  -6 -15-89.8363 224.362   3
   0   6  15 14.0186 246.432   5
   0  -6 -16 14965.0 1282.63   3
   0   6  16 16766.3 1303.90   5
   0   6  17 400.856 326.791   5
   0  -6 -17 1409.83 462.909   3
   0  -7   0 213632. 3931.23   3
   0   7   0 208892. 4733.35   4
   0  -7   1 114464. 2565.72   3
   0  -7  -1 120572. 2778.87   3
   0   7  -1 113498. 3241.71   4
   0   7   1 115916. 3360.52   4
   0   7  -2 450.150 278.875   4
   0   7   2 496.560 244.738   4
   0  -7  -2 1100.18 278.407   3
   0  -7   2 823.363 202.057   3
   0  -7   3 1219.03 216.428   3
   0  -7  -3 1407.44 321.909   3
   0   7   3 1866.41 429.891   4
   0   7  -3 1570.55 366.210   4
   0  -7  -4 14664.5 981.655   3
   0   7   4 16781.8 1247.82   4
   0  -7   4 15987.9 729.074   3
   0   7  -4 16367.4 1099.71   4
   0  -7  -5 1785.09 385.009   3
   0   7   5 2108.58 490.403   4
   0  -7   5 1657.03 268.470   2
   0  -7   5 2082.70 256.989   3
   0   7  -5 2217.47 424.561   4
   0   7   6 395.278 280.396   4
   0  -7   6 433.852 121.921   3
   0  -7  -6 581.440 297.640   3
   0   7  -6 346.530 188.629   4
   0  -7  -7 53023.2 2110.20   3
   0   7  -7 51862.9 1928.63   4
   0  -7   7 49293.7 1116.67   3
   0   7   7 51814.6 2285.00   4
   0   7   8 68375.3 2494.78   5
   0  -7  -8 69414.6 2533.41   3
   0   7   8 76175.4 2832.09   4
   0   7  -8 70583.0 2280.46   4
   0  -7  -9 13091.5 1097.99   3
   0   7   9 12119.6 1126.17   4
   0   7  -9 11019.1 856.558   4
   0   7   9 11299.6 995.575   5
   0   7  10 3413.79 590.758   5
   0  -7 -10 2689.13 549.168   3
   0   7 -10 2534.41 426.485   4
   0   7  11 7723.79 851.895   5
   0   7 -11 9750.57 798.640   4
   0  -7 -11 9690.28 995.522   3
   0   7 -12 23737.1 1257.64   4
   0  -7 -12 24769.1 1637.70   3
   0   7  12 25510.5 1584.81   5
   0   7  13 14009.2 1206.94   5
   0  -7 -13 16474.6 1361.89   3
   0   7 -13 14914.1 999.491   4
   0  -7 -14 256.108 233.620   3
   0   7 -14 303.110 219.807   4
   0   7  14 460.075 282.288   5
   0  -7 -15 6998.22 933.769   3
   0   7  15 7377.12 918.502   5
   0   8   0 50024.1 2237.03   4
   0  -8   0 48068.2 1665.39   3
   0  -8   1 100854. 2485.35   3
   0  -8  -1 104524. 2667.90   3
   0   8  -1 105797. 3308.75   4
   0   8   1 101412. 3356.75   4
   0  -8  -2 8793.63 741.442   3
   0   8   2 9469.53 1009.83   4
   0  -8   2 9242.86 655.257   3
   0   8  -2 9484.11 944.225   4
   0   8  -3 298.701 233.504   4
   0   8   3 220.617 207.827   4
   0  -8   3 203.776 128.455   3
   0  -8  -3 504.887 267.573   3
   0  -8  -4 34399.5 1582.93   3
   0   8   4 34233.2 1943.74   4
   0   8  -4 33856.9 1720.58   4
   0  -8   4 33592.8 1169.12   3
   0   8  -5 11490.5 987.895   4
   0  -8  -5 12112.2 980.666   3
   0  -8   5 10936.0 612.256   3
   0   8   6 4086.10 717.985   4
   0   8  -6 4253.79 613.769   4
   0  -8  -6 4274.75 599.640   3
   0   8   7 73576.2 2999.29   4
   0   8  -7 69140.2 2458.53   4
   0  -8  -7 73146.9 2618.28   3
   0  -8  -8 1780.42 462.351   3
   0   8  -8 2034.23 442.186   4
   0   8   8 1396.83 433.094   4
   0   8   8 1376.38 447.756   5
   0   8   9 15219.3 1256.47   5
   0  -8  -9 17447.1 1315.88   3
   0   8   9 17651.6 1478.90   4
   0   8  -9 15725.3 1112.16   4
   0   8  10 8583.68 953.256   5
   0  -8 -10 8256.86 944.947   3
   0   8 -10 8959.14 848.534   4
   0  -8 -11 5384.67 791.510   3
   0   8 -11 4625.35 624.110   4
   0   8  11 5816.63 802.298   5
   0   8 -12 2670.63 494.588   4
   0   8  12 2770.28 578.704   5
   0  -8 -12 1570.38 507.037   3
   0   8  13 21779.6 1596.57   5
   0   8 -13 20698.3 1288.40   4
   0  -8 -13 20782.8 1607.52   3
   0  -9   0 16458.7 1003.50   3
   0   9   0 16007.1 1351.65   4
   0  -9  -1 27467.4 1340.04   3
   0  -9   1 25152.9 1201.26   3
   0   9   1 30137.7 1890.47   4
   0   9  -1 28343.7 1751.81   4
   0  -9   2 510.197 202.458   3
   0   9  -2 1159.55 395.423   4
   0   9   2 1105.38 443.350   4
   0  -9  -2 1000.66 296.576   3
   0   9  -3 16201.8 1298.11   4
   0   9   3 16323.6 1431.93   4
   0  -9  -3 15156.2 1060.40   3
   0  -9  -4 407.942 262.464   3
   0   9  -4 389.907 312.024   4
   0   9   4 536.829 355.962   4
   0  -9  -5 4666.20 648.273   3
   0   9  -5 5263.95 754.145   4
   0   9   5 6265.87 927.459   4
   0  -9  -6 446.879 286.652   3
   0   9   6-170.569 389.917   4
   0   9  -6 442.696 267.918   4
   0  -9  -7 4299.05 661.743   3
   0   9  -7 4362.41 640.352   4
   0   9   7 5133.12 887.290   4
   0   9   8 5083.64 869.275   4
   0  -9  -8 5349.48 752.893   3
   0   9  -8 4304.02 639.831   4
   0   9   8 4701.70 771.334   5
   0  -9  -9 14400.4 1237.76   3
   0   9   9 15027.2 1337.49   5
   0   9  -9 14184.9 1144.01   4
  -1   0  22 467.104 274.383   5
   1   0 -22 749.194 391.409   1
   1   0 -21 245.303 291.106   1
  -1   0  21-8.58203 202.749   5
  -1   0  20 66849.4 2387.93   5
   1   0 -20 70162.3 2889.74   1
   1   0 -19 35.1080 185.880   3
   1   0 -19-66.5636 133.210   2
  -1   0  19-23.5801 188.516   5
   1   0 -19 87.3603 215.258   1
   1   0 -18 41696.6 1617.72   3
   1   0 -18 43457.3 1466.01   2
  -1   0  18 41039.3 1719.12   5
  -1   0  17 356.780 217.721   5
   1   0 -17 125.868 189.667   3
  -1   0  16 172188. 3713.33   5
   1   0 -16 182752. 3628.08   3
   1   0 -16 181093. 2985.16   4
   1   0 -15-75.5316 93.7871   4
  -1   0  15 107.910 185.375   5
   1   0 -15 37.5725 163.456   3
  -1   0  14 3976.37 428.616   3
   1   0 -14 4154.67 438.819   3
   1   0 -14 4872.93 340.959   4
  -1   0  14 3475.62 422.925   5
   1   0 -13 51.4782 62.0468   4
  -1   0  13 103.562 108.586   5
  -1   0  13 181.737 121.620   3
   1   0 -13 22.4869 90.8071   3
  -1   0  12 33707.2 1205.96   5
   1   0 -12 35309.3 903.079   4
   1   0 -12 33801.7 1235.72   5
   1   0 -12 34456.8 1180.09   3
  -1   0  11-4.30893 87.7145   3
   1   0 -11 63.7599 60.8275   4
   1   0 -11-54.2144 82.8819   3
  -1   0  11 47.9523 95.8195   5
  -1   0  10 1773.18 250.889   5
   1   0 -10 1367.58 216.930   3
   1   0 -10 1819.73 170.896   4
  -1   0  10 1994.96 260.122   3
   1   0  -9 115.769 97.6978   3
  -1   0   9 204.967 110.071   5
   1   0  -9-22.9906 77.9304   5
   1   0  -9 5.92918 50.6489   4
  -1   0   9 40.5916 83.4819   3
   1   0  -8 466273. 6221.29   3
   1   0  -8 462604. 5687.03   4
  -1   0   8 467499. 6231.62   5
  -1   0   8 473684. 6258.97   3
   1   0  -8 469554. 6257.38   5
   1   0  -7-39.9061 66.2062   5
   1   0  -7 142.001 99.4280   3
  -1   0   7 116.796 79.0249   3
   1   0  -7 93.4345 37.6021   4
  -1   0   7 61.8829 72.4223   5
   1   0  -6 263046. 3719.07   3
  -1   0   6 268637. 3725.93   3
   1   0  -6 262932. 3237.78   4
  -1   0   6 263042. 3648.98   5
  -1   0   5 70.0974 54.5148   3
  -1   0   5 8.14948 50.8924   5
   1   0  -5 46.5100 58.7611   3
  -1   0   4 178825. 2408.30   5
  -1   0   4 172760. 2512.97   3
   1   0  -4 170845. 2532.10   3
   1   0  -3 120.466 62.2468   2
   1   0  -2 98359.9 1494.88   2
   1   0  -1 79.3238 45.8412   2
   1   0   0 250959. 3213.16   2
   1   0   1 172.516 49.9990   2
   1   0   1 41.6284 40.5427   5
  -1   0  -2 12174.1 373.985   2
   1   0   2 12461.0 380.018   2
   1   0   2 13630.5 427.088   5
  -1   0  -3 94.3348 48.9517   2
   1   0   3-40.7059 71.8979   5
   1   0   3 121.592 52.9642   2
   1   0   4 569641. 7195.69   5
  -1   0  -4 572815. 6986.63   3
  -1   0  -4 574258. 6950.48   2
   1   0   5 22.1655 78.5713   5
  -1   0  -5 147.109 68.2385   3
  -1   0  -5 162.494 58.4933   2
  -1   0  -6 1626.49 165.850   2
  -1   0  -6 1601.50 163.716   3
   1   0   6 2243.63 251.814   5
   1   0   6 1704.42 193.515   3
  -1   0  -7 168.461 80.4033   2
   1   0   7 278.206 118.732   5
  -1   0  -7 69.3071 55.3093   3
   1   0   7 300.945 108.812   3
  -1   0  -8 300862. 4181.17   3
   1   0   8 296287. 4570.49   5
   1   0   8 304284. 4414.95   3
   1   0   9 232.148 104.777   3
   1   0   9 208.844 147.016   5
  -1   0  -9-13.5983 63.8069   3
   1   0  10 40804.3 1235.54   3
  -1   0 -10 36812.2 1046.65   3
   1   0  10 37639.5 1297.96   5
  -1   0 -10 37769.6 1289.16   5
  -1   0 -11-7.16368 69.5262   3
   1   0  11 107.816 106.574   3
   1   0  11 51.1246 121.027   5
  -1   0 -11 80.0183 125.139   5
  -1   0 -12 180006. 3001.17   2
   1   0  12 180735. 3573.16   5
  -1   0 -12 181498. 3081.50   3
  -1   0 -13 159.353 128.915   3
   1   0  13 199.127 178.868   5
  -1   0 -13 204.496 126.678   2
   1   0  14 48593.5 1524.99   3
   1   0  14 46242.9 1696.99   5
  -1   0 -14 45585.9 1306.12   2
  -1   0 -14 46580.4 1387.41   3
  -1   0 -15-100.668 120.451   3
   1   0  15-91.4520 165.138   5
   1   0  15-53.5714 162.087   3
  -1   0 -15 24.7953 86.7588   2
   1   0  16 92216.7 2669.80   5
  -1   0 -16 88401.0 2058.46   2
  -1   0 -16 94237.7 2231.14   3
  -1   0 -17 4.70360 129.744   3
  -1   0 -17-204.196 187.027   1
  -1   0 -18 5890.95 553.262   3
  -1   0 -18 5328.86 757.376   1
   1   0  18 4759.15 641.908   5
   1   0  19 292.641 317.175   5
  -1   0 -19-110.299 254.921   1
  -1   0 -19-20.7565 148.256   3
  -1   0 -20 53332.7 2593.31   1
  -1   0 -20 53746.0 1814.82   3
   1   0  20 49683.2 2192.57   5
   1   0  21 1222.20 422.894   5
  -1   0 -21-94.9325 348.935   1
  -1   0 -22 28907.2 2023.51   1
   1   0  22 26682.4 1678.65   5
   1  -1 -22 14365.2 1100.21   3
  -1  -1  22 14751.6 1203.95   5
  -1   1  22 13890.7 1171.00   5
   1  -1 -22 14820.6 1396.95   1
  -1  -1  21 9988.21 930.151   5
  -1   1  21 9964.91 952.208   5
   1  -1 -21 9773.11 886.472   3
   1  -1 -21 10939.6 1161.19   1
  -1   1  20 13330.5 1055.86   5
  -1  -1  20 13096.7 1059.48   5
   1  -1 -20 14250.8 1037.97   3
   1  -1 -20 13409.7 1228.11   1
  -1  -1  19 4067.39 569.941   5
  -1   1  19 4756.25 616.509   5
   1  -1 -19 3640.89 635.477   1
   1  -1 -19 3761.45 531.445   3
   1   1 -18-50.6905 112.701   2
   1  -1 -18 112.603 164.971   3
   1  -1 -18 564.981 286.680   1
  -1  -1  18 199.798 193.962   5
  -1   1  18 135.938 169.070   5
  -1   1  17 3080.94 472.022   5
   1  -1 -17 2661.71 518.669   1
   1  -1 -17 2756.21 418.798   3
   1   1 -17 2345.11 271.024   2
   1   1 -17 2095.61 223.280   4
  -1  -1  17 2184.80 414.415   5
  -1   1  16 165145. 3628.76   5
   1   1 -16 167354. 2642.38   4
   1  -1 -16 162616. 4066.60   1
  -1  -1  16 166247. 3545.89   5
   1  -1 -16 161778. 3022.54   4
   1   1 -16 159932. 2809.20   2
   1  -1 -16 171018. 3580.71   3
  -1  -1  16 163862. 3153.04   3
  -1  -1  15 69785.0 1815.81   3
   1   1 -15 73311.4 1457.41   4
  -1  -1  15 71971.4 2063.58   5
   1   1 -15 73972.8 1627.77   2
   1  -1 -15 70409.2 1737.82   4
  -1   1  15 75158.4 2199.19   5
   1  -1 -15 70616.3 2433.17   1
   1  -1 -15 73718.0 2119.98   3
   1   1 -14 115774. 1958.30   4
   1  -1 -14 112883. 2634.91   3
   1  -1 -14 113271. 3045.32   1
  -1  -1  14 111328. 2584.50   5
   1   1 -14 111647. 2106.01   2
   1  -1 -14 110933. 2240.11   4
  -1   1  14 109566. 2681.79   5
   1  -1 -13 534.945 141.972   4
  -1   1  13 454.504 185.720   5
  -1  -1  13 216.307 140.687   5
   1   1 -13 358.561 118.063   2
   1   1 -13 707.722 193.182   5
   1  -1 -13 609.893 193.308   3
   1  -1 -13 625.973 203.214   1
  -1   1  12 2992.37 369.016   5
   1   1 -12 2762.22 258.413   2
   1   1 -12 3100.07 357.694   5
  -1   1  12 3877.07 420.506   3
   1  -1 -12 3166.22 367.525   3
   1  -1 -12 3153.77 438.580   1
   1  -1 -12 3524.45 301.604   4
  -1  -1  12 3262.48 337.215   3
  -1  -1  12 3530.23 373.700   5
  -1   1  11 29033.4 1124.64   3
   1  -1 -11 27869.6 1074.67   3
   1   1 -11 27772.2 816.393   2
   1  -1 -11 27209.6 864.534   4
  -1  -1  11 28562.9 1029.08   5
  -1  -1  11 28195.4 951.865   3
   1  -1 -11 26393.0 1208.84   1
  -1   1  11 27309.3 1074.68   5
  -1  -1  10 26925.0 950.597   5
  -1   1  10 27697.9 1034.35   5
   1   1 -10 27886.7 973.850   5
  -1  -1  10 27642.4 901.333   3
   1  -1 -10 28154.8 843.505   4
   1  -1 -10 26774.5 1019.16   3
   1   1 -10 28486.8 790.573   2
  -1  -1   9 142585. 2382.05   3
   1  -1  -9 142755. 2266.07   4
  -1   1   9 139945. 2583.03   5
  -1  -1   9 142704. 2455.78   5
   1  -1  -9 140058. 2611.59   3
   1   1  -9 145031. 2167.12   2
   1   1  -9 144122. 2484.00   5
   1  -1  -8 954621. 12075.1   3
  -1  -1   8 969000. 11827.6   5
  -1  -1   8 967509. 11749.3   3
   1   1  -8 978003. 11833.1   5
   1  -1  -8 975740. 11632.4   4
  -1   1   8 999999. 12160.9   3
   1  -1  -8 989275. 12415.0   1
   1   1  -8 979694. 11511.3   2
  -1   1   8 964397. 12065.6   5
   1   1  -8 946249. 11257.1   4
   1   1  -7 111954. 1745.94   2
  -1  -1   7 110401. 1914.92   5
   1  -1  -7 109738. 2109.46   3
   1   1  -7 108752. 1553.12   4
  -1   1   7 115186. 2135.22   3
   1  -1  -7 110261. 1846.58   4
  -1  -1   7 112055. 1912.84   3
   1  -1  -7 111386. 2256.71   1
   1   1  -7 113093. 1927.73   5
  -1   1   7 114827. 2108.36   5
   1   1  -6 432360. 5196.03   4
   1  -1  -6 440683. 5982.65   1
   1  -1  -6 426041. 5825.34   3
  -1  -1   6 427742. 5522.71   5
   1   1  -6 436819. 5529.20   5
  -1  -1   6 436415. 5569.73   3
  -1   1   6 445131. 5799.71   5
   1  -1  -6 436629. 5511.68   4
  -1   1   6 432299. 5810.23   3
  -1   1   6 432616. 5490.28   4
   1   1  -6 437779. 5399.36   2
   1   1  -5 109638. 1633.22   2
  -1  -1   5 112016. 1770.32   3
  -1  -1   5 111444. 1670.80   5
  -1   1   5 110458. 1702.07   4
   1  -1  -5 113591. 2004.32   1
   1  -1  -5 113167. 1768.50   4
   1  -1  -5 114578. 1966.14   3
   1   1  -4 15900.8 418.232   5
  -1  -1   4 15497.6 444.271   2
   1   1  -4 15431.1 441.697   2
   1  -1  -4 16823.0 540.024   4
   1  -1  -4 16920.9 579.174   1
   1   1  -4 16544.6 352.299   4
  -1  -1   4 15992.3 417.150   5
   1  -1  -4 16158.2 578.454   3
  -1  -1   4 15069.2 371.612   4
  -1   1   4 16231.7 482.389   4
  -1  -1   3 33419.6 596.174   4
  -1  -1   3 33603.0 713.446   2
   1   1  -3 32288.7 682.231   2
   1  -1  -3 30962.2 806.654   4
  -1  -1   3 32780.4 577.747   5
   1   1  -3 33785.3 565.622   5
   1   1  -3 32648.3 575.153   4
   1  -1  -3 30285.8 741.735   1
   1  -1  -3 32366.4 807.984   3
  -1   1   3 31389.0 738.089   4
  -1   1   3 30955.9 744.338   1
  -1  -1   2 16257.9 467.141   2
   1   1  -2 16402.7 395.061   4
   1  -1  -2 16291.0 507.306   3
  -1   1   2 15946.8 534.572   4
  -1  -1   2 16436.3 388.245   4
   1   1  -2 16435.3 448.926   2
   1  -1  -2 16540.9 556.942   4
   1  -1  -1 146684. 2190.54   4
   1   1  -1 138473. 1994.02   2
  -1  -1   1 141995. 1946.18   4
  -1  -1   1 139645. 2031.09   2
   1  -1  -1 143911. 2046.69   3
   1  -1   0 417196. 5014.84   3
   1   1   0 406097. 5088.91   2
  -1  -1   0 414727. 5085.96   4
  -1   1   0 407055. 4967.22   3
   1  -1   1 50875.4 909.899   2
  -1  -1  -1 48089.2 845.326   5
   1   1   1 51191.7 867.872   5
  -1   1  -2 175199. 2331.51   2
  -1  -1  -2 178162. 2648.67   3
   1  -1   2 176774. 2385.60   2
   1   1   2 174249. 2611.64   1
  -1  -1  -2 170433. 2455.19   5
  -1  -1  -3 566.333 120.004   3
   1  -1   3 534.961 77.3794   2
   1   1   3 102.416 66.2574   1
  -1   1  -3 140.622 45.4034   2
   1   1   3 203.314 78.4143   5
   1   1   4 396083. 5404.59   1
   1   1   4 403529. 5275.37   5
  -1  -1  -4 389807. 5306.22   3
   1   1   4 392409. 5387.66   3
  -1   1  -4 393957. 4841.49   2
  -1   1  -4 407337. 4754.95   3
   1  -1   4 402325. 4837.67   2
  -1  -1  -5 35096.8 974.509   3
   1  -1   5 38303.1 1061.53   5
   1   1   5 38304.7 1086.11   3
  -1   1  -5 36251.5 1013.68   5
   1   1   5 37442.8 1015.97   5
  -1   1  -5 38032.2 665.674   3
  -1   1  -5 36945.1 714.678   2
   1   1   6 46128.6 1215.08   5
   1   1   6 45816.2 1269.91   3
  -1   1  -6 47233.3 1230.72   5
  -1   1  -6 44973.7 835.971   2
  -1   1  -6 44830.3 808.777   3
   1  -1   6 46583.8 1235.97   5
  -1  -1  -6 46858.7 1168.04   3
  -1  -1  -7 889.886 158.137   3
  -1   1  -7 953.199 108.603   2
  -1   1  -7 1178.86 197.558   5
   1   1   7 1033.54 199.470   3
   1   1   7 976.516 193.850   5
  -1   1  -7 1180.66 116.966   3
   1  -1   7 1024.42 193.389   5
  -1  -1  -8 58010.5 1408.61   3
  -1   1  -8 57090.9 1504.86   5
   1   1   8 55859.9 1509.17   5
   1  -1   8 57038.3 1537.58   5
   1   1   8 56994.4 1572.63   3
  -1   1  -8 56467.1 1058.35   2
  -1   1  -8 57671.1 1076.31   3
   1   1   9 48763.3 1501.71   3
  -1   1  -9 50429.5 1038.64   3
   1  -1   9 49065.3 1468.35   5
   1   1   9 49137.5 1454.79   5
  -1  -1  -9 49768.4 1350.02   3
  -1   1  -9 48191.2 1000.62   2
   1  -1  10 44.6543 91.6981   5
  -1   1 -10 84.2810 66.0406   2
  -1   1 -10 154.590 73.4903   3
   1   1  10 321.304 152.190   5
  -1  -1 -10 305.552 134.937   5
   1  -1  10 518.721 117.815   3
  -1   1 -10 204.318 117.412   5
  -1  -1 -10 70.0463 83.2707   3
   1  -1  11 92406.8 2280.91   5
   1  -1  11 92832.1 1816.31   3
  -1   1 -11 94417.8 2291.71   5
  -1   1 -11 91624.8 1636.21   2
  -1  -1 -11 92389.8 2063.91   3
   1   1  11 90531.1 2265.35   5
  -1   1 -11 91880.0 1713.20   3
  -1  -1 -11 93706.0 2558.22   1
  -1  -1 -12 290321. 4654.02   3
   1   1  12 301512. 5136.93   3
  -1   1 -12 294459. 4202.28   3
   1  -1  12 295184. 4320.50   3
  -1   1 -12 297361. 4085.45   2
   1  -1  12 303767. 5069.68   5
  -1  -1 -12 296587. 5475.05   1
   1   1  12 286904. 4996.19   5
  -1   1 -13 13858.5 622.329   3
  -1  -1 -13 14066.0 1013.63   1
   1  -1  13 15144.7 916.994   5
   1   1  13 13409.3 867.334   5
  -1   1 -13 14100.3 571.608   2
  -1  -1 -13 13882.6 767.033   3
   1   1  13 16515.8 960.656   3
  -1  -1 -14 69639.3 1885.02   3
  -1  -1 -14 68179.4 2400.17   1
   1  -1  14 66135.0 2101.36   5
  -1   1 -14 70409.7 1608.77   3
  -1  -1 -14 69094.6 1969.66   4
  -1   1 -14 68500.1 1473.13   2
   1   1  14 66977.9 2130.30   5
  -1   1 -15 14135.7 617.242   2
  -1  -1 -15 13982.1 1088.78   1
  -1   1 -15 15009.5 707.451   3
   1  -1  15 15767.0 1005.59   5
   1   1  15 16355.8 1033.93   5
  -1  -1 -15 15732.4 868.037   3
  -1   1 -16 3573.37 311.308   2
   1   1  16 3660.45 520.679   5
  -1  -1 -16 4032.37 452.756   3
  -1  -1 -16 4355.45 648.032   1
  -1   1 -16 3616.32 359.628   3
   1  -1  16 3668.50 536.155   5
  -1  -1 -17 8890.01 699.419   3
  -1   1 -17 9468.99 606.051   3
  -1  -1 -17 9486.78 976.116   1
   1   1  17 9670.39 858.059   5
   1  -1  17 9252.34 844.724   5
  -1  -1 -18 16349.6 1333.50   1
   1  -1  18 17240.3 1181.93   5
  -1   1 -18 15925.9 821.703   3
   1   1  18 16881.2 1187.80   5
  -1  -1 -18 16139.8 982.294   3
  -1  -1 -19 36541.8 2062.66   1
   1  -1  19 35804.0 1765.72   5
  -1   1 -19 34112.1 1266.86   3
  -1  -1 -19 34675.5 1515.00   3
   1   1  19 34993.8 1768.48   5
  -1  -1 -20 163919. 4780.73   1
  -1  -1 -20 162888. 3716.16   3
   1   1  20 164092. 4244.41   5
   1  -1  20 164518. 4220.40   5
  -1  -1 -21 25417.6 1836.19   1
  -1  -1 -21 27391.1 1412.86   3
   1   1  21 25046.6 1603.37   5
   1  -1  21 25400.5 1594.33   5
   1  -1  22 33958.1 1906.09   5
   1   1  22 36563.9 1990.72   5
  -1  -1 -22 37655.7 1694.91   3
  -1   1 -22 35654.9 2280.34   1
  -1  -1 -22 34378.4 2204.81   1
  -1  -2  21 877.309 330.951   5
   1  -2 -21 1448.46 383.839   3
  -1   2  21 1045.13 341.279   5
   1  -2 -20 46416.5 1997.85   3
   1  -2 -20 43372.0 2274.29   1
  -1  -2  20 45475.4 1953.98   5
  -1   2  20 44791.9 2016.22   5
   1  -2 -19 30681.2 1840.24   1
  -1  -2  19 30776.8 1521.88   5
   1  -2 -19 30911.5 1566.48   3
  -1   2  19 28962.1 1563.04   5
  -1   2  18 1287.73 368.928   5
  -1  -2  18 1336.21 333.341   5
   1  -2 -18 1283.49 353.258   3
   1  -2 -18 2154.20 499.890   1
   1  -2 -17 28310.1 1649.34   1
  -1   2  17 29364.1 1482.57   5
   1  -2 -17 30836.8 1468.89   3
  -1  -2  17 28718.8 1387.56   5
   1  -2 -16-4.62233 196.979   3
   1   2 -16 106.059 61.8615   2
   1  -2 -16 88.1508 198.963   1
   1  -2 -16 4.83415 134.342   4
   1   2 -16 2.13039 70.1512   4
  -1   2  16 130.307 199.811   5
  -1  -2  16 270.950 185.619   5
   1   2 -15 102275. 1731.49   2
   1  -2 -15 120526. 2592.06   4
   1  -2 -15 125755. 2986.80   3
  -1  -2  15 100821. 2123.74   3
   1  -2 -15 120338. 3322.73   1
  -1   2  15 122194. 3014.96   5
   1   2 -15 124703. 2041.29   4
  -1  -2  15 126202. 2859.39   5
  -1  -2  14 12196.4 771.074   5
   1   2 -14 10672.1 403.358   2
   1  -2 -14 12544.9 729.737   4
   1   2 -14 11577.3 500.530   4
  -1  -2  14 12129.6 593.488   3
   1  -2 -14 11577.4 932.876   1
   1  -2 -14 12184.3 828.357   3
  -1   2  14 12405.3 856.447   5
  -1  -2  13 1591.37 215.059   3
   1   2 -13 1486.38 178.130   4
   1  -2 -13 1504.52 303.102   3
  -1   2  13 1199.70 258.225   5
   1   2 -13 1424.14 140.827   2
   1  -2 -13 1644.74 249.274   4
   1   2 -13 954.258 214.094   5
   1  -2 -13 1283.90 318.144   1
  -1  -2  13 1141.66 248.297   5
   1  -2 -12 126301. 2807.61   3
   1   2 -12 121531. 2573.99   5
  -1   2  12 124498. 2796.98   5
  -1  -2  12 122646. 2215.37   3
   1  -2 -12 123927. 3074.61   1
  -1  -2  12 124255. 2578.27   5
   1   2 -12 125880. 2060.63   4
   1  -2 -12 125202. 2483.50   4
   1   2 -12 114596. 1809.60   2
  -1  -2  11 35260.6 972.560   3
   1  -2 -11 34795.6 1126.75   4
   1  -2 -11 33439.1 1280.02   3
   1  -2 -11 32737.9 1407.95   1
   1   2 -11 35195.7 893.173   4
  -1   2  11 33746.6 1277.54   5
  -1  -2  11 31776.3 1143.93   5
   1   2 -11 32186.2 714.960   2
  -1  -2  10 481.189 152.316   5
  -1   2  10 423.268 148.712   3
   1  -2 -10 158.339 125.264   1
   1   2 -10 375.695 134.636   5
  -1   2  10 451.855 171.211   5
   1   2 -10 402.314 100.837   4
   1  -2 -10 252.202 143.893   3
   1   2 -10 427.188 75.6373   2
   1  -2 -10 282.324 120.332   4
  -1   2   9 235962. 3847.58   3
   1   2  -9 224563. 3153.39   4
  -1   2   9 221513. 3780.17   5
   1  -2  -9 220639. 3521.44   4
   1   2  -9 209743. 2855.82   2
  -1  -2   9 218643. 3210.71   3
   1  -2  -9 221323. 3828.78   3
   1   2  -9 226074. 3503.86   5
  -1  -2   9 219134. 3489.11   5
  -1   2   8 19430.0 766.443   4
  -1   2   8 20344.0 868.413   5
   1  -2  -8 21115.5 905.167   3
  -1  -2   8 18842.2 717.078   5
   1  -2  -8 20901.2 783.305   4
  -1  -2   8 18546.4 620.511   3
   1   2  -8 18723.6 474.465   2
   1   2  -8 19687.3 616.735   4
   1   2  -8 19810.4 722.471   5
   1  -2  -7 543443. 7485.60   1
   1   2  -7 547093. 6751.85   4
   1  -2  -7 547478. 7389.58   3
  -1   2   7 528922. 7036.23   4
  -1  -2   7 537365. 6770.62   3
   1   2  -7 524777. 6425.79   2
   1   2  -7 548924. 6892.15   5
   1  -2  -7 544114. 7097.46   4
   1  -2  -6 6157.27 408.177   4
   1   2  -6 5730.56 322.657   5
  -1   2   6 5576.89 415.606   1
   1  -2  -6 6759.14 468.607   3
  -1   2   6 5750.94 376.066   4
  -1  -2   6 5843.51 261.468   2
   1   2  -6 5638.30 316.526   4
   1   2  -6 5702.59 242.875   2
  -1   2   5 45769.5 1225.99   1
   1  -2  -5 48312.1 1234.36   4
   1  -2  -5 49159.7 1292.48   3
   1   2  -5 46718.0 860.256   2
  -1  -2   5 48083.8 943.658   2
   1   2  -5 47909.0 989.053   5
   1   2  -5 46407.0 1028.80   4
  -1  -2   5 47058.1 1080.24   4
  -1   2   5 49604.1 1184.67   4
  -1  -2   4 67530.3 1220.82   2
   1  -2  -4 71362.1 1544.14   3
  -1   2   4 69763.2 1467.09   4
   1   2  -4 69182.4 1146.96   2
   1   2  -4 64870.9 1210.28   5
   1  -2  -4 71310.0 1568.46   4
  -1  -2   4 70639.8 1400.65   4
   1   2  -4 65555.1 1301.01   4
  -1   2   4 64717.3 1463.10   1
  -1  -2   3 66273.9 1300.74   4
   1   2  -3 69671.2 1316.79   4
  -1  -2   3 66077.4 1232.12   2
   1  -2  -3 67449.2 1442.87   3
   1  -2  -3 67073.2 1558.88   4
  -1   2   3 65362.7 1438.98   4
   1  -2  -2 62221.0 1307.49   3
  -1  -2   2 58007.6 1196.79   2
   1  -2  -2 62465.2 1508.71   4
  -1  -2   2 59991.5 1186.86   4
  -1   2   2 60039.4 1212.84   3
   1   2  -2 65222.3 1260.09   4
  -1  -2   1 374913. 4891.10   4
   1   2  -1 378922. 4969.83   4
  -1   2   1 377343. 4819.41   3
   1  -2  -1 383428. 4946.90   3
   1  -2  -1 376938. 5365.71   4
  -1  -2   1 371931. 4949.72   2
   1   2   0 173775. 2707.07   4
  -1  -2   0 179090. 2671.07   4
  -1   2   0 179033. 2473.32   3
   1  -2   0 182759. 2579.59   3
   1  -2   0 178763. 3002.91   4
  -1  -2  -1 515772. 6524.83   4
   1  -2   1 518725. 6854.58   4
  -1   2  -1 500942. 6116.29   3
   1  -2   1 513891. 6215.84   3
  -1  -2  -1 512561. 6628.35   3
  -1  -2  -2 20980.8 702.416   4
   1   2   2 20176.0 623.726   5
  -1  -2  -2 20798.6 753.103   3
  -1   2  -2 20557.0 440.169   3
   1  -2   2 20707.3 490.894   3
  -1  -2  -3 85301.9 1674.81   4
  -1   2  -3 81980.0 1710.35   4
  -1   2  -3 81685.6 1109.09   3
   1   2   3 78615.3 1545.65   5
  -1  -2  -3 81960.9 1749.21   3
   1  -2   3 85918.3 1371.21   2
   1   2   4 20114.0 810.747   1
  -1  -2  -4 19798.3 785.046   3
  -1   2  -4 20870.8 775.232   4
   1  -2   4 20175.9 502.180   2
  -1  -2  -4 19934.4 738.789   4
   1   2   4 18814.2 692.019   5
  -1  -2  -5 196034. 3261.55   3
  -1   2  -5 202429. 3176.89   4
  -1   2  -5 203406. 3318.97   5
  -1  -2  -5 212101. 3252.11   4
   1   2   5 205262. 3169.01   5
   1   2   5 203760. 3390.25   1
   1   2   6 41581.5 1196.67   5
  -1  -2  -6 42276.6 1213.24   4
  -1   2  -6 44442.6 1277.67   5
  -1  -2  -6 40414.6 1219.53   3
   1   2   6 42864.0 1326.97   1
  -1  -2  -7 22750.2 909.047   3
  -1  -2  -7 24439.0 912.584   4
   1   2   7 23184.9 988.486   1
  -1   2  -7 23091.4 915.150   5
   1   2   7 20300.0 850.392   5
  -1  -2  -8 210304. 3428.83   3
  -1  -2  -8 221241. 3428.61   4
   1   2   8 215844. 3480.26   5
  -1  -2  -9 151000. 2816.68   4
  -1  -2  -9 145841. 2828.02   3
   1   2   9 145497. 3068.48   3
   1   2   9 141396. 2857.62   5
   1   2  10 15232.2 845.156   5
  -1   2 -10 13642.2 415.001   3
  -1  -2 -10 14342.8 764.772   4
  -1  -2 -10 15116.6 809.939   3
  -1  -2 -10 14322.3 928.089   1
   1   2  10 15713.9 928.939   3
  -1   2 -10 14423.2 807.138   5
  -1  -2 -11 120119. 2602.17   4
   1   2  11 114947. 2861.03   3
  -1  -2 -11 121590. 2649.14   3
  -1  -2 -11 117124. 3047.36   1
  -1   2 -11 120783. 1834.58   3
  -1   2 -11 117892. 2702.33   5
   1   2  11 116074. 2732.13   5
  -1  -2 -12 5015.44 495.006   3
  -1  -2 -12 5613.67 509.434   4
  -1  -2 -12 6215.30 678.416   1
  -1   2 -12 5805.20 312.656   3
   1   2  12 5047.88 534.573   5
   1  -2  12 5314.66 564.551   5
  -1  -2 -13 254717. 4501.79   3
  -1   2 -13 249343. 3553.05   3
  -1  -2 -13 259577. 5249.41   1
   1  -2  13 262327. 4766.51   5
   1   2  13 264143. 4825.32   5
  -1  -2 -14 116.026 123.411   3
   1   2  14 418.372 222.882   5
  -1  -2 -14 544.047 267.097   1
   1  -2  14 292.446 214.990   5
  -1  -2 -15 153.569 129.099   3
  -1  -2 -15 650.131 303.077   1
   1   2  15 313.308 219.782   5
   1  -2  15 160.539 190.550   5
  -1  -2 -16 14885.3 1196.66   1
   1  -2  16 17159.5 1113.56   5
   1   2  16 15527.9 1070.26   5
  -1  -2 -16 14540.1 933.200   3
  -1  -2 -17 6807.57 651.288   3
  -1  -2 -17 8437.87 933.966   1
   1   2  17 7052.04 750.773   5
   1  -2  17 6454.08 740.050   5
  -1  -2 -18 20421.4 1178.15   3
  -1  -2 -18 20974.8 1532.86   1
   1  -2  18 20611.4 1309.38   5
   1   2  18 21474.5 1359.86   5
  -1  -2 -19 66019.2 2249.47   3
   1   2  19 64945.6 2525.97   5
  -1  -2 -19 66537.5 2865.36   1
  -1  -2 -20 12049.0 1267.63   1
  -1  -2 -20 10799.9 929.513   3
   1   2  20 12442.0 1125.04   5
   1   2  21 90806.3 3185.04   5
  -1  -2 -21 93380.9 3659.65   1
  -1  -2 -21 88576.5 2814.12   3
  -1   3  21 2422.30 537.865   5
   1  -3 -21 1514.19 435.760   3
  -1   3  20 3382.10 614.334   5
   1  -3 -20 3641.28 595.390   3
   1  -3 -19 52007.6 2499.29   1
   1  -3 -19 58021.7 2293.31   3
  -1   3  19 57470.2 2333.15   5
   1  -3 -18 5032.60 770.163   1
   1  -3 -18 5233.31 650.730   3
  -1   3  18 5910.89 727.145   5
   1  -3 -17 38000.3 1739.73   3
  -1   3  17 39799.9 1808.38   5
   1  -3 -17 37112.9 1962.56   1
  -1   3  16 221.091 218.058   5
   1   3 -16 19.4005 83.7877   4
   1  -3 -16-210.640 189.828   1
   1  -3 -16 7.37183 171.282   3
   1  -3 -15 137003. 3370.68   3
  -1  -3  15 128073. 2183.15   3
   1   3 -15 132288. 2290.09   4
  -1   3  15 133806. 3303.38   5
   1  -3 -14 153.059 179.311   3
  -1  -3  14 324.609 107.703   3
  -1   3  14 70.3165 172.475   5
   1   3 -13 13249.4 790.682   5
  -1  -3  13 14576.1 550.184   3
   1   3 -13 12732.4 577.740   4
   1  -3 -13 13083.3 801.121   4
  -1   3  13 13556.6 903.084   5
   1  -3 -13 12717.1 893.406   3
   1   3 -12 6623.73 411.666   4
   1  -3 -12 5268.50 495.435   4
   1  -3 -12 5013.63 552.264   3
  -1   3  12 4930.61 535.026   5
   1   3 -12 5068.22 476.298   5
  -1  -3  12 5832.89 331.907   3
   1   3 -11 24664.5 825.108   4
   1  -3 -11 24276.5 1174.03   3
  -1   3  11 23564.7 1128.54   5
   1  -3 -11 22898.5 1030.67   4
  -1  -3  11 24160.8 703.033   3
   1   3 -10 18481.2 707.236   4
   1  -3 -10 16808.5 853.461   4
  -1   3  10 17850.2 947.050   5
  -1  -3  10 17373.9 575.638   3
   1  -3 -10 17899.5 980.097   3
   1   3 -10 16934.8 785.523   5
   1   3  -9 105530. 2005.47   4
   1   3  -9 103696. 2112.13   5
   1  -3  -9 104543. 2336.91   4
  -1  -3   9 103010. 1758.19   3
  -1   3   9 106542. 2539.57   1
   1  -3  -9 106067. 2537.76   3
  -1   3   9 102945. 2442.28   5
   1   3  -8 2611.09 275.478   5
  -1   3   8 2294.03 337.395   1
   1  -3  -8 2336.30 307.582   4
  -1  -3   8 2111.51 201.519   3
  -1  -3   8 2247.26 146.702   2
   1   3  -8 2636.84 270.036   4
   1  -3  -8 1926.06 313.339   3
   1   3  -7 746161. 9332.04   4
  -1   3   7 751934. 9914.45   1
  -1  -3   7 738463. 9398.00   4
   1  -3  -7 771007. 10009.5   3
   1  -3  -7 748930. 9760.04   4
   1   3  -7 770096. 9297.44   5
   1   3  -6 4798.50 369.413   4
   1   3  -6 4924.12 369.028   5
  -1  -3   6 5154.33 395.385   4
   1  -3  -6 5159.75 465.694   3
  -1  -3   6 4919.03 286.218   2
  -1   3   6 4487.10 424.374   1
   1  -3  -6 4309.44 405.514   4
  -1   3   6 4255.55 394.084   4
  -1   3   5 11606.4 656.741   1
  -1  -3   5 11192.3 464.918   2
  -1  -3   5 11149.3 592.341   4
   1  -3  -5 12474.0 689.401   4
   1  -3  -5 11731.3 673.221   3
   1   3  -5 10894.4 564.609   4
  -1   3   5 11725.9 642.551   4
  -1  -3   4 12858.5 645.965   4
   1  -3  -4 12824.8 710.517   4
   1   3  -4 12637.6 615.563   4
  -1   3   4 12653.0 670.949   4
   1  -3  -4 13937.4 707.444   3
  -1  -3   4 12447.0 520.876   2
  -1   3   4 12257.5 595.284   3
  -1   3   3 6005.30 460.697   4
  -1  -3   3 5959.97 428.187   4
   1   3  -3 5775.09 416.726   4
   1  -3  -3 6956.00 527.132   4
  -1   3   3 6065.83 395.981   3
   1  -3  -3 6781.59 471.171   3
  -1  -3   3 6033.75 368.323   2
  -1  -3   2 615.722 133.274   3
  -1   3   2 728.581 140.006   3
  -1  -3   2 369.770 110.155   2
   1  -3  -2 561.660 165.708   4
   1  -3  -2 861.106 172.191   3
  -1  -3   2 818.858 164.218   4
   1   3  -2 317.407 95.9090   4
  -1  -3   1 130217. 2357.82   4
  -1   3   1 133338. 2195.96   3
   1   3  -1 136960. 2504.69   4
   1  -3  -1 141246. 2809.97   4
   1  -3  -1 132335. 2376.80   3
  -1  -3   1 136974. 2339.21   3
   1  -3   0 680.031 193.422   4
   1  -3   0 1014.65 165.147   3
   1   3   0 1152.51 186.729   4
  -1  -3   0 1115.92 178.502   4
  -1   3   0 832.582 127.668   3
  -1  -3  -1 526784. 6947.47   4
  -1  -3  -1 527348. 7054.20   3
   1  -3   1 542276. 7444.93   4
  -1   3  -1 526977. 6473.02   3
  -1  -3  -2 24429.9 868.716   4
  -1  -3  -2 24754.8 923.970   3
  -1   3  -2 24391.7 604.697   3
   1  -3   2 23641.5 1002.03   4
   1  -3   2 23929.8 663.674   3
  -1   3  -2 22024.9 950.263   4
  -1   3  -3 24899.7 562.102   3
   1  -3   3 24982.0 610.398   3
   1  -3   3 24382.1 1011.52   4
  -1  -3  -3 23679.1 940.135   3
  -1  -3  -3 24897.7 898.784   4
  -1   3  -3 24599.1 996.623   4
  -1  -3  -4 11629.9 659.206   3
   1  -3   4 10005.0 310.250   3
  -1   3  -4 10473.7 635.034   4
   1   3   4 11241.1 578.001   5
   1   3   5 304260. 4841.48   1
   1   3   5 289972. 4451.52   5
  -1   3  -5 291269. 4623.63   4
  -1  -3  -5 277773. 4615.23   3
   1  -3   5 291197. 3831.38   2
  -1  -3  -5 305832. 4574.62   4
  -1  -3  -6 4817.52 422.786   4
  -1  -3  -6 4120.23 411.898   3
   1   3   6 4464.42 402.966   5
   1  -3   6 4092.17 207.580   2
  -1   3  -6 4270.98 433.011   5
   1   3   6 4578.49 462.873   1
  -1   3  -6 4539.00 426.939   4
   1   3   7 54617.4 1559.21   5
  -1   3  -7 55103.1 1568.62   4
  -1  -3  -7 51309.0 1599.94   3
   1   3   7 55415.2 1733.19   1
  -1  -3  -7 57145.2 1591.23   4
  -1  -3  -8 7785.50 573.543   4
   1   3   8 7257.92 612.027   1
  -1  -3  -8 7146.29 574.407   3
  -1   3  -8 7572.50 550.105   4
   1   3   8 7409.83 562.657   5
   1   3   8 8003.14 645.866   3
   1   3   9 55605.0 1697.74   5
  -1  -3  -9 56796.2 1669.36   4
  -1   3  -9 55827.8 1700.30   5
  -1  -3  -9 53111.6 1711.49   3
  -1   3  -9 54829.1 1603.31   4
   1   3  10 4386.21 469.629   5
  -1  -3 -10 5192.43 484.281   4
  -1   3 -10 3982.72 416.973   4
  -1  -3 -10 4274.29 480.065   3
  -1   3 -10 4544.45 481.861   5
  -1   3 -11 28905.1 1149.04   4
  -1  -3 -11 27736.4 1247.32   3
   1   3  11 26380.4 1230.12   5
  -1  -3 -12-4.05919 142.647   3
  -1   3 -12 176.410 152.355   4
   1   3  12 191.477 180.079   5
  -1  -3 -13 251911. 4760.93   3
  -1   3 -13 261118. 4484.24   4
   1   3  13 257044. 4930.08   5
   1   3  14 1103.24 319.761   5
  -1  -3 -14 1056.94 307.218   3
  -1   3 -14 1046.16 260.889   4
  -1  -3 -15 385.162 161.161   3
  -1   3 -15 206.712 131.225   4
   1   3  15 686.922 292.741   5
  -1  -3 -15 278.882 289.161   1
  -1  -3 -16 2440.49 526.182   1
  -1  -3 -16 1972.98 393.583   3
   1   3  16 1705.17 386.139   5
  -1   3 -16 2173.92 349.144   4
  -1   3 -17 6528.18 595.920   4
  -1  -3 -17 6201.59 851.397   1
   1   3  17 5779.54 719.018   5
  -1  -3 -17 5682.17 655.174   3
   1   3  18-179.037 282.381   5
  -1  -3 -18-172.591 208.065   3
  -1  -3 -18 1.70862 316.088   1
  -1   3 -18 21.7950 130.404   4
  -1  -3 -19 37635.7 2195.93   1
   1   3  19 38350.4 1933.92   5
  -1  -3 -19 34770.7 1705.63   3
   1   3  20 506.770 334.045   5
  -1  -3 -20 778.888 342.588   3
  -1  -3 -21 61444.2 2430.86   3
   1   3  21 63665.0 2693.84   5
   1  -4 -20 951.398 331.516   3
  -1   4  20 1328.87 447.337   5
   1  -4 -19 22104.1 1476.84   3
  -1   4  19 23895.4 1539.53   5
   1  -4 -18 11003.2 1013.84   3
  -1   4  18 10335.1 991.582   5
  -1   4  17 16464.8 1204.47   5
   1  -4 -17 16268.9 1209.13   3
  -1   4  16 61141.5 2296.31   5
   1  -4 -16 60429.1 2326.58   3
   1  -4 -15 58082.7 2235.39   3
   1   4 -15 61278.8 1506.36   4
  -1   4  15 63627.7 2280.68   5
  -1   4  14 44815.2 1835.84   5
   1   4 -14 46289.6 1289.63   4
   1  -4 -14 45348.6 1901.68   3
  -1  -4  13 3669.41 198.678   3
   1   4 -13 4256.67 373.556   4
   1  -4 -13 4697.98 588.324   3
  -1   4  13 4550.15 563.223   5
   1   4 -13 3688.60 453.564   5
  -1   4  12 3117.46 445.742   5
   1  -4 -12 2747.59 451.264   3
   1   4 -12 3092.07 395.181   5
  -1  -4  12 3179.73 193.485   3
   1   4 -12 3107.50 326.021   4
   1  -4 -11 36660.9 1589.43   3
   1   4 -11 36659.9 1158.18   4
  -1   4  11 36800.2 1528.77   5
  -1  -4  11 34575.6 759.053   3
  -1   4  10 117996. 2801.58   4
  -1   4  10 114888. 2839.68   5
   1  -4 -10 120084. 3001.99   3
  -1  -4  10 113553. 1801.96   3
   1   4 -10 115483. 2344.28   4
   1   4  -9 57239.1 1525.15   5
   1   4  -9 54519.8 1450.75   4
  -1   4   9 57468.9 1749.65   4
  -1  -4   9 55467.5 1066.69   3
   1  -4  -9 56367.4 1881.00   3
   1   4  -8 283817. 4289.15   5
   1  -4  -8 277851. 4760.57   4
   1  -4  -8 273676. 4921.42   3
  -1   4   8 275373. 4699.97   4
   1   4  -8 281263. 4340.13   4
  -1  -4   7 239840. 4029.88   4
   1  -4  -7 234073. 4264.02   4
   1   4  -7 223522. 3750.28   5
   1   4  -7 231933. 3900.52   4
  -1   4   7 232553. 4297.83   1
  -1   4   7 238930. 4233.90   4
   1  -4  -7 226641. 4337.68   3
  -1  -4   7 231220. 3340.08   2
   1   4  -6 190165. 3453.71   4
  -1   4   6 193846. 3702.01   4
   1  -4  -6 194314. 3763.42   4
   1  -4  -6 193486. 3804.06   3
  -1   4   6 191796. 3477.12   3
  -1  -4   6 200380. 3022.78   2
  -1   4   6 186797. 3698.96   1
  -1  -4   6 198794. 3559.56   4
   1   4  -5 3900.81 399.532   4
  -1  -4   5 4070.76 291.918   3
   1  -4  -5 4034.97 457.655   4
  -1  -4   5 4117.27 327.813   2
  -1  -4   5 4174.21 423.276   4
  -1   4   5 4195.21 399.745   3
  -1   4   5 3929.60 434.322   4
   1  -4  -5 3566.90 424.421   3
  -1  -4   4 1415.52 260.243   4
   1   4  -4 886.951 206.844   4
  -1   4   4 1383.97 227.336   3
   1  -4  -4 1756.61 316.276   4
  -1  -4   4 1165.05 167.478   3
   1  -4  -4 1183.99 239.337   3
  -1   4   4 1345.78 260.621   4
  -1  -4   4 1435.77 201.371   2
   1  -4  -3 29828.9 1163.76   3
   1   4  -3 30381.1 1171.57   4
  -1   4   3 31446.8 1035.99   3
  -1  -4   3 32540.0 1000.87   2
  -1  -4   3 31307.9 944.367   3
   1  -4  -3 32962.2 1336.54   4
  -1  -4   3 32239.7 1192.04   4
   1   4  -2 26904.2 1098.77   4
  -1  -4   2 28159.0 1072.55   4
   1  -4  -2 25690.0 1036.48   3
  -1  -4   2 28453.9 926.617   3
  -1   4   2 28562.1 941.092   3
   1  -4  -2 29713.3 1261.50   4
  -1  -4   1 60290.0 1627.76   4
  -1  -4   1 62708.1 1525.27   3
   1   4  -1 60956.2 1737.46   4
   1  -4  -1 59365.8 1594.67   3
  -1   4   1 63117.5 1437.45   3
   1   4   0 355288. 5498.70   4
   1  -4   0 330151. 5038.31   3
  -1  -4   0 356578. 5146.81   3
  -1  -4   0 345232. 5252.42   4
   1  -4   0 366832. 5810.45   4
  -1   4   0 343873. 4806.44   3
  -1   4  -1 232147. 3399.50   3
   1   4   1 233479. 4098.94   4
  -1  -4  -1 234015. 3840.65   3
  -1  -4  -1 230087. 3856.84   4
   1  -4   1 219397. 3561.89   3
   1  -4   2 393.570 102.634   3
  -1   4  -2 465.528 108.268   3
   1  -4   2 398.860 178.805   4
  -1  -4  -2 1213.33 220.028   4
  -1  -4  -2 1154.76 220.326   3
  -1   4  -2 256.104 159.353   4
   1  -4   3 15612.9 565.041   3
  -1  -4  -3 16410.2 843.584   3
  -1   4  -3 15528.4 863.865   4
  -1  -4  -3 15616.2 789.984   4
  -1   4  -3 15277.9 522.939   3
  -1  -4  -4 14277.1 764.732   4
  -1   4  -4 13428.8 806.006   4
   1   4   4 14006.1 788.446   3
   1  -4   4 12946.1 827.507   4
   1  -4   4 12859.5 454.167   3
  -1  -4  -4 13757.8 791.165   3
  -1   4  -5 134826. 2898.88   4
   1   4   5 144095. 2945.13   3
   1   4   5 137309. 2727.56   5
   1   4   5 140623. 3002.01   4
  -1  -4  -5 132474. 2879.80   3
  -1  -4  -5 142561. 2811.13   4
  -1   4  -6 62117.8 1851.02   4
   1   4   6 64642.3 2012.38   1
   1   4   6 67099.3 1940.78   3
  -1  -4  -6 59355.5 1852.20   3
   1   4   6 61210.5 1754.91   5
  -1  -4  -6 66121.1 1825.30   4
   1  -4   6 61226.4 1251.89   2
  -1  -4  -7 23034.5 1118.91   3
   1   4   7 22424.0 1027.93   5
  -1   4  -7 23388.9 1098.60   4
  -1   4  -7 23348.5 1063.57   5
   1  -4   7 19735.3 556.756   2
  -1   4  -8 36536.4 1391.31   4
  -1  -4  -8 35535.9 1453.26   3
   1   4   8 36174.3 1377.65   5
  -1   4  -8 34935.6 1378.98   5
   1   4   9 33165.9 1358.23   5
  -1   4  -9 34337.4 1358.41   4
  -1  -4  -9 33644.6 1453.56   3
  -1   4  -9 33833.5 1374.31   5
  -1  -4 -10 11297.6 853.595   3
  -1   4 -10 13421.7 839.044   4
   1   4  10 10990.7 793.311   5
   1   4  11 21660.9 1157.55   5
  -1  -4 -11 19800.1 1146.92   3
  -1   4 -11 21940.0 1099.40   4
   1   4  12 144336. 3417.60   5
  -1  -4 -12 144487. 3487.74   3
  -1   4 -12 151083. 3269.08   4
  -1  -4 -13 127192. 3273.09   3
   1   4  13 123270. 3235.60   5
  -1   4 -13 129822. 3008.04   4
  -1  -4 -14 44723.4 1858.32   3
  -1   4 -14 44290.2 1646.65   4
   1   4  14 45359.8 1898.10   5
  -1  -4 -15 2002.19 430.608   3
  -1   4 -15 1755.70 348.429   4
   1   4  15 1911.85 427.163   5
  -1   4 -16 9234.19 749.594   4
  -1  -4 -16 8149.16 816.753   3
   1   4  16 7704.37 832.089   5
   1   4  17 5107.63 697.164   5
  -1  -4 -17 5636.76 703.657   3
  -1   4 -17 4789.53 552.407   4
   1   4  18 4730.82 693.893   5
  -1  -4 -18 4630.52 643.402   3
   1   4  19 12203.4 1128.57   5
  -1  -4 -19 12602.3 1090.42   3
  -1  -4 -20 106458. 3385.89   3
   1   4  20 106874. 3560.96   5
   1  -5 -19 3217.95 669.892   3
  -1   5  19 2393.17 549.451   5
  -1   5  18 1965.75 472.679   5
   1  -5 -18 1479.82 435.084   3
  -1   5  17 2457.00 533.986   5
   1  -5 -17 2072.41 486.769   3
   1  -5 -16 29169.8 1698.15   3
  -1   5  16 29324.4 1646.15   5
   1  -5 -15 2828.13 533.775   3
   1   5 -15 2853.78 339.361   4
  -1   5  15 2821.53 513.996   5
  -1   5  14 28248.7 1535.14   5
   1   5 -14 30215.3 1129.67   4
   1  -5 -14 28862.9 1620.19   3
   1   5 -13 4234.83 420.706   4
   1  -5 -13 3935.91 604.132   3
  -1   5  13 3688.96 553.391   5
  -1   5  12 75698.1 2481.97   5
   1  -5 -12 79085.2 2652.11   3
   1   5 -12 76193.5 1950.68   4
   1   5 -12 73669.7 2070.49   5
   1   5 -11 30970.1 1235.54   5
   1   5 -11 28756.0 1125.74   4
  -1   5  11 31293.9 1483.50   4
  -1  -5  11 21803.4 449.118   3
  -1  -5  11 19555.7 419.643   3
  -1   5  11 30303.4 1468.78   5
   1  -5 -11 29727.1 1531.99   3
  -1   5  10 1503.78 330.969   4
   1   5 -10 1376.31 256.219   4
  -1  -5  10 1263.10 119.299   3
   1   5 -10 1645.07 286.618   5
   1  -5 -10 1283.34 339.100   3
  -1   5  10 1147.22 299.379   5
  -1  -5  10 1165.19 129.605   3
  -1  -5   9 32.3575 60.5610   2
  -1   5   9 332.904 198.659   4
   1   5  -9 245.588 133.350   4
  -1  -5   9 391.973 89.5166   3
   1  -5  -9 257.372 213.178   3
  -1  -5   8 209664. 3972.48   4
  -1  -5   8 204110. 2933.85   3
   1  -5  -8 197237. 4302.66   3
   1   5  -8 213127. 3871.24   4
  -1  -5   8 203049. 3123.04   2
  -1   5   8 211911. 4264.79   4
  -1  -5   7 451.211 194.352   4
   1   5  -7 142.975 139.366   4
  -1  -5   7 253.161 116.036   2
   1  -5  -7 366.701 226.694   3
  -1  -5   7 464.720 115.426   3
  -1  -5   6 85769.8 1824.68   2
  -1   5   6 80201.0 2371.03   4
  -1  -5   6 83209.1 1615.83   3
  -1  -5   6 85065.2 2274.13   4
   1  -5  -6 77527.0 2365.30   3
   1   5  -6 84712.3 2223.49   4
   1  -5  -5 172.114 138.533   3
  -1  -5   5 274.737 105.915   3
   1   5  -5 366.311 125.066   4
  -1  -5   5 194.539 120.432   2
  -1   5   5 228.717 151.181   4
  -1  -5   5 465.121 193.006   4
  -1  -5   4 17619.2 701.358   3
  -1   5   4 17925.9 872.639   3
   1  -5  -4 16486.3 965.760   3
  -1   5   4 17076.2 1015.70   4
  -1  -5   4 16810.3 751.484   2
   1   5  -4 18118.9 989.828   4
  -1  -5   4 18274.9 1005.32   4
   1   5  -3 53223.8 1794.56   4
  -1   5   3 55997.7 1884.51   4
  -1  -5   3 52863.6 1447.42   2
  -1  -5   3 56343.8 1400.23   3
   1  -5  -3 54433.9 1758.25   3
  -1  -5   3 59865.7 1874.80   4
  -1   5   3 53786.4 1557.57   3
   1  -5  -2 3267.48 402.630   3
  -1  -5   2 2834.45 403.965   4
  -1   5   2 2420.52 381.277   4
   1   5  -2 2901.04 416.243   4
  -1  -5   2 2861.34 304.788   3
  -1   5   2 2675.62 328.873   3
  -1   5   1 17095.1 996.512   4
   1   5  -1 16007.5 957.853   4
  -1  -5   1 16423.8 929.215   4
  -1   5   1 16297.1 769.453   3
   1  -5  -1 17191.2 870.831   3
  -1  -5   1 17970.4 800.553   3
  -1   5   0 306771. 4671.39   3
  -1  -5   0 308934. 5216.93   4
  -1   5   0 320647. 5448.29   4
   1   5   0 312611. 5464.05   4
   1  -5   0 311633. 4907.00   3
  -1  -5   0 324032. 4908.30   3
   1   5   1 13388.6 885.987   4
  -1   5  -1 12985.2 622.161   3
  -1   5  -1 13515.7 859.743   4
  -1  -5  -1 12894.7 735.963   3
   1  -5   1 14354.7 708.833   3
  -1   5  -2 22340.7 794.125   3
  -1  -5  -2 24921.6 1069.45   3
   1  -5   2 23041.4 852.430   3
  -1   5  -2 21201.0 1092.39   4
   1   5   2 22574.6 1166.30   4
   1   5   3 8524.65 713.683   4
   1  -5   3 9055.88 486.502   3
  -1   5  -3 9372.56 715.911   4
  -1  -5  -3 9346.15 672.526   3
  -1   5  -4 103286. 2611.90   4
   1  -5   4 105744. 1892.14   3
  -1  -5  -4 106054. 2598.89   3
   1   5   4 108213. 2779.39   4
  -1   5  -5 2312.58 370.644   4
   1   5   5 2481.84 405.281   4
   1  -5   5 2401.30 201.792   3
  -1  -5  -5 2779.71 404.125   3
   1   5   6 26771.8 1198.96   5
  -1   5  -6 24423.7 1196.10   4
  -1  -5  -6 25633.1 1252.78   3
   1   5   6 27113.6 1353.58   4
  -1  -5  -7 103.124 166.497   3
   1   5   7 238.808 194.750   5
   1  -5   7-33.0380 82.4365   2
  -1   5  -7 273.184 197.546   4
  -1   5  -8 147972. 3128.20   4
   1  -5   8 95445.5 1599.57   2
  -1  -5  -8 135505. 3223.37   3
   1   5   8 134584. 2993.71   5
   1  -5   8 108885. 1735.62   2
   1   5   9 37358.4 1559.69   5
  -1   5  -9 40425.5 1584.08   4
  -1  -5  -9 40224.1 1743.54   3
  -1   5 -10 11682.1 843.520   4
   1   5  10 11982.8 886.348   5
  -1  -5 -10 12398.0 959.410   3
  -1   5 -11 21265.7 1159.24   4
  -1  -5 -11 21115.9 1285.09   3
   1   5  11 21732.9 1233.06   5
  -1  -5 -12 81183.0 2689.16   3
  -1   5 -12 86234.4 2478.99   4
   1   5  13 1216.99 350.227   5
  -1   5 -13 1565.24 342.407   4
  -1  -5 -13 628.048 270.850   3
  -1  -5 -14 25884.8 1503.75   3
  -1   5 -14 26072.6 1312.33   4
   1   5  14 26596.7 1503.14   5
  -1  -5 -15 2806.07 518.487   3
  -1   5 -15 3127.67 461.011   4
   1   5  15 2691.99 516.546   5
   1   5  16 16215.6 1245.21   5
  -1  -5 -16 18389.0 1319.74   3
  -1   5 -16 17804.7 1082.12   4
   1   5  17 17521.6 1333.34   5
  -1  -5 -17 18847.9 1370.97   3
  -1  -5 -18 647.875 282.690   3
   1   5  18 161.141 242.306   5
  -1  -5 -19 754.104 338.815   3
   1   5  19 807.235 414.864   5
  -1   6  17 2312.35 547.402   5
   1  -6 -17 2489.38 550.309   3
  -1   6  16 99436.6 3301.23   5
   1  -6 -16 95708.1 3424.21   3
  -1   6  15 6378.89 796.030   5
   1  -6 -15 5366.30 777.391   3
   1   6 -14 22192.0 1063.94   4
  -1   6  14 22240.8 1449.57   5
   1  -6 -14 19019.2 1412.73   3
   1  -6 -13 469.506 289.304   3
   1   6 -13 579.104 212.832   4
  -1   6  13 443.246 280.341   5
  -1   6  12 1761.83 425.762   5
   1  -6 -12 1637.56 426.173   3
   1   6 -12 1336.20 271.980   4
   1   6 -11 10095.3 728.684   4
   1  -6 -11 9036.30 926.350   3
  -1   6  11 9973.55 914.026   5
  -1   6  11 8546.94 862.630   4
  -1  -6  10 911.158 98.5820   3
  -1   6  10 1125.15 327.837   4
   1  -6 -10 749.878 298.290   3
   1   6 -10 1087.11 276.456   4
  -1   6  10 1452.48 396.223   5
   1   6  -9 15652.4 946.044   4
  -1  -6   9 13503.3 587.276   2
   1   6  -9 16444.6 902.591   5
  -1  -6   9 15134.3 488.043   3
   1  -6  -9 15084.5 1134.63   3
  -1   6   9 16209.6 1135.68   4
  -1  -6   8 255725. 3976.17   2
   1   6  -8 263150. 4797.56   4
  -1  -6   8 257065. 3589.61   3
   1  -6  -8 260620. 5362.84   3
   1   6  -8 254348. 4477.62   5
  -1   6   8 267026. 5356.59   4
  -1  -6   7 76916.5 1802.15   2
  -1  -6   7 76201.9 1522.14   3
   1   6  -7 78949.3 2300.78   4
  -1   6   7 78238.2 2578.48   4
   1  -6  -7 73787.2 2499.39   3
  -1  -6   6 90085.8 2049.84   2
   1  -6  -6 88942.3 2701.53   3
  -1   6   6 96560.6 2867.65   4
   1   6  -6 95587.8 2593.99   4
  -1  -6   6 93621.5 1820.22   3
   1   6  -5 1221.52 297.604   4
   1  -6  -5 1084.86 327.217   3
  -1   6   5 1177.43 309.624   4
  -1  -6   5 962.890 181.164   3
   1   6  -4 24298.9 1277.13   4
   1  -6  -4 23284.5 1215.65   3
  -1   6   4 25413.8 1379.95   4
  -1  -6   4 22281.6 948.125   2
  -1  -6   4 22891.1 866.300   3
   1  -6  -3 6748.26 627.111   3
  -1  -6   3 6273.98 495.423   2
  -1  -6   3 6063.08 456.777   3
   1   6  -3 7436.02 714.360   4
  -1   6   3 6024.26 666.560   4
  -1  -6   2 2359.60 298.506   3
   1   6  -2 2777.17 460.031   4
   1  -6  -2 2791.67 388.356   3
  -1   6   2 3453.92 507.571   4
  -1   6   1 5132.41 473.888   3
   1   6  -1 5650.30 643.113   4
   1  -6  -1 4908.62 491.720   3
  -1   6   1 6012.58 649.027   4
  -1  -6   1 5069.10 455.349   3
   1  -6   0 111079. 2474.84   3
   1   6   0 104100. 2971.02   4
  -1  -6   0 106867. 2436.91   3
  -1   6   0 111964. 2944.59   4
  -1   6   0 105056. 2322.42   3
  -1   6  -1 29256.5 1067.99   3
  -1   6  -1 31217.9 1444.79   4
  -1  -6  -1 30986.1 1237.19   3
   1  -6   1 32537.4 1163.17   3
   1   6   1 33488.7 1601.89   4
  -1  -6  -2 66517.6 1937.03   3
   1   6   2 62955.6 2254.84   4
  -1   6  -2 63204.3 2104.69   4
   1  -6   2 66815.1 1674.80   3
  -1   6  -3 7965.13 711.395   4
   1   6   3 7761.92 766.686   4
   1  -6   3 7635.16 489.181   3
  -1  -6  -3 8147.25 664.777   3
   1  -6   4 134933. 2392.36   3
  -1  -6  -4 134057. 3123.56   3
  -1   6  -4 129910. 3164.68   4
   1   6   4 129366. 3430.90   4
  -1  -6  -5 5955.08 628.097   3
  -1   6  -5 5055.01 573.496   4
   1  -6   5 5398.32 352.465   3
   1   6   5 4801.40 612.179   4
   1  -6   6 6362.35 332.952   3
   1   6   6 8496.67 844.744   4
  -1   6  -6 7439.50 682.155   4
  -1  -6  -6 7458.41 719.294   3
   1   6   6 6702.62 665.327   5
  -1  -6  -7 1080.08 307.238   3
   1   6   7 1389.37 335.282   5
  -1   6  -7 1143.77 280.630   4
   1  -6   7 903.455 177.627   2
  -1  -6  -8 21945.6 1321.35   3
  -1   6  -8 22582.5 1201.35   4
   1  -6   8 20674.8 718.356   2
   1   6   8 21645.5 1222.29   5
   1  -6   8 18324.8 625.174   2
   1  -6   9 2294.01 174.939   2
   1   6   9 4210.46 566.126   5
  -1   6  -9 3579.37 483.075   4
  -1  -6  -9 3612.53 562.050   3
  -1  -6 -10 705.834 248.571   3
  -1   6 -10 965.339 272.034   4
   1   6  10 1251.51 366.370   5
  -1   6 -11 373.785 198.621   4
   1   6  11 514.084 254.777   5
  -1  -6 -11 963.914 316.375   3
  -1  -6 -12 111610. 3415.41   3
   1   6  12 113263. 3262.16   5
  -1   6 -12 110216. 2951.68   4
  -1   6 -13 26086.9 1350.89   4
  -1  -6 -13 27724.9 1645.42   3
   1   6  13 30789.5 1655.82   5
  -1  -6 -14 34868.3 1898.39   3
  -1   6 -14 34212.5 1558.89   4
   1   6  14 36495.7 1843.02   5
   1   6  15-173.538 223.379   5
  -1  -6 -15 303.148 229.508   3
  -1   6 -15 397.726 257.941   4
   1   6  16 9990.23 1033.17   5
  -1  -6 -16 9228.39 1007.45   3
  -1   6 -16 9850.52 825.616   4
  -1  -6 -17 2327.92 543.019   3
   1   6  17 2258.06 541.469   5
   1  -7 -15 40120.3 2264.93   3
  -1   7  15 43927.0 2228.65   5
  -1   7  14 1096.39 397.297   5
   1  -7 -14 1448.90 457.350   3
   1  -7 -13 1716.00 472.145   3
   1   7 -13 2410.95 404.446   4
  -1   7  13 1677.90 422.230   5
   1   7 -12 20824.7 1162.67   4
   1  -7 -12 21419.7 1540.10   3
  -1   7  12 20552.2 1441.97   5
   1   7 -11 18.7226 142.656   4
  -1   7  11 150.246 216.765   4
   1  -7 -11 580.586 358.964   3
  -1   7  11 303.674 223.491   5
  -1   7  10 18170.8 1356.48   4
   1   7 -10 20017.3 1155.41   4
   1  -7 -10 18261.1 1369.21   3
  -1   7  10 17552.5 1288.12   5
   1   7  -9 74436.1 2363.69   4
   1  -7  -9 76242.6 2794.39   3
  -1   7   9 73937.8 2765.06   4
  -1   7   8 8008.37 873.953   4
   1   7  -8 6635.94 686.454   4
   1  -7  -8 7679.92 841.162   3
  -1  -7   8 6494.06 381.693   3
  -1  -7   7 85060.2 1747.00   3
  -1   7   7 90373.9 3046.60   4
   1   7  -7 88063.3 2638.86   4
   1  -7  -7 84357.9 2794.19   3
  -1  -7   6 132.556 109.477   3
   1  -7  -6 362.722 267.174   3
   1   7  -6 411.639 243.336   4
  -1   7   6 920.889 343.464   4
  -1   7   5 26618.9 1578.04   4
   1  -7  -5 27983.1 1447.64   3
  -1  -7   5 31447.9 1048.59   3
   1   7  -5 29714.5 1516.74   4
   1   7  -4 51292.2 2050.21   4
  -1   7   4 51998.0 2200.18   4
   1  -7  -4 49284.0 1884.50   3
  -1  -7   4 50187.6 1436.64   3
  -1  -7   3 8293.80 571.008   3
  -1   7   3 7993.98 845.651   4
   1   7  -3 8214.13 825.416   4
   1  -7  -3 9005.31 758.494   3
   1   7  -2 713.807 286.099   4
  -1   7   2 267.814 219.949   4
   1  -7  -2 478.077 200.812   3
  -1  -7   2 392.189 165.454   3
  -1  -7   1 54008.7 1671.80   3
   1  -7  -1 54583.8 1786.16   3
   1   7  -1 53114.8 2205.33   4
  -1   7   1 56021.8 2200.04   4
  -1   7   0 16681.8 1148.42   4
   1   7   0 16990.7 1238.40   4
   1  -7   0 15959.5 888.582   3
  -1  -7   0 16899.2 920.252   3
  -1   7  -1 21251.5 1278.67   4
   1   7   1 18516.4 1307.77   4
  -1  -7  -1 21808.5 1093.28   3
   1  -7   1 21399.3 988.551   3
  -1  -7  -2 1787.71 345.337   3
   1   7   2 1581.15 405.452   4
   1  -7   2 1551.49 270.706   3
  -1   7  -2 1570.15 355.094   4
   1  -7   3 1142.88 226.124   3
  -1   7  -3 1694.93 364.172   4
   1   7   3 1060.96 327.120   4
  -1  -7  -3 890.461 251.358   3
  -1  -7  -4 45174.5 1785.51   3
   1  -7   4 47237.0 1317.34   3
  -1   7  -4 43679.0 1822.05   4
   1   7   4 43161.9 2060.09   4
  -1   7  -5 24799.6 1347.13   4
   1   7   5 27501.8 1645.70   4
   1  -7   5 26504.6 892.780   3
  -1  -7  -5 29236.8 1469.50   3
   1   7   6 510.067 271.846   5
  -1   7  -6 932.620 301.321   4
  -1  -7  -6 510.466 245.992   3
   1  -7   6 638.536 133.826   3
   1   7   6 968.420 324.964   4
  -1   7  -7 552.050 247.550   4
  -1  -7  -7 192.433 184.010   3
   1   7   7 589.988 331.380   4
   1   7   7 206.054 193.950   5
  -1   7  -8 29992.7 1473.92   4
   1  -7   8 27357.0 964.153   2
   1   7   8 30563.0 1604.88   5
  -1  -7  -8 30701.8 1629.75   3
   1   7   9 15855.6 1155.47   5
  -1   7  -9 15434.2 1054.26   4
  -1  -7  -9 15007.3 1162.70   3
  -1   7 -10 10188.4 863.598   4
  -1  -7 -10 10474.8 1006.54   3
   1   7  10 10322.8 971.140   5
   1   7  11 24308.1 1499.92   5
  -1  -7 -11 24665.7 1580.30   3
  -1   7 -11 24474.3 1336.19   4
  -1   7 -12 14014.4 1011.39   4
  -1  -7 -12 14788.0 1246.84   3
   1   7  12 14400.6 1174.49   5
   1   7  13 20050.8 1424.84   5
  -1  -7 -13 19416.2 1468.06   3
  -1   7 -13 18776.9 1179.67   4
  -1  -7 -14-162.366 328.744   3
  -1   7 -14 25.6058 173.401   4
   1   7  14-115.871 261.463   5
  -1   7 -15 5601.28 655.184   4
   1   7  15 6466.35 864.330   5
  -1  -7 -15 5836.62 858.081   3
  -1   8  13 300.143 366.021   5
   1  -8 -13-108.563 316.028   3
   1  -8 -12 4975.39 813.103   3
  -1   8  12 5012.28 774.455   5
   1   8 -12 3929.21 556.476   4
   1   8 -11 14843.7 1073.41   4
  -1   8  11 13307.0 1309.56   4
   1  -8 -11 13626.6 1263.05   3
  -1   8  11 14899.7 1313.47   5
   1  -8 -10 514.896 323.659   3
  -1   8  10-275.732 268.903   5
   1   8 -10 40.9043 168.068   4
  -1   8  10 640.515 244.653   4
   1   8  -9 37487.3 1767.51   4
  -1   8   9 42635.2 2255.61   4
   1  -8  -9 42793.4 2129.85   3
   1  -8  -8 1432.51 448.248   3
  -1   8   8 1100.41 432.706   4
   1   8  -8 1192.54 355.685   4
   1   8  -7 64267.6 2388.92   4
   1  -8  -7 64827.1 2503.01   3
  -1   8   7 67863.2 2824.43   4
   1  -8  -6 236.138 241.941   3
  -1   8   6-441.335 316.167   4
   1   8  -6-39.7126 187.773   4
   1  -8  -5 3382.38 539.522   3
  -1   8   5 3543.43 644.998   4
  -1  -8   5 3703.74 381.737   3
   1   8  -5 3808.96 618.122   4
  -1   8   4 8694.82 955.279   4
   1   8  -4 8947.43 912.834   4
   1  -8  -4 9022.20 812.312   3
  -1  -8   4 8088.54 587.985   3
   1   8  -3 13548.4 1136.39   4
  -1   8   3 13876.2 1200.41   4
   1  -8  -3 13207.9 946.615   3
  -1  -8   3 13139.5 781.519   3
  -1   8   2 19459.8 1395.86   4
   1  -8  -2 18920.2 1110.02   3
  -1  -8   2 20320.2 1016.25   3
   1   8  -2 19528.5 1397.56   4
   1   8  -1 17560.7 1352.72   4
  -1  -8   1 18015.9 991.131   3
   1  -8  -1 17191.6 1014.12   3
  -1   8   1 18476.2 1332.47   4
   1   8   0 3432.63 627.462   4
  -1   8   0 3458.55 588.300   4
  -1  -8   0 3578.43 464.567   3
   1  -8   0 4226.10 495.190   3
  -1   8  -1 45869.6 2064.76   4
   1   8   1 44508.4 2202.92   4
   1  -8   1 44536.0 1548.25   3
  -1  -8  -1 46663.2 1738.52   3
   1   8   2 482.219 299.983   4
   1  -8   2 293.867 174.106   3
  -1  -8  -2 85.9254 215.790   3
  -1   8  -2 43.9806 207.001   4
  -1  -8  -3 9954.95 833.042   3
   1   8   3 8330.98 973.963   4
   1  -8   3 10408.7 665.127   3
  -1   8  -3 10413.3 949.666   4
   1  -8   4 1519.46 252.971   3
  -1  -8  -4 1167.28 329.931   3
  -1   8  -4 2317.94 478.574   4
   1   8   4 1222.29 424.042   4
  -1   8  -5 22624.2 1381.33   4
  -1  -8  -5 22411.7 1322.20   3
   1   8   5 25011.4 1738.55   4
  -1  -8  -6 5916.32 708.821   3
   1   8   6 5325.82 835.146   4
  -1   8  -6 4678.76 636.996   4
   1   8   6 5051.02 709.488   5
  -1  -8  -7 3251.34 560.260   3
  -1   8  -7 3365.69 538.959   4
   1   8   7 2233.74 512.719   5
  -1  -8  -8 778.621 331.794   3
  -1   8  -8 1120.04 369.639   4
   1   8   8 606.581 316.075   5
  -1   8  -9 28097.0 1528.69   4
   1   8   9 29982.7 1735.81   5
  -1  -8  -9 31217.5 1757.85   3
  -1  -8 -10-252.548 334.931   3
  -1   8 -10 86.0695 223.168   4
   1   8  10-186.235 271.908   5
   1   8  11 18968.7 1421.07   5
  -1   8 -11 20583.7 1301.10   4
  -1  -8 -11 20535.3 1506.69   3
   1   8  12 2505.45 573.147   5
  -1  -8 -12 3133.75 626.344   3
  -1   8 -12 2917.11 520.856   4
   1   9  -9 7090.39 810.656   4
  -1   9   9 8541.43 1095.84   4
   1  -9  -9 9086.57 1008.36   3
   1   9  -8 42328.8 2030.38   4
  -1   9   8 46828.5 2520.93   4
   1  -9  -8 44641.5 2171.90   3
   1   9  -7 44638.0 2123.95   4
  -1   9   7 48189.4 2536.74   4
   1  -9  -7 45811.7 2125.49   3
   1   9  -6 29380.5 1724.78   4
   1  -9  -6 27447.5 1587.91   3
  -1   9   6 28772.6 1925.87   4
  -1   9   5 2212.06 598.736   4
   1   9  -5 2206.33 526.326   4
   1  -9  -5 2531.89 479.207   3
  -1   9   4 9054.42 1075.96   4
   1   9  -4 8137.01 944.858   4
   1  -9  -4 8080.88 802.074   3
  -1  -9   3 14816.5 877.835   3
   1  -9  -3 16827.9 1114.89   3
   1   9  -3 18436.5 1413.43   4
  -1   9   3 18596.3 1493.16   4
  -1  -9   2 7184.07 631.474   3
  -1   9   2 7544.24 944.400   4
   1   9  -2 7810.70 958.999   4
   1  -9  -2 7201.18 714.476   3
   1   9  -1 7341.91 925.459   4
  -1   9   1 9107.23 1016.53   4
   1  -9  -1 9044.58 774.554   3
  -1  -9   1 8596.11 715.697   3
  -1  -9   0 6791.38 658.946   3
  -1   9   0 7003.44 866.553   4
   1   9   0 7775.56 980.636   4
   1  -9   0 7619.01 688.991   3
   1  -9   1 25424.7 1217.62   3
   1   9   1 24780.6 1752.59   4
  -1   9  -1 26202.3 1663.04   4
  -1  -9  -1 26737.3 1340.82   3
   1   9   2 12614.7 1264.88   4
  -1  -9  -2 11281.5 895.980   3
  -1   9  -2 10941.5 1069.90   4
  -1   9  -3 6596.68 840.549   4
   1   9   3 7345.72 986.729   4
  -1  -9  -3 6513.86 707.949   3
   1   9   4 3644.23 769.534   4
  -1  -9  -4 4620.92 613.052   3
  -1   9  -4 5351.87 740.466   4
   1   9   5 27263.4 1697.02   5
  -1   9  -5 29990.0 1727.43   4
  -1  -9  -5 31847.6 1651.81   3
   1   9   6-34.9791 263.552   5
  -1  -9  -6-298.942 286.110   3
  -1   9  -6 263.713 277.076   4
   1   9   6 254.499 336.860   4
   1   9   7 7762.39 908.630   5
  -1   9  -7 7877.68 872.257   4
  -1  -9  -7 7155.35 829.552   3
   1   9   8 2799.10 591.353   5
  -1  -9  -8 3457.49 613.923   3
  -1   9  -8 3844.47 610.298   4
  -2   0  22 66858.0 2486.21   5
   2   0 -22 72275.0 3090.59   1
  -2   0  21 117.179 201.698   5
   2   0 -21 683.442 405.654   1
   2   0 -20 3626.53 641.572   1
  -2   0  20 3488.13 524.572   5
  -2   0  19-179.545 190.613   5
   2   0 -19 185.207 152.601   2
   2   0 -19-72.8052 288.460   1
   2   0 -18 2166.75 343.081   2
  -2   0  18 2065.87 365.352   5
   2   0 -17-42.7079 123.111   2
  -2   0  17 39.3004 166.007   5
   2   0 -16 157535. 3177.74   2
  -2   0  16 152550. 3316.03   5
   2   0 -15 357.868 67.1593   4
  -2   0  15 114.731 186.586   5
   2   0 -15-8.22485 155.167   2
  -2   0  14 292144. 4759.27   5
   2   0 -14 302787. 4695.20   2
  -2   0  13 233.991 133.362   3
   2   0 -13 172.387 52.2937   4
   2   0 -13-74.2257 112.722   2
  -2   0  13-41.4393 126.620   5
  -2   0  12 44702.2 1438.29   3
   2   0 -12 44125.0 1349.38   2
   2   0 -12 41363.6 768.990   4
  -2   0  12 45112.3 1372.08   5
   2   0 -11 119.274 35.6344   4
  -2   0  11 102.565 99.5496   5
   2   0 -11 21.5253 83.2460   2
  -2   0  10 4464.22 369.973   5
   2   0 -10 5019.03 408.347   2
   2   0  -9 67.4369 99.0081   2
  -2   0   9-12.4808 64.8472   5
  -2   0   9 80.5731 88.4529   3
  -2   0   8 133106. 2286.01   5
   2   0  -8 137432. 2473.01   2
  -2   0   8 135852. 2514.32   3
  -2   0   7 325.367 102.672   3
  -2   0   7 184.595 73.3534   5
   2   0  -6 358247. 4882.88   2
  -2   0   6 344922. 4889.55   3
  -2   0   6 342447. 4571.28   5
   2   0  -5 65.9579 68.1643   2
  -2   0   5 162.736 44.8642   4
  -2   0   5 16.2142 71.2459   3
  -2   0   4 594161. 7140.33   4
  -2   0   4 610788. 7630.60   2
   2   0  -4 596862. 7651.36   2
   2   0  -3-19.9038 62.9084   2
  -2   0   3 130.860 79.1772   2
   2   0  -2 315277. 4327.26   2
   2   0  -1 41.9742 61.7466   2
   2   0   0 31881.8 869.286   2
   2   0   1 125.736 72.2125   2
  -2   0  -1 31.7207 56.6915   5
  -2   0  -1-8.57049 40.1143   1
   2   0   2 18253.2 634.817   2
  -2   0  -2 18517.3 629.736   2
  -2   0  -2 17576.8 604.090   5
   2   0   3 125.666 81.9143   5
  -2   0  -3 28.9460 62.4135   2
   2   0   4 469798. 6197.83   2
   2   0   4 490629. 6399.31   5
  -2   0  -4 478225. 6217.65   2
   2   0   5 178.318 90.2713   2
  -2   0  -5 146.216 97.5917   2
   2   0   5 198.927 113.616   5
  -2   0  -6 783788. 9781.25   3
   2   0   6 779088. 10103.6   5
  -2   0  -6 792233. 9772.60   2
  -2   0  -7 20.7357 67.9448   3
  -2   0  -7-20.5512 79.3037   2
   2   0   7-13.1258 96.0250   5
  -2   0  -8 13844.9 621.760   2
   2   0   8 13784.7 744.363   5
  -2   0  -8 13875.8 602.332   3
  -2   0  -9 35.8479 60.5121   3
  -2   0  -9-131.743 84.1174   2
   2   0   9-62.8012 126.331   5
  -2   0 -10 36204.1 1100.43   2
  -2   0 -10 35371.2 1048.81   3
  -2   0 -10 35416.2 1319.78   5
   2   0  10 35113.5 1334.15   5
  -2   0 -11 252.115 111.869   2
  -2   0 -11 42.8560 79.2354   3
   2   0  11 116.135 169.659   5
  -2   0 -12 462550. 6435.80   2
   2   0  12 469300. 7178.82   5
  -2   0 -12 445471. 6355.60   3
  -2   0 -13 301.585 151.346   3
  -2   0 -13 330.232 164.261   2
   2   0  13 280.730 236.384   5
   2   0  14 299360. 5445.77   5
  -2   0 -14 292723. 4681.52   2
  -2   0 -14 294001. 4618.20   3
  -2   0 -15-92.0096 119.674   3
  -2   0 -15 103.324 139.707   2
   2   0  15 145.966 218.737   5
  -2   0 -16 8655.98 615.726   2
  -2   0 -16 7675.05 863.901   1
  -2   0 -16 8185.54 591.852   3
   2   0  16 8132.37 796.760   5
  -2   0 -17 5.23357 110.607   3
   2   0  17 17.5557 182.505   5
  -2   0 -17 25.3004 252.663   1
  -2   0 -18 14850.7 1284.62   1
   2   0  18 15792.8 1174.02   5
  -2   0 -18 14794.7 850.936   3
  -2   0 -19 134.328 144.425   3
   2   0  19-191.767 282.109   5
  -2   0 -19 41.2173 232.083   1
   2   0  20 71123.0 2741.24   5
  -2   0 -20 69775.8 3036.66   1
  -2   0 -20 66797.1 2030.41   3
  -2   0 -21-53.8166 266.319   1
   2   0  21 321.779 265.886   5
   2  -1 -22 11972.4 1240.24   1
  -2  -1  22 10466.8 985.319   5
  -2   1  22 12020.0 1053.17   5
   2  -1 -21 6759.27 880.739   1
  -2   1  21 6097.93 729.278   5
  -2  -1  21 6523.84 734.806   5
   2  -1 -20 17661.9 1396.11   1
  -2  -1  20 18815.4 1182.54   5
   2  -1 -20 19026.8 1143.78   2
  -2   1  20 16100.9 1127.84   5
   2  -1 -19 21140.5 1481.46   1
  -2   1  19 20135.0 1227.66   5
   2  -1 -19 21535.4 1194.71   2
  -2  -1  19 20406.5 1191.26   5
   2  -1 -19 21366.9 1273.09   3
   2   1 -18 16366.0 811.070   2
  -2   1  18 17442.0 1102.77   5
  -2  -1  18 18175.2 1067.41   5
   2  -1 -18 17702.1 1056.12   2
   2  -1 -18 15402.5 1210.58   1
   2  -1 -18 16651.8 1099.96   3
   2   1 -17 35651.3 1200.11   2
  -2   1  17 35478.2 1534.53   5
   2  -1 -17 35328.4 1579.21   3
  -2  -1  17 35295.2 1460.24   5
   2  -1 -17 32952.7 1715.48   1
  -2   1  16 112727. 2833.90   5
   2  -1 -16 112761. 2221.25   4
   2   1 -16 113075. 2353.96   2
  -2  -1  16 111904. 2689.50   5
   2  -1 -16 114403. 2938.67   3
   2  -1 -16 108902. 3159.92   1
  -2  -1  15 64148.0 1818.43   3
  -2   1  15 61297.0 1947.46   5
   2  -1 -15 61399.8 1521.96   4
   2  -1 -15 63612.1 2054.23   3
   2   1 -15 64738.1 1637.36   2
  -2  -1  15 64472.3 1864.03   5
   2  -1 -15 59581.0 2173.80   1
  -2  -1  14 134055. 2772.83   5
  -2   1  14 129417. 2912.13   5
   2   1 -14 128296. 2498.23   2
   2  -1 -14 128382. 3231.31   1
   2  -1 -14 133527. 3049.27   3
  -2  -1  14 129267. 2731.62   3
   2  -1 -14 125135. 2399.63   4
   2  -1 -13 20309.9 1122.95   1
  -2  -1  13 20494.2 916.272   5
   2   1 -13 21342.2 849.601   2
  -2   1  13 21176.1 1000.09   5
   2  -1 -13 22668.4 1095.49   3
  -2  -1  13 21702.2 947.676   3
   2  -1 -13 20398.0 797.896   4
   2  -1 -12 24106.3 1164.54   1
  -2   1  12 24455.2 1033.82   5
   2   1 -12 23176.0 865.771   2
  -2  -1  12 23063.3 923.313   5
   2  -1 -12 24179.0 1096.15   3
   2  -1 -12 21706.1 813.496   4
  -2   1  11 16336.2 854.126   3
  -2  -1  11 15920.5 706.621   5
   2  -1 -11 14803.2 642.695   4
   2  -1 -11 16560.6 913.507   1
   2   1 -11 17550.8 714.876   2
   2  -1 -11 16279.2 856.818   3
  -2   1  11 16334.4 798.317   5
  -2   1  10 2932.12 335.693   5
   2   1 -10 2729.45 275.089   2
   2  -1 -10 3280.45 298.652   4
   2  -1 -10 3101.78 361.394   3
  -2  -1  10 2855.13 309.110   3
  -2  -1  10 2751.11 276.116   5
  -2   1  10 3184.82 367.340   3
  -2   1   9 24470.8 911.478   5
   2   1  -9 24006.1 822.852   2
   2  -1  -9 23873.2 813.112   4
   2  -1  -9 24833.3 1007.99   1
   2  -1  -9 24043.7 988.191   3
  -2  -1   9 23977.9 889.257   3
  -2  -1   9 24665.2 786.773   5
  -2   1   8 286378. 3215.58   5
   2   1  -8 287178. 3012.82   2
  -2  -1   8 286590. 2743.58   5
  -2   1   8 283672. 2535.49   4
   2  -1  -8 281175. 3462.76   3
  -2  -1   8 284247. 3192.16   3
   2  -1  -8 291132. 3459.15   1
  -2  -1   7 305510. 4354.30   3
   2  -1  -7 288841. 4490.01   3
  -2   1   7 289233. 4402.96   3
   2   1  -7 291821. 4153.72   2
  -2  -1   7 297599. 3919.84   5
  -2   1   7 295183. 3879.88   4
   2  -1  -7 282495. 4114.38   4
   2  -1  -7 299197. 4389.04   1
   2  -1  -6 138407. 2247.36   4
   2  -1  -6 141032. 2395.88   1
   2   1  -6 133674. 2284.23   2
  -2  -1   6 138274. 2303.30   2
   2  -1  -6 139092. 2556.66   3
  -2  -1   6 137656. 2005.19   5
  -2   1   6 137487. 2089.61   4
   2  -1  -5 37332.4 938.714   1
   2  -1  -5 37860.9 940.577   4
  -2   1   5 37111.7 885.477   4
  -2  -1   5 37524.2 969.662   2
   2  -1  -5 36047.1 1080.34   3
  -2  -1   5 37314.4 703.937   5
   2   1  -5 34988.6 938.964   2
  -2  -1   4 88154.7 1645.59   2
  -2   1   4 85259.1 1600.40   4
   2  -1  -4 89890.9 1558.85   4
  -2  -1   4 83573.3 1211.16   4
   2  -1  -4 85541.0 1447.51   1
   2  -1  -4 89953.8 1782.37   2
   2  -1  -4 84737.3 1725.71   3
   2   1  -4 82912.8 1589.03   2
   2  -1  -3 72389.8 1551.07   2
  -2  -1   3 74048.2 1480.18   2
  -2   1   3 70032.5 1423.83   4
   2   1  -3 70058.9 1435.46   2
  -2   1   3 70804.3 1172.09   1
  -2   1   2 79716.7 1515.81   4
  -2  -1   2 79937.2 1566.77   2
   2  -1  -2 82606.9 1631.54   2
   2   1  -2 77466.5 1522.43   2
  -2   1   2 78777.2 1174.29   1
   2   1  -1 155357. 2539.36   2
   2  -1  -1 159573. 2605.58   2
   2  -1   0 770527. 9386.73   2
   2   1   0 756241. 9363.10   2
  -2  -1   0 731548. 8864.35   5
   2   1   0 733928. 8932.33   5
  -2   1  -1 421628. 5412.57   2
   2   1   1 422175. 5529.10   2
   2  -1   1 418780. 5501.71   2
   2   1   1 413313. 5228.92   5
  -2  -1  -1 416425. 5182.43   5
   2  -1   2 180896. 2738.77   2
   2   1   2 179217. 2645.66   5
  -2   1  -2 185997. 2699.28   2
  -2  -1  -2 177523. 2605.70   5
   2   1   2 175021. 2801.19   2
   2   1   2 178905. 2728.13   1
  -2  -1  -3 59345.0 1340.71   1
  -2   1  -3 61269.4 1242.03   2
  -2  -1  -3 57727.9 1236.90   5
   2   1   3 58909.8 1337.79   2
   2   1   3 58971.7 1323.26   1
   2  -1   3 62336.9 1280.56   2
   2   1   3 59132.3 1270.97   5
  -2  -1  -4 97148.0 1909.46   2
   2   1   4 98184.3 1864.26   5
   2   1   4 98226.0 1941.11   1
   2  -1   4 98518.8 1738.96   2
  -2  -1  -4 98837.4 1835.86   5
  -2  -1  -4 93623.9 1940.23   1
  -2   1  -4 98290.4 1727.05   2
   2   1   5 247091. 3790.22   5
   2  -1   5 247924. 3508.80   2
  -2  -1  -5 253419. 3759.18   5
  -2  -1  -5 248360. 3956.01   1
  -2  -1  -5 247178. 3799.10   2
  -2  -1  -5 245517. 3856.50   3
  -2   1  -5 250182. 3503.21   2
  -2   1  -6 190994. 2727.80   3
  -2  -1  -6 187455. 3121.05   2
   2  -1   6 191224. 2818.08   2
   2   1   6 183380. 3167.36   5
  -2   1  -6 185211. 2811.49   2
  -2  -1  -6 185052. 3171.47   3
  -2  -1  -6 185083. 3337.40   1
  -2  -1  -7 21552.5 852.388   2
  -2  -1  -7 21524.8 984.864   1
   2  -1   7 22224.2 951.445   5
  -2   1  -7 21937.3 702.693   2
   2   1   7 22753.7 921.784   5
  -2   1  -7 23468.1 662.806   3
  -2  -1  -7 21495.1 866.273   3
  -2  -1  -8 79627.3 1844.27   2
  -2   1  -8 80175.4 1575.84   2
  -2   1  -8 81037.9 1466.45   3
  -2  -1  -8 78484.0 1827.43   3
   2  -1   8 83238.2 2051.17   5
   2   1   8 83113.2 1995.51   5
  -2  -1  -8 81705.6 2152.56   1
  -2  -1  -9 1598.46 303.490   1
  -2   1  -9 1234.26 252.208   5
   2  -1   9 1484.33 274.537   5
  -2  -1  -9 1839.33 260.350   3
  -2   1  -9 1722.63 179.967   3
  -2  -1  -9 2104.40 279.344   2
  -2   1  -9 1590.83 193.722   2
   2   1   9 1596.30 278.314   5
  -2  -1 -10 9173.41 587.077   2
   2  -1  10 8710.84 657.038   5
  -2  -1 -10 8783.36 715.953   1
  -2  -1 -10 8075.81 542.504   3
   2   1  10 8686.90 645.122   5
  -2   1 -10 9171.69 466.625   2
  -2   1 -10 6319.77 363.209   3
  -2   1 -10 8942.09 646.794   5
  -2   1 -11 1202.05 171.450   3
   2   1  11 1259.65 282.910   5
  -2   1 -11 1055.82 175.770   2
  -2  -1 -11 1277.10 251.286   2
  -2  -1 -11 1141.49 220.729   3
  -2  -1 -11 1197.50 289.236   1
   2  -1  11 1047.56 263.959   5
  -2  -1 -12 125253. 2676.25   2
  -2  -1 -12 130924. 2688.66   3
   2  -1  12 129373. 3049.52   5
  -2   1 -12 129185. 2322.71   2
   2   1  12 129036. 3019.52   5
  -2  -1 -12 124931. 3271.98   1
  -2   1 -12 130208. 2259.20   3
   2   1  13 224178. 4424.76   5
  -2   1 -13 222593. 3527.32   2
  -2  -1 -13 221222. 3966.28   2
   2  -1  13 223781. 4444.56   5
  -2   1 -13 226734. 3472.31   3
  -2  -1 -13 239254. 4045.16   3
  -2  -1 -13 209283. 4680.92   1
  -2  -1 -14 100177. 3058.76   1
  -2  -1 -14 93786.3 2335.75   2
   2   1  14 97526.7 2727.59   5
  -2  -1 -14 96036.3 2332.13   3
  -2   1 -14 99080.3 2019.31   2
  -2   1 -14 102709. 2009.60   3
   2  -1  14 103494. 2804.12   5
  -2  -1 -15 710.317 287.353   1
  -2   1 -15 638.844 168.076   3
   2  -1  15 854.059 280.716   5
   2   1  15 173.800 162.598   5
  -2   1 -15 436.376 139.067   2
  -2  -1 -15 604.452 203.606   3
   2  -1  16 11885.6 963.782   5
   2   1  16 11115.2 924.861   5
  -2   1 -16 12206.4 643.861   3
  -2  -1 -16 11904.3 780.073   3
  -2  -1 -16 12819.1 1118.61   1
  -2  -1 -17 2056.05 488.590   1
  -2   1 -17 1156.65 226.343   3
   2  -1  17 898.408 317.422   5
  -2  -1 -17 1383.36 278.849   3
   2   1  17 2082.09 451.000   5
  -2  -1 -18 9104.84 1016.80   1
  -2  -1 -18 8079.06 676.156   3
   2  -1  18 7049.95 820.218   5
  -2   1 -18 7224.94 534.866   3
   2   1  18 8166.26 862.727   5
   2  -1  19 215.778 264.030   5
  -2  -1 -19 470.233 223.430   3
  -2  -1 -19 116.103 229.731   1
   2   1  19 362.325 249.124   5
  -2  -1 -20 31354.5 2038.96   1
   2  -1  20 33557.3 1841.14   5
   2   1  20 31865.8 1810.15   5
  -2  -1 -20 32977.2 1487.15   3
  -2  -1 -21 24603.8 1850.11   1
  -2  -1 -21 23717.7 1289.13   3
  -2   1 -21 24019.6 1836.35   1
   2  -1  21 25125.0 1652.03   5
   2   1  21 25489.7 1663.92   5
  -2   2  21 1620.89 425.034   5
   2  -2 -21 1938.02 452.905   3
  -2  -2  21 1255.06 371.639   5
   2  -2 -21 1582.18 399.605   2
   2  -2 -21 1373.11 455.756   1
   2  -2 -20 454.306 288.192   3
   2  -2 -20-92.6385 291.193   1
  -2   2  20 667.649 287.963   5
  -2   2  19 26073.8 1465.71   5
   2  -2 -19 23550.2 1432.36   3
   2  -2 -19 25849.5 1653.26   1
  -2  -2  19 25712.1 1359.86   5
  -2   2  18 297.642 214.277   5
   2  -2 -18-92.4860 242.395   1
   2  -2 -18-147.721 225.619   3
  -2  -2  18 168.825 211.576   5
   2  -2 -17 27308.0 1579.12   1
  -2  -2  17 24654.9 1236.16   5
   2  -2 -17 29998.1 1506.89   3
  -2   2  17 27814.2 1422.27   5
   2  -2 -16 38224.5 1439.72   4
   2   2 -16 39573.2 1085.08   2
  -2  -2  16 43953.2 1596.65   5
   2  -2 -16 42599.7 1914.92   1
   2  -2 -16 43647.4 1783.41   3
  -2   2  16 40500.8 1682.29   5
  -2   2  15 232285. 4509.75   5
   2  -2 -15 235867. 4944.96   1
  -2  -2  15 238894. 3971.12   3
   2  -2 -15 243614. 4738.31   3
  -2  -2  15 245693. 4284.46   5
   2   2 -15 245779. 3600.10   2
  -2   2  14 13581.9 875.563   5
   2  -2 -14 12326.0 878.566   3
  -2  -2  14 11307.0 734.524   5
   2  -2 -14 11025.6 889.298   1
   2  -2 -14 11534.7 744.987   4
   2   2 -14 11894.6 554.935   2
   2   2 -14 11207.0 727.199   5
   2   2 -13 28722.9 879.975   2
   2  -2 -13 24623.8 1097.94   4
  -2   2  13 29849.6 1263.37   5
   2  -2 -13 27307.1 1348.53   1
   2  -2 -13 28084.0 1289.02   3
  -2  -2  13 28814.5 1094.98   5
  -2   2  12 735.218 206.921   5
  -2  -2  12 735.816 162.707   3
   2  -2 -12 822.151 207.606   4
  -2  -2  12 500.190 162.921   5
   2   2 -12 669.142 140.149   2
   2  -2 -12 841.680 245.492   3
   2  -2 -12 1091.86 284.375   1
   2   2 -12 44.3834 95.2305   5
  -2  -2  11 15026.8 692.499   5
   2  -2 -11 14689.7 808.686   4
  -2  -2  11 15137.0 711.255   3
   2   2 -11 15225.4 607.614   2
   2  -2 -11 15483.0 891.829   3
  -2   2  11 14962.1 830.142   5
   2  -2 -11 14900.2 903.673   1
   2   2 -11 15842.4 711.768   5
   2   2 -10 60440.9 1391.60   5
   2  -2 -10 52750.2 1613.49   4
   2  -2 -10 57597.3 1745.67   3
  -2   2  10 57421.6 1425.44   4
  -2  -2  10 54932.6 1433.23   3
   2   2 -10 56994.7 1281.95   2
  -2  -2  10 57411.6 1374.14   5
  -2   2  10 59346.9 1722.85   3
  -2   2  10 56714.9 1659.13   5
   2   2  -9 45362.4 819.793   4
  -2   2   9 56853.3 1345.75   4
  -2  -2   9 57730.3 1407.63   3
   2  -2  -9 59350.9 1695.07   3
   2  -2  -9 51971.2 1569.67   4
   2   2  -9 43873.7 1126.57   5
  -2  -2   9 59684.5 1277.12   5
  -2   2   9 61347.1 1659.11   3
  -2   2   9 60811.7 1620.04   5
   2   2  -9 59817.3 1256.40   2
   2  -2  -8 44259.4 1415.71   4
   2  -2  -8 45918.7 1403.33   1
  -2   2   8 47459.7 1198.68   4
  -2  -2   8 45796.1 1103.60   2
  -2  -2   8 45026.9 1220.24   3
   2   2  -8 43913.9 1012.63   5
  -2  -2   8 44866.1 1034.90   5
   2   2  -8 44969.2 1078.41   2
  -2   2   8 49927.5 1424.33   3
   2   2  -8 42143.6 802.370   4
   2  -2  -8 48568.3 1481.92   3
  -2   2   7 394054. 5305.42   4
  -2  -2   7 388551. 5180.70   2
  -2  -2   7 375273. 4828.31   4
   2  -2  -7 386442. 5726.32   3
   2   2  -7 385450. 5117.79   2
  -2  -2   7 391326. 4941.24   5
   2   2  -7 395388. 4897.24   5
   2   2  -7 377914. 4772.12   4
   2   2  -6 3411.82 192.274   5
  -2  -2   6 3323.43 229.801   4
   2  -2  -6 3606.86 363.907   3
   2  -2  -6 3210.17 347.289   4
  -2   2   6 3133.00 285.201   4
  -2   2   6 3652.69 321.342   1
  -2  -2   6 2939.07 270.627   2
   2   2  -6 3089.56 253.934   2
  -2  -2   5 4779.25 347.017   2
  -2   2   5 4719.38 359.520   4
  -2  -2   5 5301.76 276.218   4
   2   2  -5 4417.23 308.680   2
   2  -2  -5 5200.04 420.077   3
   2   2  -5 4634.03 184.938   5
   2  -2  -5 4655.69 415.950   4
  -2   2   5 4749.30 347.314   1
  -2   2   4 45271.5 1253.27   4
  -2  -2   4 42548.1 917.827   4
  -2   2   4 44180.0 1090.13   1
   2   2  -4 43338.5 1049.40   2
   2  -2  -4 46109.5 1271.64   3
  -2  -2   4 45546.8 1146.77   2
   2  -2  -4 45437.7 1317.85   4
  -2  -2   3 330905. 4696.15   2
   2  -2  -3 337218. 4975.75   4
  -2   2   3 330101. 4948.65   4
  -2  -2   3 337240. 4387.18   4
   2   2  -3 338916. 4562.86   2
   2  -2  -3 331983. 4810.93   3
  -2   2   3 330523. 4633.44   3
   2  -2  -2 71130.9 1690.03   4
  -2  -2   2 68893.6 1341.31   4
   2   2  -2 66618.0 1413.67   2
  -2   2   2 69704.4 1672.92   4
   2  -2  -2 70901.0 1551.03   3
  -2  -2   2 69776.2 1523.86   2
  -2   2   2 68888.0 1413.51   3
   2   2  -1 8052.81 258.824   5
   2  -2  -1 8807.94 464.090   3
  -2  -2   1 8234.86 468.927   2
  -2   2   1 8819.36 414.035   3
   2  -2  -1 9131.82 535.267   4
  -2  -2   1 8332.55 413.877   4
   2   2  -1 7946.21 427.618   2
  -2  -2   0 27728.5 833.198   4
   2   2   0 26308.3 833.700   2
   2  -2   0 26811.6 889.138   2
  -2   2   0 26126.8 728.549   3
  -2  -2   0 27195.8 914.205   2
  -2  -2  -1 90944.6 1804.59   4
   2  -2   1 91643.9 1794.65   2
  -2   2  -1 90285.5 1538.80   3
   2   2   1 91864.3 1529.06   5
  -2  -2  -2 21393.2 794.333   4
   2  -2   2 20522.0 714.369   2
   2   2   2 21257.6 656.978   5
  -2   2  -2 20927.3 571.931   3
  -2  -2  -2 19442.6 626.990   5
   2  -2   3 70441.3 1449.99   2
  -2  -2  -3 70917.9 1703.20   3
   2   2   3 71350.8 1673.39   1
  -2  -2  -3 70771.0 1426.59   5
   2   2   3 67093.8 1440.43   5
  -2   2  -3 68379.0 1183.04   3
   2   2   4 295790. 4292.85   5
  -2  -2  -4 294126. 4617.80   3
  -2   2  -4 304789. 4004.29   2
  -2  -2  -4 292334. 4245.98   5
   2   2   4 293413. 4561.97   1
   2  -2   4 298906. 4123.53   2
  -2  -2  -5 379729. 5651.50   3
  -2  -2  -5 381950. 5650.21   2
  -2   2  -5 381493. 4906.39   2
   2  -2   5 378941. 5031.47   2
   2   2   5 378745. 5398.39   5
   2   2   5 383051. 5661.80   1
  -2  -2  -5 384710. 5340.61   5
  -2  -2  -6 5297.02 460.876   3
  -2  -2  -6 5436.44 460.770   2
   2   2   6 4721.85 406.627   5
   2   2   6 4570.93 434.561   1
   2  -2   6 5231.87 306.350   2
  -2  -2  -6 5033.30 406.281   5
  -2   2  -6 5379.82 287.061   2
   2  -2   7 24261.9 688.679   2
  -2  -2  -7 27396.3 1172.06   1
  -2  -2  -7 29374.9 1116.05   3
  -2  -2  -7 30522.6 1146.97   2
  -2   2  -7 27832.5 565.741   3
   2   2   7 27958.5 1051.20   5
  -2   2  -7 26714.2 688.261   2
  -2  -2  -7 28911.1 1045.42   5
  -2  -2  -8 32746.4 1174.73   5
  -2  -2  -8 31568.5 1321.29   1
  -2   2  -8 31799.1 622.431   3
  -2   2  -8 29865.7 739.720   2
  -2   2  -8 31529.8 1221.88   5
  -2  -2  -8 32680.8 1231.18   2
  -2  -2  -8 30675.8 1169.09   3
   2   2   8 32485.7 1192.75   5
  -2   2  -9 33433.3 787.172   2
  -2  -2  -9 34018.7 1300.30   2
  -2  -2  -9 33751.4 1441.25   1
  -2   2  -9 35113.1 1339.92   5
   2   2   9 33770.0 1275.15   5
  -2  -2  -9 33641.1 1248.42   3
  -2   2  -9 36186.7 703.037   3
  -2  -2  -9 31877.2 1237.71   5
   2   2  10 126.705 123.575   5
  -2  -2 -10 11.1530 130.728   1
  -2  -2 -10 60.0480 104.413   3
  -2   2 -10 23.5012 38.4544   3
  -2   2 -10-14.6356 56.9693   2
  -2  -2 -10-45.4713 89.9279   2
  -2  -2 -11 112096. 2612.90   2
  -2  -2 -11 110967. 2995.31   1
   2   2  11 108328. 2645.07   5
  -2   2 -11 105637. 1646.20   3
  -2  -2 -11 110432. 2522.14   3
  -2   2 -12 144503. 2111.05   3
  -2  -2 -12 150705. 3677.63   1
   2   2  12 142563. 3224.48   5
  -2   2 -12 136376. 2103.15   2
  -2  -2 -13 253040. 5205.61   1
   2   2  13 243720. 4667.99   5
  -2   2 -13 241255. 3300.82   3
  -2  -2 -13 259933. 4496.69   3
  -2   2 -14 23705.0 647.023   2
  -2   2 -14 26904.9 757.237   3
  -2  -2 -14 27654.6 1248.74   3
  -2  -2 -14 29294.5 1622.94   1
   2   2  14 27595.6 1384.27   5
   2   2  15 4534.04 589.401   5
  -2   2 -15 3876.95 282.636   3
  -2  -2 -15 5357.91 558.746   3
  -2  -2 -15 5286.27 719.599   1
  -2   2 -16 3365.76 285.251   3
  -2  -2 -16 3627.61 636.114   1
   2   2  16 4052.26 592.962   5
  -2  -2 -16 4115.80 508.018   3
  -2  -2 -17 13470.9 1215.17   1
  -2  -2 -17 12534.4 894.043   3
   2   2  17 13522.1 1084.11   5
   2   2  18-68.2252 213.677   5
  -2  -2 -18 160.255 269.225   1
  -2  -2 -18 5.82006 191.657   3
   2   2  19 2560.00 510.520   5
  -2  -2 -19 3701.39 519.000   3
  -2  -2 -19 3212.91 668.332   1
   2   2  20 3970.43 663.135   5
  -2  -2 -20 2952.43 503.417   3
  -2  -2 -20 4746.98 823.797   1
  -2  -2 -21 52192.8 2085.46   3
  -2  -2 -21 56052.7 2847.06   1
   2   2  21 54815.7 2488.42   5
  -2   3  21 504.429 282.651   5
   2  -3 -21-136.943 270.940   3
  -2   3  20 700.744 326.537   5
   2  -3 -20 1046.21 353.737   3
  -2   3  19 16036.4 1193.72   5
   2  -3 -19 13970.3 1138.03   3
  -2   3  18 13091.5 1052.00   5
   2  -3 -18 10758.5 985.740   3
   2  -3 -17 5989.23 713.692   3
  -2   3  17 5384.66 666.281   5
   2  -3 -16 13091.0 1024.41   3
  -2   3  16 13352.1 995.329   5
   2  -3 -15 272362. 5222.36   4
   2  -3 -15 276363. 5411.86   3
  -2   3  15 274553. 5237.47   5
   2  -3 -14 24160.6 1261.12   4
  -2   3  14 26225.1 1304.11   5
  -2  -3  14 27570.3 937.244   3
   2  -3 -14 27776.0 1403.60   3
   2   3 -14 29382.5 1168.25   5
  -2   3  13 23214.0 1199.18   5
   2  -3 -13 26484.6 1292.62   4
   2   3 -13 23727.3 632.306   4
   2   3 -13 25329.2 621.568   2
   2  -3 -13 27944.2 1372.94   3
  -2  -3  13 27005.0 927.549   3
   2   3 -12 4661.52 289.317   4
   2  -3 -12 6112.48 601.937   4
   2   3 -12 5217.73 276.132   2
   2  -3 -12 5028.00 574.054   3
  -2  -3  12 5543.33 409.421   3
   2   3 -12 5223.46 443.602   5
  -2   3  12 4487.76 510.928   5
   2  -3 -11 39791.0 1563.09   4
   2   3 -11 38724.3 964.378   4
   2   3 -11 41976.3 916.520   2
  -2  -3  11 42218.7 1188.97   3
   2  -3 -11 42452.1 1631.69   3
   2   3 -11 40797.7 1201.40   5
  -2   3  11 39896.6 1511.31   5
   2   3 -10 20238.4 679.877   4
   2  -3 -10 18850.8 1041.98   4
   2   3 -10 20668.2 613.673   2
  -2  -3  10 18346.9 765.169   3
   2  -3 -10 18964.9 1040.67   3
   2   3 -10 18917.0 732.855   5
   2  -3  -9 45658.6 1643.18   4
   2   3  -9 46622.8 1131.60   4
  -2  -3   9 45381.8 1085.05   2
   2   3  -9 47493.7 1031.89   2
   2  -3  -9 47303.6 1643.80   3
   2   3  -9 43780.6 1124.58   5
  -2  -3   8 6010.17 388.742   4
   2  -3  -8 6215.76 581.504   4
  -2   3   8 5217.50 477.349   1
  -2  -3   8 6604.84 390.620   2
   2   3  -8 6666.26 402.941   4
   2   3  -8 6494.52 353.814   2
   2  -3  -8 6464.34 571.869   3
  -2   3   8 5310.00 480.191   3
   2   3  -8 5942.86 348.904   5
   2   3  -7 270228. 3566.40   5
  -2   3   7 256012. 4265.37   1
   2   3  -7 265872. 3666.05   2
   2  -3  -7 265398. 4686.28   4
  -2  -3   7 265882. 3883.36   4
   2  -3  -7 262119. 4516.24   3
   2   3  -7 271997. 3890.01   4
  -2  -3   7 260956. 3845.19   2
  -2  -3   6 3945.62 328.480   2
  -2  -3   6 4472.14 350.794   4
   2   3  -6 4164.27 244.672   5
  -2   3   6 3863.38 379.043   4
   2   3  -6 4188.07 334.450   4
   2  -3  -6 3907.00 420.371   3
   2  -3  -6 4307.85 478.042   4
  -2   3   6 4042.09 386.817   1
   2   3  -6 4353.41 297.642   2
  -2   3   5 12501.7 691.236   4
   2  -3  -5 11762.7 767.694   4
  -2   3   5 11228.5 618.759   1
   2   3  -5 12896.9 534.978   2
   2  -3  -5 11831.9 700.184   3
   2   3  -5 10847.0 418.917   5
  -2  -3   5 12522.5 608.999   2
  -2   3   5 11468.8 618.307   3
  -2  -3   5 13364.5 586.766   4
   2   3  -5 13193.1 593.712   4
  -2   3   4 56729.2 1606.67   4
  -2  -3   4 56459.6 1311.48   4
   2   3  -4 57524.3 1379.12   4
   2  -3  -4 56683.1 1756.28   4
  -2   3   4 55950.4 1421.57   3
   2  -3  -4 55524.1 1573.64   3
  -2  -3   4 57242.5 1429.74   2
  -2  -3   3 467334. 6224.84   4
  -2   3   3 467167. 6816.60   4
   2  -3  -3 466182. 7018.68   4
   2   3  -3 474079. 6387.01   4
  -2  -3   3 479475. 6470.92   2
   2  -3  -3 475976. 6645.69   3
  -2   3   3 463799. 6321.31   3
  -2   3   2 67570.8 1476.76   3
   2  -3  -2 67717.1 1909.16   4
   2   3  -2 67657.4 1598.91   4
  -2  -3   2 70526.7 1666.16   2
   2  -3  -2 67068.0 1637.65   3
  -2  -3   2 67307.3 1486.68   4
  -2   3   2 67403.8 1846.41   4
   2   3  -1 309.874 124.366   4
   2  -3  -1 434.055 177.897   4
  -2   3   1 418.029 105.507   3
  -2  -3   1 304.415 113.702   4
   2  -3  -1 284.959 103.150   3
  -2  -3   0 26930.2 916.323   4
  -2  -3   0 25891.0 990.420   2
   2  -3   0 28011.4 906.884   3
   2  -3   0 28198.8 1155.89   4
  -2   3   0 27150.8 775.236   3
   2   3   0 25698.0 719.279   5
   2  -3   1 97764.1 1859.10   3
  -2  -3  -1 100724. 2036.11   4
  -2  -3  -1 99300.2 2188.49   2
  -2   3  -1 96709.9 1659.61   3
  -2  -3  -2 29615.8 1087.94   3
  -2  -3  -2 30208.1 1039.82   4
   2   3   2 29953.6 886.952   5
   2  -3   2 31459.0 1017.87   2
  -2   3  -2 31359.4 746.783   3
  -2  -3  -3 17495.2 797.111   4
  -2  -3  -3 15849.2 814.653   3
  -2   3  -3 16958.2 838.081   4
   2  -3   3 17954.7 714.654   2
  -2   3  -3 17145.5 484.399   3
   2   3   3 15449.1 648.795   5
  -2   3  -4 64015.8 1763.12   4
   2  -3   4 67113.3 1467.49   2
  -2  -3  -4 66684.3 1719.11   4
  -2   3  -4 67002.5 1077.55   3
   2   3   4 65859.7 1551.42   5
  -2  -3  -4 67605.7 1840.56   3
   2  -3   5 545126. 6867.64   2
  -2   3  -5 540807. 7565.62   4
  -2  -3  -5 539943. 7471.37   4
   2   3   5 517786. 7185.78   5
   2   3   5 546894. 7741.96   1
  -2   3  -5 521673. 6208.23   3
  -2  -3  -5 524081. 7660.29   3
  -2   3  -6 46221.0 1519.96   5
  -2   3  -6 47783.7 1525.15   4
  -2  -3  -6 50146.4 1522.74   4
   2   3   6 49725.8 1634.05   1
   2   3   6 46597.7 1387.64   5
   2  -3   6 47143.6 1090.38   2
  -2  -3  -6 48617.2 1580.71   3
   2   3   7 25737.3 1183.05   1
  -2  -3  -7 26730.5 1106.50   4
  -2   3  -7 23736.2 1058.28   4
   2   3   7 24734.8 1031.67   5
   2  -3   7 24129.2 682.570   2
  -2   3  -7 25313.4 1124.73   5
  -2  -3  -7 23822.0 1090.06   3
  -2  -3  -8 22844.7 1044.40   4
   2  -3   8 20350.3 555.226   2
  -2   3  -8 24241.3 1120.77   5
  -2   3  -8 19903.6 987.492   4
   2   3   8 21805.0 1007.23   5
  -2  -3  -8 20639.9 1026.97   3
  -2   3  -9 51120.3 1651.08   4
  -2  -3  -9 51316.4 1709.41   3
   2   3   9 50587.5 1653.58   5
  -2   3 -10 36486.7 1380.37   4
   2   3  10 36055.3 1419.37   5
  -2  -3 -10 33565.1 1393.05   3
  -2  -3 -11 84735.9 2366.82   3
  -2   3 -11 88547.5 2318.35   4
   2   3  11 87081.1 2412.72   5
  -2   3 -12 25667.0 1202.38   4
  -2  -3 -12 25442.9 1250.94   3
   2   3  12 27818.6 1338.90   5
  -2  -3 -13 213628. 4302.60   3
  -2   3 -13 205892. 4064.41   4
   2   3  13 204611. 4315.17   5
  -2   3 -14 22561.3 1149.41   4
  -2  -3 -14 25762.6 1315.38   3
   2   3  14 26302.9 1383.93   5
  -2   3 -15 24332.9 1226.63   4
  -2  -3 -15 25868.1 1338.00   3
   2   3  15 25090.8 1399.42   5
  -2   3 -16 4450.31 524.920   4
  -2  -3 -16 4398.49 555.434   3
   2   3  16 4404.20 614.627   5
  -2   3 -17 70606.9 2219.55   4
   2   3  17 67648.2 2534.30   5
  -2  -3 -17 69924.5 2365.62   3
  -2   3 -18 76.1181 182.885   4
  -2  -3 -18 39.5967 204.124   3
   2   3  18 35.9159 240.372   5
   2   3  19 20140.4 1438.73   5
  -2  -3 -19 18988.4 1248.93   3
  -2  -3 -20 1063.69 339.828   3
   2   3  20 2320.40 561.960   5
  -2   4  20 4531.55 717.623   5
   2  -4 -20 6196.71 848.903   3
   2  -4 -19 13906.8 1201.27   3
  -2   4  19 12519.5 1118.34   5
   2  -4 -18 6992.34 836.281   3
  -2   4  18 8474.16 875.513   5
   2  -4 -17 651.480 301.832   3
  -2   4  17 644.404 291.793   5
   2  -4 -16 54606.1 2261.37   3
  -2   4  16 53064.2 2123.22   5
   2  -4 -15 117944. 3393.01   3
  -2   4  15 116240. 3208.69   5
  -2   4  14 31641.5 1541.87   5
   2   4 -14 34114.5 1005.95   4
   2  -4 -14 36353.6 1748.04   3
   2   4 -14 38351.6 1375.12   5
   2  -4 -13 6951.13 738.850   3
   2   4 -13 6325.70 431.984   4
  -2  -4  13 6643.40 416.250   3
  -2   4  13 7128.59 701.387   5
   2   4 -12 42398.5 1329.54   5
   2   4 -12 41923.7 1238.32   4
  -2   4  12 47474.9 1684.35   4
  -2   4  12 48341.3 1826.53   5
  -2  -4  12 48227.3 1228.61   3
   2  -4 -12 46283.7 1903.85   3
  -2   4  11 29579.9 1371.42   5
  -2  -4  11 29327.9 947.687   3
   2   4 -11 29979.3 1039.74   5
  -2   4  11 28548.2 1245.27   4
   2  -4 -11 32069.8 1520.62   3
   2   4 -10 8527.76 558.418   4
  -2   4  10 9839.53 708.650   4
  -2  -4  10 10311.9 456.185   2
   2  -4 -10 11810.0 901.810   3
   2   4 -10 10914.9 582.772   5
  -2  -4   9 20669.8 866.194   4
  -2  -4   9 19873.6 713.427   2
  -2   4   9 21759.9 1055.19   4
   2   4  -9 21554.0 777.425   5
   2  -4  -9 21726.5 1203.42   3
  -2  -4   8 173633. 3106.76   4
   2  -4  -8 172727. 3839.78   4
  -2   4   8 164323. 3423.26   1
  -2  -4   8 167586. 2833.36   2
  -2   4   8 167015. 3399.97   4
   2   4  -8 164685. 3149.77   4
   2  -4  -8 169541. 3713.41   3
   2   4  -8 172167. 2771.56   5
  -2  -4   7 122556. 2495.83   4
  -2   4   7 120774. 2738.46   4
   2   4  -7 117264. 2536.64   4
   2  -4  -7 126078. 3137.13   4
  -2   4   7 113897. 2685.61   1
   2  -4  -7 120273. 2934.11   3
   2   4  -7 123681. 2125.62   5
  -2  -4   7 117560. 2302.49   2
  -2   4   6 23969.0 1081.77   1
  -2   4   6 25776.1 1144.57   4
  -2   4   6 26132.9 1053.62   3
  -2  -4   6 27354.0 1064.28   4
   2   4  -6 27168.2 1089.79   4
   2  -4  -6 26541.3 1311.97   4
   2  -4  -6 24474.7 1180.67   3
  -2  -4   6 28120.5 984.928   2
   2   4  -6 26152.7 814.378   5
   2  -4  -5 5262.52 577.677   4
  -2  -4   5 6683.51 502.970   4
  -2   4   5 4875.71 494.264   4
   2   4  -5 6250.87 506.836   4
  -2  -4   5 5295.81 439.279   2
   2  -4  -5 5183.46 529.127   3
  -2   4   5 4802.03 433.823   3
   2  -4  -4 1590.92 303.720   3
  -2   4   4 2016.69 276.705   3
   2  -4  -4 2399.11 405.272   4
  -2  -4   4 1767.87 254.341   4
  -2   4   4 2289.38 340.139   4
   2   4  -4 1784.37 274.487   4
  -2  -4   4 1829.11 262.418   2
  -2  -4   3 197218. 3417.37   2
  -2  -4   3 192480. 3335.24   4
  -2   4   3 185925. 3232.24   3
   2   4  -3 193505. 3541.13   4
   2  -4  -3 188412. 3606.23   3
  -2   4   3 192740. 3753.82   4
  -2   4   2 11246.5 756.773   4
  -2  -4   2 11918.0 643.468   4
   2   4  -2 11824.5 711.556   4
   2  -4  -2 11043.4 808.193   4
   2  -4  -2 9526.64 635.381   3
  -2   4   2 11126.7 580.510   3
  -2  -4   2 10211.7 644.318   2
  -2   4   1 1788.74 225.546   3
  -2  -4   1 1583.97 236.157   3
   2  -4  -1 1746.09 323.285   4
   2   4  -1 1528.60 270.335   4
   2  -4  -1 1747.40 262.631   3
  -2  -4   1 1576.14 247.606   4
  -2  -4   0 36093.6 1222.14   3
   2  -4   0 34674.0 1464.24   4
  -2  -4   0 37204.6 1212.25   4
   2   4   0 34195.8 1283.85   4
   2  -4   0 34471.5 1139.95   3
  -2   4   0 37597.1 1019.24   3
  -2  -4  -1 68660.5 1766.75   4
   2   4   1 66503.1 1912.20   4
  -2  -4  -1 66829.7 1784.30   3
   2  -4   1 67625.2 1608.47   3
   2  -4   1 69368.1 2114.17   4
  -2   4  -1 69049.8 1416.13   3
  -2  -4  -2 67024.4 1847.25   3
  -2   4  -2 65898.8 1992.18   4
   2  -4   2 68210.2 2089.84   4
  -2  -4  -2 69965.0 1803.62   4
  -2  -4  -2 69233.5 1907.97   2
   2   4   2 66543.0 1595.87   5
   2  -4   2 67570.9 1537.26   3
  -2   4  -2 67545.0 1333.68   3
  -2  -4  -3 3863.08 441.114   2
  -2   4  -3 3987.18 455.928   4
  -2  -4  -3 4700.19 451.714   4
   2  -4   3 4554.42 406.147   2
   2   4   3 4218.82 377.206   5
  -2  -4  -3 4486.32 471.490   3
  -2   4  -3 4273.77 262.937   3
  -2   4  -4 85014.7 2312.56   4
  -2  -4  -4 89666.8 2187.31   4
  -2  -4  -4 83523.3 2236.44   3
   2  -4   4 87158.1 1918.86   2
  -2   4  -4 85858.4 1418.88   3
  -2   4  -5 177934. 3606.67   4
  -2   4  -5 171437. 2320.10   3
   2   4   5 176558. 3230.90   5
   2  -4   5 176794. 2942.78   2
  -2  -4  -5 175869. 3555.29   3
  -2  -4  -6 16566.6 964.816   3
   2  -4   6 17235.9 679.480   2
   2   4   6 16930.4 857.009   5
  -2   4  -6 15863.8 933.667   4
   2  -4   7 408.492 110.269   2
   2   4   7 483.019 174.012   5
  -2  -4  -7 235.294 147.179   3
  -2   4  -7 505.324 200.124   4
   2   4   8 538.015 185.000   5
  -2   4  -8 297.244 154.439   4
  -2  -4  -8 351.418 175.976   3
   2  -4   8 380.950 88.3154   2
  -2   4  -9 48626.9 1724.34   4
  -2  -4  -9 46291.1 1745.17   3
   2   4   9 45538.0 1627.34   5
  -2   4 -10 10065.0 766.012   4
  -2  -4 -10 9853.80 803.107   3
   2   4  10 9513.02 753.632   5
   2   4  11 16799.3 1033.95   5
  -2  -4 -11 16071.6 1046.12   3
  -2   4 -11 16368.0 1011.84   4
  -2   4 -12 91092.3 2555.05   4
  -2  -4 -12 91655.3 2719.96   3
   2   4  12 92067.7 2666.58   5
  -2   4 -13 75592.4 2321.35   4
  -2  -4 -13 77313.0 2545.25   3
   2   4  13 75609.9 2466.03   5
   2   4  14 32136.2 1604.24   5
  -2   4 -14 29641.4 1417.05   4
  -2  -4 -14 31460.1 1582.01   3
   2   4  15 1203.72 352.913   5
  -2  -4 -15 594.263 226.766   3
  -2   4 -15 1075.49 302.224   4
  -2   4 -16 8873.02 791.981   4
  -2  -4 -16 9329.61 887.650   3
   2   4  16 9173.87 905.906   5
   2   4  17 36074.8 1870.05   5
  -2   4 -17 36882.1 1627.61   4
  -2  -4 -17 37547.4 1838.53   3
  -2  -4 -18 328.627 272.424   3
  -2   4 -18-5.16418 227.570   4
   2   4  18 143.233 263.686   5
  -2  -4 -19 3412.60 589.987   3
   2   4  19 4711.47 712.341   5
  -2   5  19 21012.0 1486.52   5
   2  -5 -19 20292.9 1537.75   3
   2  -5 -18-9.71075 228.195   3
  -2   5  18 186.548 272.052   5
   2  -5 -17 2159.97 507.901   3
  -2   5  17 2982.01 554.327   5
  -2   5  16 126524. 3617.37   5
   2  -5 -16 125297. 3808.98   3
  -2   5  15 474.374 322.825   5
   2  -5 -15 333.432 290.376   3
   2   5 -14 101359. 2280.03   4
   2  -5 -14 105206. 3335.75   3
  -2   5  14 107766. 3143.16   5
   2  -5 -13 180.596 223.606   3
  -2   5  13-31.0188 223.734   5
  -2   5  13-8.26353 158.161   4
   2   5 -13 79.6160 139.062   4
  -2   5  12 4350.44 553.497   4
   2   5 -12 4554.34 457.340   4
   2  -5 -12 5007.43 672.714   3
  -2   5  12 3277.55 521.093   5
  -2   5  11 15680.8 1019.19   4
   2   5 -11 15041.1 836.152   4
   2   5 -11 17160.3 803.053   5
  -2  -5  11 16434.0 692.311   3
   2  -5 -11 16559.2 1187.16   3
   2  -5 -10 4072.48 590.919   3
  -2  -5  10 4276.62 318.198   2
   2   5 -10 5226.50 505.147   4
  -2   5  10 4111.07 530.108   4
   2   5 -10 4993.10 420.812   5
   2  -5  -9 569.629 256.681   3
  -2  -5   9 865.454 247.433   4
   2   5  -9 658.604 160.332   5
   2   5  -9 929.624 236.368   4
  -2   5   9 293.323 169.947   4
  -2  -5   9 562.510 146.830   2
  -2  -5   8 131550. 2860.85   4
  -2   5   8 133089. 3194.70   4
   2   5  -8 126893. 2932.61   4
   2  -5  -8 128426. 3373.32   3
   2   5  -8 128933. 2472.47   5
  -2  -5   8 129751. 2510.63   2
  -2   5   7 31469.8 1420.41   4
   2   5  -7 29382.2 1307.16   4
   2   5  -7 29610.7 997.344   5
  -2  -5   7 31340.9 1269.53   4
   2  -5  -7 29619.8 1465.17   3
  -2  -5   7 30680.4 1099.27   2
  -2   5   6 63654.4 2075.99   4
   2   5  -6 62113.8 1995.23   4
  -2  -5   6 65561.7 1936.10   4
   2  -5  -6 61238.2 2114.66   3
  -2  -5   6 66535.3 1742.01   2
  -2  -5   5 17898.4 777.032   3
   2  -5  -5 17784.6 1067.17   3
  -2  -5   5 18372.1 974.801   4
  -2   5   5 19408.7 1101.47   4
   2   5  -5 18076.0 1040.05   4
  -2  -5   5 18165.7 865.436   2
  -2  -5   4 121043. 2764.38   4
  -2  -5   4 123647. 2430.19   3
  -2   5   4 121913. 3007.75   4
   2   5  -4 124898. 2971.73   4
   2  -5  -4 116067. 2934.66   3
  -2   5   3 6035.53 608.591   4
   2  -5  -3 6302.06 593.712   3
  -2  -5   3 5189.42 440.825   3
  -2  -5   3 6089.05 548.370   4
   2   5  -3 4956.62 544.565   4
  -2   5   3 6128.12 486.282   3
  -2  -5   2 137841. 2709.33   3
  -2  -5   2 138360. 2903.12   4
  -2   5   2 131104. 3139.69   4
   2   5  -2 139660. 3177.08   4
  -2  -5   2 131814. 2799.27   2
   2  -5  -2 128897. 2945.70   3
  -2   5   2 135229. 2612.54   3
  -2  -5   1 4167.43 415.782   3
  -2  -5   1 4836.30 469.339   4
   2   5  -1 4025.22 492.526   4
  -2  -5   1 3611.24 414.908   2
   2  -5  -1 3805.79 421.782   3
  -2   5   1 4246.43 374.226   3
  -2   5   1 4570.56 526.821   4
  -2  -5   0 4734.03 474.868   2
   2   5   0 5493.85 574.950   4
  -2   5   0 4816.17 379.704   3
  -2   5   0 4565.70 528.628   4
   2  -5   0 3892.07 406.722   3
  -2  -5   0 4687.51 456.870   3
  -2   5  -1 23654.0 1204.17   4
   2  -5   1 23274.6 948.527   3
  -2  -5  -1 24855.9 1124.03   2
  -2   5  -1 23318.1 823.109   3
   2   5   1 24319.0 1220.77   4
  -2  -5  -1 23013.2 1053.80   3
  -2   5  -2 654.347 134.788   3
   2   5   2 651.688 188.638   5
  -2  -5  -2 856.372 236.103   3
  -2   5  -2 516.846 175.562   4
   2   5   2 1127.03 281.770   4
   2  -5   2 625.666 157.649   3
  -2   5  -3 9817.45 468.444   3
  -2   5  -3 10192.2 791.779   4
   2  -5   3 9227.65 527.717   3
   2   5   3 9665.93 638.810   5
  -2  -5  -3 8422.49 663.392   3
  -2   5  -4 281735. 5230.63   4
  -2   5  -4 286014. 3930.81   3
   2  -5   4 300282. 4703.25   2
  -2  -5  -4 286756. 5047.78   3
   2   5   4 282274. 4739.78   5
   2   5   5 6498.62 556.662   5
  -2   5  -5 6927.81 674.789   4
   2  -5   5 7288.81 517.474   2
  -2  -5  -5 6622.12 623.557   3
  -2   5  -6 138039. 3333.77   4
   2  -5   6 137171. 2586.40   2
   2   5   6 143184. 3060.57   5
  -2  -5  -6 140581. 3291.57   3
   2  -5   7 1096.00 193.263   2
  -2  -5  -7 994.423 258.784   3
  -2   5  -7 1204.01 331.916   4
   2   5   7 1059.93 248.242   5
   2   5   8 2387.79 386.627   5
  -2   5  -8 2940.10 478.488   4
  -2  -5  -8 3337.75 489.620   3
   2  -5   8 2369.73 232.176   2
  -2   5  -9 17006.1 1081.50   4
  -2  -5  -9 15873.1 1065.29   3
   2   5   9 18183.5 1052.68   5
   2   5  10 3074.57 458.888   5
  -2  -5 -10 2917.41 480.387   3
  -2   5 -10 3191.88 482.385   4
   2   5  11 2026.43 422.331   5
  -2  -5 -11 1427.05 366.992   3
  -2   5 -11 1278.55 350.914   4
  -2  -5 -12 245580. 5295.25   3
   2   5  12 254356. 5146.03   5
  -2   5 -12 253134. 5094.88   4
  -2  -5 -13 7409.94 825.268   3
  -2   5 -13 7825.47 779.823   4
   2   5  13 6521.37 750.870   5
  -2  -5 -14 82600.3 2835.15   3
  -2   5 -14 83247.4 2660.95   4
   2   5  14 81067.5 2759.84   5
  -2  -5 -15 9545.11 945.939   3
  -2   5 -15 10031.5 885.219   4
   2   5  15 10234.6 977.608   5
  -2  -5 -16 1305.54 396.279   3
  -2   5 -16 1785.75 421.398   4
   2   5  16 1601.52 454.252   5
  -2  -5 -17 1444.69 445.881   3
   2   5  17 994.259 381.827   5
  -2   5 -17 1727.66 400.719   4
   2   5  18 2984.79 614.270   5
  -2  -5 -18 2775.20 570.390   3
  -2   6  17 2128.98 554.095   5
   2  -6 -17 3295.57 667.007   3
   2  -6 -16 40255.2 2206.37   3
  -2   6  16 38859.6 2018.73   5
  -2   6  15 20072.1 1416.93   5
   2  -6 -15 18824.2 1479.85   3
   2  -6 -14 65061.4 2742.94   3
  -2   6  14 64065.5 2538.97   5
   2   6 -13 6026.97 578.713   4
  -2   6  13 5700.19 737.274   4
   2  -6 -13 7615.12 915.260   3
  -2   6  13 5005.52 693.869   5
  -2   6  12 18138.2 1241.00   4
   2   6 -12 18350.9 1025.36   4
  -2   6  12 17823.1 1259.46   5
   2  -6 -12 18428.2 1384.35   3
   2  -6 -11 1353.58 411.095   3
  -2  -6  11 1125.21 167.461   3
   2   6 -11 1616.21 317.879   4
  -2   6  11 1927.35 416.016   4
   2  -6 -10 499.309 292.277   3
  -2  -6  10 239.675 87.7958   3
   2   6 -10 1027.32 278.226   4
  -2   6  10 638.179 267.646   4
  -2  -6   9 6219.98 417.527   3
   2   6  -9 7601.61 695.150   4
  -2   6   9 6847.71 744.550   4
   2  -6  -9 6446.21 759.461   3
   2   6  -9 7904.65 548.082   5
  -2  -6   8 80837.3 1774.74   3
  -2   6   8 81723.3 2654.10   4
   2   6  -8 81365.3 2443.43   4
   2  -6  -8 77490.3 2723.37   3
  -2  -6   8 81693.1 1998.56   2
   2   6  -8 85840.5 1990.98   5
   2  -6  -7 1558.66 404.990   3
  -2  -6   7 1297.76 223.729   3
  -2   6   7 1140.51 344.973   4
   2   6  -7 1711.25 360.242   4
   2   6  -7 994.351 193.192   5
  -2   6   6 84543.4 2667.69   4
   2   6  -6 86823.7 2620.29   4
  -2  -6   6 82228.9 1891.60   3
   2  -6  -5 1099.59 298.905   3
  -2  -6   5 1299.78 243.589   3
  -2   6   5 1158.04 335.528   4
   2   6  -5 1800.13 383.062   4
  -2  -6   5 1060.04 246.629   2
   2   6  -4 40170.9 1762.27   4
  -2  -6   4 39936.6 1428.47   2
   2  -6  -4 44587.1 1784.26   3
  -2   6   4 43662.7 1822.93   4
  -2  -6   4 41419.3 1330.97   3
  -2  -6   3 11170.1 685.720   3
  -2   6   3 11823.4 916.033   4
   2   6  -3 11365.5 922.881   4
  -2  -6   3 11329.6 735.511   2
   2  -6  -3 11772.4 862.399   3
   2   6  -2 28966.4 1481.16   4
   2  -6  -2 28871.2 1308.15   3
  -2   6   2 26148.2 1379.51   4
  -2  -6   2 28725.6 1136.24   3
  -2   6   1 5461.16 623.157   4
  -2   6   1 4626.45 435.441   3
   2   6  -1 4817.21 616.664   4
   2  -6  -1 4971.19 516.185   3
  -2  -6   1 5179.41 483.779   3
  -2   6   0 139664. 3400.06   4
  -2   6   0 131954. 2680.84   3
  -2  -6   0 136595. 2946.83   3
   2  -6   0 142587. 2973.33   3
   2   6   0 139902. 3553.76   4
   2   6   1 9821.09 881.553   4
   2  -6   1 9809.64 650.673   3
  -2   6  -1 9961.84 814.194   4
  -2  -6  -1 9167.52 688.536   3
  -2   6  -1 9254.15 578.462   3
  -2   6  -2 44092.5 1772.51   4
   2   6   2 46564.5 1956.22   4
   2  -6   2 46376.3 1404.77   3
  -2  -6  -2 44526.7 1598.69   3
  -2   6  -2 42414.4 1249.17   3
  -2  -6  -3 4767.32 532.076   3
  -2   6  -3 4129.60 350.925   3
   2   6   3 4237.51 595.714   4
   2  -6   3 5043.29 424.138   3
  -2   6  -3 4636.81 574.359   4
   2   6   3 3916.70 466.942   5
  -2   6  -4 40514.5 1704.40   4
  -2  -6  -4 38209.7 1564.34   3
   2  -6   4 40416.4 1165.62   3
   2   6   4 39463.7 1513.65   5
  -2   6  -5 13042.0 967.914   4
  -2  -6  -5 14230.1 958.524   3
   2  -6   5 13924.2 794.111   2
   2   6   5 14463.4 922.020   5
  -2   6  -6 79889.2 2526.82   4
  -2  -6  -6 82936.9 2509.50   3
   2  -6   6 82657.3 1996.57   2
   2   6   6 80470.2 2367.57   5
  -2   6  -7 10335.1 877.991   4
  -2  -6  -7 12883.7 970.864   3
   2  -6   7 11025.7 625.210   2
   2   6   7 12044.9 892.278   5
   2  -6   8 61540.7 1482.48   2
  -2   6  -8 63578.6 2259.07   4
  -2  -6  -8 63390.8 2275.43   3
   2   6   8 62152.2 2135.60   5
  -2  -6  -9 6473.38 733.621   3
  -2   6  -9 8541.49 812.662   4
   2  -6   9 5103.34 315.655   2
   2   6   9 7170.93 720.037   5
  -2  -6 -10 7376.58 811.113   3
  -2   6 -10 6682.51 739.101   4
   2   6  10 8381.10 803.493   5
  -2   6 -11 64560.9 2338.55   4
   2   6  11 57777.3 2212.95   5
  -2  -6 -11 59958.2 2450.07   3
  -2  -6 -12 27426.0 1650.96   3
  -2   6 -12 29012.8 1544.89   4
   2   6  12 28427.2 1561.32   5
  -2   6 -13 11427.8 982.651   4
  -2  -6 -13 11691.0 1093.48   3
   2   6  13 11814.4 1050.55   5
  -2  -6 -14 41418.2 2095.67   3
  -2   6 -14 40554.9 1870.37   4
   2   6  14 43617.6 2080.36   5
  -2   6 -15 11013.8 974.446   4
  -2  -6 -15 9914.73 1035.42   3
   2   6  15 12723.7 1138.20   5
  -2   6 -16 13237.2 1053.26   4
  -2  -6 -16 13566.7 1233.04   3
   2   6  16 13004.4 1196.92   5
  -2   7  15 36636.4 2031.02   5
   2  -7 -15 32603.3 2098.47   3
   2  -7 -14 16359.0 1461.87   3
  -2   7  14 18292.6 1418.15   5
   2  -7 -13 17242.9 1463.03   3
  -2   7  13 14448.4 1250.78   4
  -2   7  13 15933.3 1321.84   5
   2   7 -12 21253.3 1202.75   4
  -2   7  12 20959.8 1470.98   4
   2  -7 -12 20206.6 1558.85   3
  -2   7  12 20350.3 1463.48   5
   2  -7 -11 3394.87 636.848   3
   2   7 -11 3709.16 533.677   4
  -2   7  11 2511.47 522.683   4
  -2   7  10 8347.26 911.529   4
   2   7 -10 8857.51 804.458   4
   2  -7 -10 8432.68 970.675   3
   2   7  -9 9230.60 835.641   4
  -2   7   9 9660.79 978.786   4
   2  -7  -9 8950.73 961.587   3
  -2   7   8 6683.21 798.670   4
   2   7  -8 5306.90 659.214   4
   2  -7  -8 7983.79 892.633   3
  -2  -7   8 6710.88 459.630   3
  -2   7   7 82448.4 2878.61   4
   2   7  -7 84528.4 2722.51   4
   2  -7  -7 81734.7 2838.20   3
  -2  -7   7 82346.4 1868.30   3
  -2   7   6 24622.0 1520.80   4
   2   7  -6 25589.9 1458.78   4
   2  -7  -6 24212.9 1443.62   3
  -2  -7   6 23166.8 936.875   3
  -2  -7   5 742.942 212.829   3
   2  -7  -5 859.428 316.607   3
  -2   7   5 634.683 269.638   4
   2   7  -5 798.561 321.389   4
  -2   7   4 49520.0 2123.55   4
   2   7  -4 46660.8 2060.60   4
   2  -7  -4 48868.7 1943.72   3
  -2  -7   4 46704.1 1469.06   3
  -2   7   3 14668.5 1119.62   4
   2   7  -3 15702.6 1191.23   4
   2  -7  -3 15516.4 1026.76   3
  -2  -7   3 13995.1 794.760   3
  -2   7   2 35664.4 1739.08   4
   2   7  -2 32822.0 1750.73   4
   2  -7  -2 35869.2 1520.47   3
  -2  -7   2 33296.9 1294.61   3
   2  -7  -1 3272.85 434.452   3
   2   7  -1 3960.04 625.181   4
  -2  -7   1 3022.08 399.590   3
  -2   7   1 3159.21 523.039   4
  -2  -7   0 3989.76 472.153   3
  -2   7   0 5166.49 646.976   4
   2   7   0 4603.30 689.406   4
   2  -7   0 4633.79 508.753   3
  -2  -7  -1 56673.5 1865.38   3
   2   7   1 56026.2 2383.40   4
   2  -7   1 59837.0 1785.42   3
  -2   7  -1 56217.7 2144.08   4
  -2   7  -1 55063.3 1649.33   3
   2  -7   2 741.219 201.801   3
  -2  -7  -2 727.016 242.526   3
  -2   7  -2 568.016 160.357   3
  -2   7  -2 906.264 317.089   4
   2   7   2 848.527 366.266   4
   2   7   3 5821.30 785.709   4
   2  -7   3 6003.31 491.585   3
  -2  -7  -3 5344.90 593.256   3
  -2   7  -3 6371.94 696.220   4
   2   7   3 5403.42 613.122   5
  -2   7  -4 31041.2 1567.70   4
  -2  -7  -4 30621.2 1451.75   3
   2  -7   4 33918.5 1130.87   3
   2   7   4 30124.6 1461.46   5
   2  -7   5 76815.8 2118.92   2
  -2   7  -5 68768.0 2418.23   4
  -2  -7  -5 74845.9 2403.11   3
   2   7   5 74689.9 2385.88   5
  -2  -7  -6 58173.2 2153.32   3
   2  -7   6 55823.7 1707.77   2
   2   7   6 57557.9 2105.33   5
  -2   7  -6 54218.2 2121.99   4
  -2   7  -7 5344.31 667.151   4
   2  -7   7 5810.49 499.005   2
  -2  -7  -7 7137.96 755.045   3
   2   7   7 6794.94 744.484   5
  -2   7  -8 12302.3 1001.29   4
  -2  -7  -8 12773.2 1062.16   3
   2   7   8 11216.1 958.856   5
  -2  -7  -9-56.3401 208.578   3
  -2   7  -9 191.795 213.021   4
   2   7   9-88.9593 185.364   5
   2   7  10 216.818 223.948   5
  -2  -7 -10 847.037 360.515   3
  -2   7 -10 427.019 276.050   4
  -2   7 -11 7843.68 816.692   4
   2   7  11 7563.30 843.634   5
  -2  -7 -11 7319.07 879.870   3
  -2  -7 -12 29610.9 1798.30   3
  -2   7 -12 31331.6 1648.14   4
   2   7  12 33053.5 1790.60   5
  -2   7 -13 104380. 3183.38   4
  -2  -7 -13 109275. 3648.49   3
   2   7  13 112944. 3570.55   5
   2   7  14 17408.4 1378.07   5
  -2   7 -14 16792.9 1218.55   4
  -2  -7 -14 17221.1 1415.61   3
  -2   8  12 6154.50 892.737   4
   2  -8 -12 7817.74 1041.03   3
  -2   8  12 7231.99 968.394   5
   2   8 -11 14702.3 1087.68   4
  -2   8  11 14252.3 1323.30   4
   2  -8 -11 12908.3 1262.94   3
   2   8 -10 9860.65 921.959   4
  -2   8  10 9029.37 1052.47   4
   2  -8 -10 10634.9 1130.04   3
   2  -8  -9 4964.93 757.800   3
  -2   8   9 5018.20 793.092   4
   2   8  -9 3873.30 602.560   4
   2  -8  -8 3082.84 601.281   3
  -2   8   8 3305.56 665.494   4
   2   8  -8 3110.77 554.689   4
  -2   8   7 67140.1 2791.71   4
   2   8  -7 67624.0 2545.67   4
   2  -8  -7 64295.5 2566.14   3
   2  -8  -6-127.469 211.789   3
  -2  -8   6 429.656 193.379   3
  -2   8   6-82.1725 278.531   4
   2   8  -6 130.725 209.622   4
   2  -8  -5 2603.57 511.938   3
  -2   8   5 2417.80 536.220   4
   2   8  -5 2210.04 491.177   4
  -2  -8   5 2017.75 315.639   3
   2  -8  -4 521.397 284.145   3
  -2  -8   4 164.837 162.812   3
  -2   8   4 638.322 337.844   4
   2   8  -4 63.3281 193.746   4
  -2   8   3 46809.6 2170.56   4
   2   8  -3 43058.2 2151.73   4
  -2  -8   3 42815.5 1508.62   3
   2  -8  -3 43447.6 1817.77   3
   2  -8  -2 898.693 292.920   3
  -2  -8   2 1121.21 285.775   3
  -2   8   2 520.114 320.621   4
   2   8  -2 1000.19 388.025   4
   2  -8  -1 2177.12 390.470   3
  -2  -8   1 3091.01 436.686   3
  -2   8   1 2392.82 492.058   4
   2   8  -1 2513.33 547.307   4
  -2  -8   0 26340.7 1263.05   3
  -2   8   0 28194.7 1608.07   4
   2   8   0 26982.8 1767.60   4
   2  -8   0 27744.3 1284.41   3
   2   8   1 56749.1 2638.79   4
  -2   8  -1 58865.0 2354.04   4
   2  -8   1 59052.5 1862.11   3
  -2  -8  -1 58376.5 1980.87   3
  -2   8  -2 21039.2 1363.25   4
   2   8   2 19339.8 1218.79   5
   2   8   2 22753.1 1654.49   4
   2  -8   2 22968.7 1079.46   3
  -2  -8  -2 21665.8 1208.84   3
  -2   8  -3 14029.8 1107.06   4
   2   8   3 13007.4 1282.37   4
   2  -8   3 11452.0 723.284   3
  -2  -8  -3 12016.2 928.522   3
   2   8   3 11575.5 949.844   5
   2   8   4 580.102 246.308   5
  -2   8  -4 653.159 277.391   4
  -2  -8  -4 506.337 269.228   3
   2  -8   5 78030.0 2262.99   2
  -2   8  -5 75215.5 2654.32   4
  -2  -8  -5 77460.3 2588.49   3
   2   8   5 73048.4 2571.05   5
  -2   8  -6 10313.4 957.212   4
  -2  -8  -6 10390.3 950.857   3
   2   8   6 10454.1 959.499   5
  -2  -8  -7 9895.82 955.565   3
  -2   8  -7 9097.88 898.796   4
   2   8   7 9283.33 923.783   5
  -2   8  -8 14709.5 1142.51   4
   2   8   8 14400.0 1164.76   5
  -2  -8  -8 14280.9 1179.32   3
  -2  -8  -9 5613.71 760.569   3
  -2   8  -9 4596.72 663.449   4
   2   8   9 4942.35 697.021   5
  -2   8 -10 24971.2 1508.23   4
   2   8  10 24884.1 1597.29   5
  -2  -8 -10 25099.8 1631.78   3
  -2   8 -11 12786.3 1073.10   4
  -2  -8 -11 12701.0 1203.35   3
   2   8  11 14517.0 1262.92   5
  -2  -8 -12 5963.30 846.522   3
  -2   8 -12 4873.10 698.493   4
   2   8  12 4818.82 740.146   5
  -2   9   8 11742.8 1261.23   4
   2   9  -8 9134.61 978.216   4
   2  -9  -8 8818.14 1006.25   3
  -2   9   7 26691.6 1867.97   4
   2   9  -7 23085.8 1557.50   4
   2  -9  -7 25856.5 1629.84   3
  -2   9   6 8199.88 1029.66   4
   2   9  -6 8351.63 958.367   4
   2  -9  -6 8128.46 889.999   3
   2  -9  -5 99.1236 238.412   3
  -2   9   5-52.2078 258.089   4
   2  -9  -4 2042.57 448.379   3
  -2   9   4 1714.65 514.512   4
   2   9  -4 2333.07 571.827   4
  -2  -9   3 25280.7 1218.39   3
  -2   9   3 26808.7 1745.15   4
   2   9  -3 26301.0 1771.67   4
   2  -9  -3 24980.3 1403.39   3
   2  -9  -2 109.729 198.225   3
  -2  -9   2 69.9042 195.445   3
  -2   9   2 849.481 382.601   4
   2   9  -2 105.074 273.524   4
  -2   9   1 8899.49 990.044   4
   2  -9  -1 9138.70 792.002   3
   2   9  -1 7555.95 991.751   4
  -2  -9   1 8367.46 741.374   3
  -2   9   0 10369.5 1062.17   4
   2  -9   0 10010.7 803.451   3
   2   9   0 12194.7 1288.02   4
  -2  -9   0 10752.1 864.375   3
  -2   9  -1 17150.3 1334.26   4
   2   9   1 14731.4 1438.77   4
  -2  -9  -1 14480.3 1025.33   3
   2   9   1 12609.6 1053.90   5
  -2  -9  -2 253.202 216.257   3
  -2   9  -2 371.608 330.435   4
   2   9   2-276.139 427.968   4
   2   9   2 241.733 252.621   5
   2   9   3 184.171 205.490   5
  -2  -9  -3 301.489 240.269   3
  -2   9  -3 126.377 266.927   4
  -2  -9  -4 796.322 326.712   3
  -2   9  -4 838.717 332.197   4
   2   9   4 499.927 281.874   5
  -2   9  -5 25937.0 1611.16   4
  -2  -9  -5 25391.1 1494.13   3
   2   9   5 23553.0 1513.65   5
  -2   9  -6 16218.1 1260.44   4
  -2  -9  -6 15735.4 1212.72   3
   2   9   6 16356.1 1286.71   5
   2   9   7 275.843 268.780   5
  -2  -9  -7 402.986 252.226   3
  -2   9  -7 629.522 291.392   4
  -2  -9  -8 1487.25 434.416   3
  -2   9  -8 1091.45 371.736   4
  -3   0  22 147026. 3795.83   5
   3   0 -21 250.276 304.020   1
  -3   0  21 617.471 283.182   5
   3   0 -20 155.481 208.648   1
  -3   0  20 562.481 261.979   5
   3   0 -19 207.491 195.191   2
   3   0 -19-59.0567 245.081   1
  -3   0  19-25.0087 179.673   5
   3   0 -18 7602.97 666.077   2
   3   0 -18 8013.87 864.934   1
  -3   0  18 6625.37 637.680   5
  -3   0  17-157.441 179.371   5
   3   0 -17 54.4116 139.094   2
   3   0 -16 85220.9 2306.85   2
  -3   0  16 84859.1 2261.09   5
  -3   0  15-101.714 155.281   5
   3   0 -15 126.150 178.580   2
   3   0 -14 243722. 4342.54   2
  -3   0  14 239664. 4172.37   5
   3   0 -13 66.4052 115.278   2
  -3   0  13 90.6427 131.576   5
  -3   0  12 419.600 167.071   5
   3   0 -12 363.257 164.794   2
  -3   0  11-55.6875 96.2416   5
   3   0 -11 140.908 141.707   2
  -3   0  11 28.3299 109.959   3
   3   0 -10 200892. 3579.55   2
  -3   0  10 196352. 3600.57   3
  -3   0  10 194659. 3195.68   5
  -3   0   9-39.9346 68.2877   5
  -3   0   9 114.668 105.083   3
   3   0  -9-20.1509 97.7112   2
   3   0  -8 226161. 3688.29   2
  -3   0   8 225024. 3229.29   5
   3   0  -7 149.741 103.459   2
  -3   0   7 230.159 59.4016   4
  -3   0   7-25.4391 64.6832   3
  -3   0   6 122185. 1863.88   4
   3   0  -6 120287. 2421.53   2
  -3   0   6 116719. 2377.67   3
   3   0  -5 21.9685 73.6062   2
  -3   0   5 54.2118 91.9671   2
   3   0  -4 57202.0 1488.42   2
  -3   0   4 57800.4 1449.61   2
   3   0  -3 108.796 94.7027   2
   3   0  -2 553440. 7394.62   2
   3   0  -1-44.1251 102.324   2
   3   0   0 7605.37 486.115   2
  -3   0  -1-15.6336 71.5233   5
  -3   0  -1 38.1841 50.7361   1
   3   0   1 156.439 110.510   2
  -3   0  -2 40782.2 953.621   1
   3   0   2 42132.1 1207.73   2
  -3   0  -2 43491.7 1132.84   5
  -3   0  -2 42924.9 1213.10   2
  -3   0  -3-17.7935 87.8590   2
  -3   0  -3 38.6505 69.0106   1
   3   0   3 2.13595 66.8066   2
  -3   0  -3 99.9169 84.9484   5
   3   0   4 521314. 7135.12   5
  -3   0  -4 517247. 7041.45   2
   3   0   4 511624. 7012.78   2
  -3   0  -4 527770. 6944.63   1
  -3   0  -4 523602. 7016.58   5
   3   0   5 125.439 128.159   5
  -3   0  -5 278.128 131.585   2
   3   0   5 141.418 126.280   2
  -3   0  -5 307.576 135.339   5
  -3   0  -6 420386. 6055.41   5
   3   0   6 421470. 5919.98   2
  -3   0  -6 412830. 5907.44   2
   3   0   6 416444. 6159.74   5
  -3   0  -7 115.455 98.5962   3
   3   0   7 103.590 112.945   2
   3   0   7 141.967 146.483   5
  -3   0  -7 70.5887 91.3781   2
   3   0   8 23112.4 1061.25   5
  -3   0  -8 22690.7 916.635   2
  -3   0  -8 20861.5 971.398   5
  -3   0  -8 23609.3 914.375   3
  -3   0  -9 52.7582 80.8480   3
   3   0   9 111.847 117.218   5
  -3   0  -9 149.329 120.708   2
  -3   0 -10 68132.2 1756.94   2
  -3   0 -10 67416.3 1678.91   3
   3   0  10 66365.4 2022.44   5
   3   0  11 166.456 170.307   5
  -3   0 -11 65.2758 82.4939   3
  -3   0 -11 3.53784 147.753   2
  -3   0 -12 224821. 3758.34   3
  -3   0 -12 224779. 3937.36   2
   3   0  12 225009. 4517.52   5
  -3   0 -13 110.341 131.462   3
  -3   0 -13 70.7167 178.411   1
  -3   0 -13 116.486 124.719   2
   3   0  13 202.739 224.183   5
  -3   0 -14 31834.4 1252.24   2
  -3   0 -14 31845.7 1682.14   1
   3   0  14 30828.8 1531.86   5
  -3   0 -14 32419.2 1181.46   3
  -3   0 -15 195.477 149.323   3
   3   0  15 94.5370 188.216   5
  -3   0 -15 21.7173 156.200   1
  -3   0 -15 394.427 196.132   2
  -3   0 -16 6573.91 542.821   3
  -3   0 -16 6331.18 814.173   1
   3   0  16 6160.26 747.675   5
  -3   0 -17 87.8051 157.516   3
  -3   0 -17-313.206 311.403   1
   3   0  17-95.7812 244.786   5
  -3   0 -18 39957.6 1444.72   3
  -3   0 -18 39251.6 2160.44   1
   3   0  18 38708.9 1949.37   5
  -3   0 -19-136.284 152.671   3
  -3   0 -19 373.712 296.063   1
   3   0  19-115.937 227.066   5
  -3   0 -20 37289.1 2253.26   1
   3   0  20 36372.3 2003.46   5
  -3   0 -21-48.4623 393.743   1
   3   0  21 61.7781 272.594   5
   3  -1 -21 5472.17 792.803   1
   3  -1 -21 5214.06 640.792   2
  -3  -1  21 5897.39 683.361   5
  -3   1  21 5556.88 694.309   5
  -3   1  20 3212.66 505.448   5
   3  -1 -20 3400.41 619.728   1
   3  -1 -20 3414.77 512.545   2
  -3  -1  20 2801.01 467.561   5
  -3   1  19 69.9197 190.255   5
   3  -1 -19-102.402 284.218   1
  -3  -1  19 39.3068 172.798   5
   3  -1 -19 211.389 223.591   2
   3   1 -18 28568.8 1190.59   2
   3  -1 -18 28166.0 1625.24   1
   3  -1 -18 31036.8 1474.58   2
  -3  -1  18 30025.7 1344.86   5
  -3   1  18 30546.8 1447.40   5
   3   1 -17 2615.85 360.329   2
  -3  -1  17 2690.50 395.533   5
   3  -1 -17 2756.11 438.846   2
  -3   1  17 2725.89 429.355   5
   3  -1 -17 2732.02 494.352   1
   3  -1 -16 30573.0 1548.77   1
  -3   1  16 34792.3 1439.77   5
   3   1 -16 32873.8 1272.53   2
   3  -1 -16 37040.5 1544.73   2
  -3  -1  16 33703.7 1320.46   5
   3   1 -15 106561. 2439.98   2
   3  -1 -15 105087. 2728.15   2
  -3  -1  15 109831. 2462.08   5
  -3   1  15 98948.1 2530.96   5
   3  -1 -15 97461.1 2822.63   1
   3  -1 -14 57336.6 1983.42   1
   3   1 -14 58744.4 1698.37   2
  -3  -1  14 55662.8 1596.66   5
   3  -1 -14 57233.4 1887.53   2
  -3   1  14 55721.3 1736.65   5
  -3   1  13 37.7352 122.167   5
  -3  -1  13 67.6139 114.680   5
   3   1 -13 158.248 127.332   2
   3  -1 -13 114.388 126.974   2
   3  -1 -13 164.987 175.276   1
   3   1 -12 51099.4 1526.81   2
   3  -1 -12 53376.5 1729.86   2
  -3  -1  12 52133.5 1607.09   3
   3  -1 -12 51201.8 1704.70   1
  -3   1  12 53952.5 1579.14   5
  -3  -1  12 51440.8 1375.77   5
   3  -1 -11 34270.8 1333.18   2
  -3  -1  11 34853.2 1040.60   5
  -3  -1  11 35186.5 1278.75   3
   3   1 -11 36636.1 1231.70   2
  -3   1  11 33890.7 1190.55   5
   3   1 -10 228026. 3832.48   2
  -3   1  10 230850. 3180.50   4
   3  -1 -10 225485. 4087.44   2
  -3   1  10 228472. 4035.37   3
  -3  -1  10 232391. 3463.94   5
  -3   1  10 227305. 3817.36   5
  -3  -1   9 12410.7 519.761   5
   3   1  -9 12402.6 665.201   2
  -3   1   9 11860.1 447.061   4
   3  -1  -9 12177.0 738.768   2
  -3   1   9 12773.1 724.574   3
   3  -1  -9 12105.7 663.450   1
  -3   1   8 199.197 138.018   3
   3   1  -8-23.8270 82.3913   2
  -3  -1   8 84.6613 77.4783   3
  -3   1   8 107.895 57.7989   4
   3  -1  -8 62.5801 84.4299   2
  -3  -1   8 184.886 72.8286   5
   3  -1  -8 140.725 91.0678   1
   3   1  -7 11719.3 628.286   2
   3  -1  -7 11891.3 561.357   1
  -3   1   7 11924.9 493.278   4
   3  -1  -7 11973.2 696.788   2
  -3  -1   7 12807.3 653.070   2
  -3  -1   7 11825.7 415.156   5
  -3   1   6 20641.4 729.913   4
  -3  -1   6 20184.1 820.342   2
   3  -1  -6 19777.6 662.315   1
   3  -1  -6 19997.1 891.424   2
  -3  -1   6 18347.3 454.994   4
  -3  -1   6 19698.9 501.912   5
   3   1  -6 19552.3 804.122   2
  -3   1   5 2186.53 237.217   4
  -3  -1   5 2050.85 136.245   5
  -3  -1   5 2351.93 275.896   2
   3   1  -5 1777.88 240.323   2
   3  -1  -5 2151.61 288.498   2
   3  -1  -5 2316.19 190.344   1
   3  -1  -4 235146. 3865.06   2
  -3   1   4 231579. 3540.29   4
   3   1  -4 226558. 3691.88   2
  -3   1   3 335230. 4798.53   4
   3  -1  -3 339809. 5135.59   2
   3   1  -3 352206. 5047.51   2
   3  -1  -2 578806. 7863.87   2
  -3  -1   2 581593. 6997.28   5
   3   1  -2 598465. 7795.29   2
  -3  -1   2 600019. 7852.67   2
   3   1  -1 106.219 95.0555   2
   3  -1  -1 156.787 82.1322   2
   3  -1   0 10000.9 563.852   2
  -3   1   0 9416.29 517.257   2
   3   1   0 10126.5 558.063   2
  -3  -1   0 9704.64 382.265   5
  -3  -1  -1 555.628 105.217   5
   3  -1   1 534.313 143.588   2
  -3   1  -1 557.013 137.415   2
   3   1   1 463.944 103.775   1
   3   1   1 425.914 139.618   2
   3   1   1 481.273 122.336   5
  -3   1  -2 176.214 82.7223   2
  -3  -1  -2 215.249 84.3931   5
   3   1   2 106.139 101.656   2
   3  -1   2 153.433 92.3154   2
   3   1   2 226.527 91.5859   1
   3   1   2 212.670 91.1136   5
   3   1   3 14104.6 676.926   2
  -3  -1  -3 12937.2 563.758   5
  -3   1  -3 13051.1 623.322   2
  -3  -1  -3 12956.6 666.605   2
   3  -1   3 11955.3 615.639   2
   3   1   3 13427.9 608.174   5
   3   1   3 12648.9 586.196   1
  -3   1  -4 422437. 5703.67   2
  -3  -1  -4 397949. 5750.64   1
   3   1   4 398430. 5813.09   2
  -3  -1  -4 412963. 5883.41   2
   3  -1   4 419592. 5745.51   2
   3   1   4 396705. 5710.41   5
  -3  -1  -4 405577. 5623.13   5
  -3   1  -5 338718. 4868.06   2
   3   1   5 336130. 5039.82   2
  -3  -1  -5 337443. 5089.03   2
   3  -1   5 333043. 4868.33   2
   3   1   5 338549. 5037.78   5
  -3  -1  -5 326803. 5086.85   1
  -3  -1  -5 345080. 4959.33   5
  -3  -1  -6 441395. 6283.66   5
  -3  -1  -6 432161. 6464.74   1
   3  -1   6 443418. 6107.97   2
  -3  -1  -6 447299. 6384.36   2
   3   1   6 436570. 6362.84   5
  -3   1  -6 451407. 6118.21   2
  -3  -1  -7 19520.2 904.353   3
   3   1   7 19503.2 911.981   5
  -3   1  -7 17658.8 750.648   2
  -3  -1  -7 19747.2 970.014   1
   3  -1   7 18879.3 765.946   2
  -3  -1  -7 18945.2 872.899   2
  -3  -1  -7 18781.3 865.191   5
  -3  -1  -8 6515.95 527.718   3
  -3  -1  -8 6217.90 569.401   1
  -3  -1  -8 6285.38 520.002   5
   3  -1   8 6678.37 448.312   2
  -3  -1  -8 6113.91 499.805   2
   3   1   8 6035.20 523.033   5
  -3   1  -8 6923.87 570.397   5
  -3   1  -8 6849.14 463.659   2
  -3   1  -8 7149.99 434.565   3
  -3  -1  -9 9413.72 635.879   3
  -3  -1  -9 8265.01 692.652   1
   3   1   9 9685.86 696.808   5
  -3  -1  -9 9371.02 631.059   2
  -3   1  -9 9115.23 543.594   2
  -3   1  -9 8622.21 479.817   3
  -3  -1 -10 71153.0 2243.87   1
  -3  -1 -10 71482.9 1906.71   3
  -3  -1 -10 69276.9 1910.39   2
   3  -1  10 71357.2 2157.60   5
   3   1  10 70283.7 2061.79   5
  -3   1 -10 74522.4 1734.66   2
  -3   1 -10 72633.4 1560.04   3
  -3   1 -11 5934.83 453.336   2
  -3  -1 -11 6562.89 551.112   2
  -3  -1 -11 5215.19 609.247   1
   3  -1  11 6391.61 642.535   5
   3   1  11 5738.41 579.604   5
  -3   1 -11 5350.95 376.621   3
  -3  -1 -11 5747.53 511.245   3
  -3   1 -12 24490.3 957.527   2
  -3  -1 -12 23083.5 1038.83   3
  -3  -1 -12 20906.6 1029.50   2
   3  -1  12 22235.3 1236.51   5
  -3  -1 -12 22276.2 1312.85   1
   3   1  12 22551.4 1207.02   5
  -3   1 -12 23473.9 823.670   3
  -3  -1 -13 46908.7 2009.77   1
   3  -1  13 46593.8 1863.54   5
  -3  -1 -13 48155.7 1554.61   3
   3   1  13 45033.9 1794.61   5
  -3   1 -13 45572.7 1384.11   2
  -3   1 -13 48508.9 1289.32   3
  -3  -1 -14 66093.1 2497.07   1
  -3   1 -14 69517.7 1610.74   3
   3  -1  14 68523.1 2359.06   5
  -3   1 -14 64733.6 1707.18   2
   3   1  14 65463.3 2273.58   5
  -3  -1 -15 4897.56 699.735   1
  -3   1 -15 4692.56 392.856   3
  -3  -1 -15 4085.01 472.572   3
   3   1  15 3632.08 549.302   5
   3  -1  15 4477.83 618.708   5
  -3   1 -16 59808.8 1557.02   3
  -3  -1 -16 52355.4 2391.97   1
   3  -1  16 59368.5 2337.03   5
   3   1  16 58533.9 2273.60   5
  -3  -1 -16 59985.6 1883.60   3
  -3  -1 -17 57787.9 2565.52   1
   3  -1  17 50624.7 2225.75   5
  -3   1 -17 50700.5 1455.59   3
  -3  -1 -17 53802.3 1811.31   3
   3   1  17 55221.2 2277.77   5
  -3  -1 -18 78265.1 3147.85   1
  -3  -1 -18 78831.9 2298.02   3
   3   1  18 82790.1 2913.59   5
   3  -1  18 80777.4 2898.15   5
  -3  -1 -19 1228.96 314.863   3
  -3   1 -19 829.711 334.806   1
   3  -1  19 1327.14 471.934   5
  -3  -1 -19 525.330 281.516   1
   3   1  19 877.781 383.902   5
  -3  -1 -20 97.8332 172.388   3
   3   1  20-478.975 305.592   5
  -3   1 -20 200.956 264.287   1
  -3  -1 -20 244.635 290.271   1
   3  -2 -21 21162.3 1394.19   2
  -3   2  21 20592.3 1363.54   5
   3  -2 -21 20887.0 1557.22   1
   3  -2 -20 1689.50 421.845   2
   3  -2 -20 1276.39 393.576   1
  -3   2  20 1997.22 469.770   5
  -3  -2  20 1714.67 371.944   5
  -3   2  19 9804.74 880.228   5
   3  -2 -19 9353.80 885.358   2
  -3  -2  19 10210.3 813.709   5
   3  -2 -19 8677.14 944.589   1
  -3   2  18 3221.92 509.796   5
   3  -2 -18 3051.73 544.091   1
   3  -2 -18 3125.48 512.279   2
  -3  -2  18 2354.30 388.218   5
  -3   2  17 298.144 189.637   5
  -3  -2  17 79.3269 143.877   5
   3  -2 -17 189.162 179.257   1
   3  -2 -17 152.868 238.655   3
   3  -2 -17 369.668 194.384   2
   3   2 -17 101.096 135.881   2
  -3   2  16 23688.0 1245.28   5
   3  -2 -16 23773.6 1329.20   2
   3  -2 -16 23906.4 1365.27   3
   3  -2 -16 23139.4 1359.08   1
  -3  -2  16 24170.1 1092.14   5
   3   2 -16 23538.6 952.255   2
   3  -2 -15 130147. 2585.12   4
   3  -2 -15 129114. 3345.41   3
   3  -2 -15 125534. 3323.16   1
  -3  -2  15 136093. 2782.92   5
   3   2 -15 134107. 2615.67   2
  -3   2  15 128857. 3103.34   5
   3  -2 -14 67570.9 1701.58   4
  -3  -2  14 62072.8 1700.84   5
   3  -2 -14 64354.7 2193.65   3
  -3  -2  14 59910.0 1761.04   3
   3  -2 -14 64539.4 2165.54   1
   3   2 -14 65569.1 1667.40   2
  -3   2  14 63816.9 1999.67   5
   3  -2 -13 17438.6 807.844   4
   3  -2 -13 15923.7 1021.94   3
  -3  -2  13 15330.0 826.674   3
   3  -2 -13 16769.0 1013.12   1
  -3  -2  13 16763.1 779.516   5
   3   2 -13 16168.6 765.522   2
  -3   2  12 2927.67 387.595   5
  -3  -2  12 1928.61 271.950   5
   3  -2 -12 3392.46 359.993   4
  -3  -2  12 2552.39 319.395   3
   3  -2 -12 2886.65 429.737   3
   3  -2 -12 2122.33 357.505   1
   3   2 -12 2077.54 284.693   2
   3   2 -11 130334. 2509.26   2
  -3   2  11 127801. 2342.57   4
   3  -2 -11 130325. 3056.71   3
  -3  -2  11 127718. 2294.84   5
  -3   2  11 129356. 2805.98   5
   3  -2 -11 128689. 2580.17   4
   3  -2 -11 124468. 2843.07   1
  -3   2  10 6597.64 434.418   4
   3  -2 -10 7300.81 515.701   4
   3  -2 -10 7014.30 617.907   3
  -3  -2  10 7752.20 409.914   5
   3   2 -10 7140.72 489.387   2
   3   2  -9 88496.6 1939.94   2
  -3   2   9 88848.9 1825.70   4
   3  -2  -9 86536.0 1998.41   4
  -3  -2   9 89997.3 1974.62   2
   3  -2  -9 87009.5 2304.71   3
  -3  -2   9 93256.4 1587.35   5
  -3   2   8 29893.7 944.812   4
  -3  -2   8 28489.0 1001.64   2
  -3  -2   8 24739.4 562.005   4
   3  -2  -8 28169.1 1192.28   3
   3  -2  -8 29049.3 1037.08   4
  -3  -2   8 28465.1 670.268   5
  -3   2   8 28306.0 1102.88   3
   3   2  -8 28128.1 972.674   2
  -3  -2   7 91414.0 1396.74   4
  -3  -2   7 92078.0 1977.14   2
  -3   2   7 87948.9 1856.43   4
   3  -2  -7 90939.2 2220.00   3
   3   2  -7 94191.2 1930.47   2
   3  -2  -7 94048.1 2022.74   4
   3  -2  -6 198851. 3386.53   4
  -3   2   6 193998. 3361.87   4
  -3  -2   6 196784. 2725.52   4
   3  -2  -6 195937. 3683.24   2
   3  -2  -6 193275. 3593.82   3
   3   2  -6 196336. 3276.22   2
  -3  -2   5 1522.95 158.249   4
  -3   2   5 1949.43 273.852   4
   3  -2  -5 1996.46 306.890   2
  -3   2   5 1614.90 188.291   1
   3   2  -5 1310.16 207.108   2
  -3  -2   5 1643.09 244.345   2
  -3  -2   4 66415.8 1667.90   2
  -3   2   4 68137.8 1745.18   4
  -3   2   4 66595.8 1317.16   1
  -3  -2   4 66160.8 1312.75   4
   3  -2  -4 69137.9 1835.29   2
   3   2  -4 65815.9 1579.98   2
  -3   2   4 67060.3 1611.06   3
  -3   2   3 317752. 4900.83   4
  -3  -2   3 317415. 4399.12   4
   3  -2  -3 319258. 5025.37   2
   3   2  -3 324897. 4743.13   2
  -3   2   3 313530. 4668.30   3
  -3  -2   3 331609. 4913.50   2
  -3   2   2 28658.8 1031.09   4
   3  -2  -2 29563.7 1088.71   2
  -3  -2   2 25390.2 829.568   4
   3   2  -2 26552.6 941.582   2
  -3   2   2 27825.8 911.161   3
  -3  -2   2 26014.9 995.450   2
  -3   2   1 145516. 2720.41   4
   3  -2  -1 151200. 2792.52   2
   3   2  -1 150060. 2640.42   2
  -3   2   1 149354. 2482.76   3
  -3  -2   1 154192. 2788.84   2
   3   2  -1 129419. 2021.21   5
  -3  -2   1 134854. 1915.35   5
  -3   2   0 11251.0 637.319   4
   3  -2   0 11724.6 652.754   2
   3   2   0 12465.1 640.442   2
  -3   2   0 12762.2 567.746   3
  -3  -2   0 11115.1 647.739   2
   3   2   0 12230.0 442.350   5
   3   2   1 5464.16 324.529   5
   3  -2   1 4986.20 419.285   2
   3   2   1 5457.95 422.663   2
  -3   2  -1 5127.18 388.210   2
  -3   2  -1 5338.58 349.531   3
  -3  -2  -1 4974.98 290.075   5
   3   2   2 66918.2 1651.75   2
  -3   2  -2 66690.5 1521.86   2
   3  -2   2 68908.2 1672.98   2
   3   2   2 68599.7 1430.82   5
   3   2   3 1769.90 226.769   5
   3   2   3 1906.06 267.562   2
  -3   2  -3 2371.53 250.053   2
   3   2   3 1421.30 225.230   1
  -3  -2  -3 1733.62 215.601   5
   3  -2   3 2074.82 260.429   2
   3  -2   4 15411.1 703.237   2
   3   2   4 13562.7 721.019   1
  -3   2  -4 15253.1 642.706   2
   3   2   4 14064.3 661.723   5
  -3  -2  -4 13612.9 629.137   5
  -3   2  -5 622778. 8002.63   2
   3   2   5 610699. 8287.51   5
  -3  -2  -5 620421. 8638.47   2
   3  -2   5 635932. 8198.49   2
  -3  -2  -5 617780. 8184.06   5
   3   2   5 617790. 8529.09   1
  -3  -2  -5 625058. 8675.95   3
  -3  -2  -6 130189. 2854.45   3
  -3   2  -6 136417. 2363.90   2
  -3  -2  -6 131912. 2836.98   2
   3   2   6 128626. 2636.04   5
   3   2   6 131017. 2788.79   1
  -3  -2  -6 127584. 2551.55   5
  -3   2  -7 121826. 2184.97   2
  -3   2  -7 119117. 2756.58   5
  -3  -2  -7 120926. 2715.99   2
  -3  -2  -7 118942. 2714.50   3
   3  -2   7 121146. 2256.42   2
  -3  -2  -7 118908. 2497.99   5
   3   2   7 121555. 2596.67   5
  -3   2  -8 6002.43 330.327   3
  -3   2  -8 5418.57 382.660   2
  -3  -2  -8 5662.28 535.661   3
  -3  -2  -8 5218.98 556.425   1
   3  -2   8 5381.60 386.741   2
  -3  -2  -8 5707.73 538.853   2
   3   2   8 6367.51 543.145   5
  -3  -2  -8 5224.27 483.795   5
  -3   2  -9 22410.8 786.159   2
  -3  -2  -9 20486.5 1149.09   1
  -3   2  -9 23015.0 665.659   3
   3  -2   9 22422.7 783.305   2
  -3  -2  -9 21867.6 1080.26   2
   3   2   9 21370.4 1047.19   5
  -3  -2  -9 20653.5 1038.28   3
  -3   2 -10 640.254 143.159   2
  -3   2 -10 674.096 115.928   3
  -3  -2 -10 489.289 184.888   3
  -3  -2 -10 566.797 232.712   1
   3   2  10 667.919 220.100   5
  -3   2 -11 1330.16 194.230   2
  -3   2 -11 1289.28 154.493   3
  -3  -2 -11 1129.66 302.803   1
  -3  -2 -11 634.039 216.234   3
   3   2  11 1349.09 305.286   5
  -3  -2 -12 1847.59 392.177   1
  -3   2 -12 1997.20 235.238   2
  -3  -2 -12 1900.36 340.087   3
  -3   2 -12 2317.63 208.745   3
   3   2  12 1559.55 342.989   5
  -3   2 -13 103348. 1993.50   2
  -3   2 -13 103929. 1808.29   3
   3   2  13 102410. 2866.60   5
  -3  -2 -13 106395. 2670.64   3
  -3  -2 -13 110120. 3274.37   1
  -3   2 -14 41219.5 1008.79   3
  -3  -2 -14 43600.2 2046.39   1
   3   2  14 41672.6 1795.91   5
  -3   2 -14 41631.7 1122.08   2
  -3  -2 -14 43172.3 1634.38   3
  -3  -2 -15 9686.02 781.443   3
  -3   2 -15 8092.27 423.918   3
   3   2  15 10066.5 885.476   5
  -3  -2 -15 9390.35 976.289   1
  -3  -2 -16 2173.76 394.083   3
   3   2  16 1872.32 429.267   5
  -3  -2 -16 1891.21 501.469   1
  -3  -2 -17 78382.4 3107.06   1
  -3  -2 -17 79479.8 2425.78   3
   3   2  17 75034.5 2702.18   5
  -3  -2 -18 2062.27 415.792   3
  -3  -2 -18 1179.21 502.494   1
   3   2  18 1839.86 484.663   5
  -3  -2 -19 3144.70 508.448   3
  -3  -2 -19 4512.59 784.735   1
   3   2  19 3832.00 646.722   5
  -3  -2 -20 14612.1 1065.11   3
   3   2  20 14792.9 1292.57   5
  -3  -2 -20 16243.2 1518.13   1
   3  -3 -20 10157.2 1013.12   2
   3  -3 -20 10423.8 1045.26   3
  -3   3  20 10665.9 1010.59   5
  -3   3  19 28939.5 1615.56   5
   3  -3 -19 32118.4 1803.26   3
  -3   3  18 4449.45 618.360   5
   3  -3 -18 4445.29 676.090   3
   3  -3 -17 12457.9 1070.53   3
  -3   3  17 14158.8 1047.31   5
   3  -3 -16 12595.6 1053.51   3
  -3   3  16 14081.1 1011.02   5
  -3   3  15 110736. 2975.55   5
   3   3 -15 111611. 2059.44   2
   3  -3 -15 108378. 3185.66   3
  -3   3  14 1882.51 360.324   5
   3  -3 -14 2601.48 471.865   3
  -3  -3  14 2406.00 320.402   3
   3  -3 -14 1833.49 338.050   4
   3   3 -14 2311.01 268.974   2
  -3   3  13 29287.4 1360.66   5
   3  -3 -13 25937.5 1274.58   4
  -3   3  13 27859.0 1127.84   4
   3   3 -13 29552.9 945.872   2
   3  -3 -13 29216.8 1479.56   3
  -3  -3  13 27912.6 1107.09   3
   3  -3 -12 7964.84 685.674   4
   3   3 -12 8438.23 497.890   2
   3  -3 -12 9411.61 814.116   3
  -3   3  12 8527.14 700.681   5
   3   3 -11 269818. 3949.42   2
   3  -3 -11 253532. 4935.97   3
   3  -3 -10 3520.96 454.682   4
  -3  -3  10 2982.97 314.920   2
   3   3 -10 2756.00 293.663   2
   3  -3 -10 3634.56 488.868   3
  -3  -3   9 6454.26 358.481   4
   3  -3  -9 6432.34 607.424   4
  -3  -3   9 7417.26 504.248   2
   3   3  -9 6675.23 442.054   2
   3  -3  -9 6617.73 626.215   3
   3  -3  -8 8491.24 682.996   4
  -3  -3   8 8692.17 446.844   4
  -3  -3   8 8611.15 554.452   2
   3   3  -8 8557.31 510.186   2
   3  -3  -8 8562.53 695.643   3
  -3  -3   7 123625. 2508.10   2
  -3  -3   7 122511. 2144.51   4
   3   3  -7 122403. 2331.27   2
   3  -3  -7 122479. 2869.43   3
   3  -3  -7 118675. 2840.08   4
  -3   3   7 121980. 2467.25   1
  -3  -3   6 3204.09 267.435   4
  -3   3   6 2376.02 287.850   1
   3  -3  -6 2846.72 392.086   4
   3   3  -6 1907.59 264.274   2
   3  -3  -6 2948.00 397.878   3
  -3   3   6 2807.25 335.488   3
  -3  -3   6 3042.45 350.527   2
  -3   3   5 1805.22 231.119   1
   3  -3  -5 1943.41 318.138   3
  -3   3   5 1734.92 251.060   3
  -3  -3   5 1789.36 206.791   4
   3  -3  -5 1559.59 286.611   4
   3   3  -5 1311.43 218.753   2
  -3  -3   5 1895.17 283.571   2
  -3   3   4 615.830 156.265   3
   3  -3  -4 523.467 169.391   4
  -3  -3   4 540.222 128.154   4
   3   3  -4 547.931 159.102   2
  -3  -3   4 894.962 199.984   2
   3  -3  -4 666.150 186.298   3
   3  -3  -3 416009. 6468.29   4
  -3  -3   3 424564. 5748.34   4
   3   3  -3 417632. 5915.91   2
   3  -3  -3 417572. 6248.35   3
  -3   3   3 412795. 5882.85   3
  -3  -3   3 423526. 6219.26   2
  -3   3   2 645.646 160.149   3
  -3  -3   2 435.418 127.964   4
   3   3  -2 628.434 160.919   2
   3  -3  -2 402.745 163.158   2
   3   3  -2 742.688 85.3049   5
  -3  -3   1 139653. 2436.34   4
   3   3  -1 131965. 2453.34   2
   3  -3  -1 130928. 2718.85   2
  -3   3   1 132790. 2267.30   3
   3   3  -1 133390. 1843.65   5
  -3  -3   0 2149.97 274.738   4
   3  -3   0 1509.45 262.049   2
  -3   3   0 1845.72 223.658   3
   3   3   0 2009.67 197.476   5
   3  -3   1 231857. 3968.85   2
  -3  -3  -1 229950. 3804.72   4
  -3   3  -1 230686. 3433.37   3
   3   3   1 228981. 3366.67   5
   3  -3   2 3392.87 362.172   2
  -3  -3  -2 3479.96 365.451   4
  -3   3  -2 3391.67 266.843   3
   3   3   2 3581.04 302.432   5
   3  -3   3 99386.5 2187.70   2
   3   3   3 95325.6 1963.99   5
  -3  -3  -3 101020. 2274.82   4
  -3   3  -3 99207.8 1739.03   3
   3  -3   4 18022.3 812.472   2
  -3   3  -4 17813.8 933.357   4
  -3  -3  -4 18778.5 963.349   3
   3   3   4 19918.8 982.956   1
  -3  -3  -4 20405.5 949.544   4
  -3   3  -4 18315.5 588.037   3
   3   3   4 18326.6 794.839   5
  -3  -3  -5 407487. 6428.82   3
  -3   3  -5 392563. 6287.02   4
  -3  -3  -5 417002. 6304.82   4
  -3  -3  -5 405188. 6485.77   2
   3   3   5 408298. 6376.86   1
  -3   3  -5 411595. 5194.64   3
   3   3   5 406681. 5938.34   5
   3  -3   5 411217. 5830.75   2
  -3  -3  -6 11371.4 789.000   3
  -3   3  -6 11295.5 758.814   4
  -3  -3  -6 12413.7 687.856   5
   3   3   6 11779.4 791.734   1
  -3  -3  -6 12043.1 829.533   2
   3  -3   6 10772.4 586.994   2
  -3   3  -6 10615.0 392.697   3
  -3   3  -6 10307.1 755.396   5
   3   3   6 12858.0 729.682   5
  -3  -3  -7 162576. 3496.93   3
  -3   3  -7 158250. 2227.92   3
   3  -3   7 168383. 2793.94   2
   3   3   7 158629. 3159.09   5
  -3  -3  -7 151883. 3087.03   5
  -3   3  -8 29354.8 612.125   3
  -3   3  -8 27214.4 602.350   3
   3  -3   8 31785.0 943.394   2
   3   3   8 27927.8 1181.57   5
  -3  -3  -8 30877.0 1364.31   3
   3  -3   9 67527.7 1400.27   2
   3   3   9 70524.5 2010.10   5
  -3   3  -9 65858.3 957.271   3
  -3  -3  -9 72038.1 2157.70   3
   3   3  10 429.188 198.750   5
  -3  -3 -10 668.176 250.130   3
   3   3  11 155.497 175.256   5
  -3  -3 -11 146.583 156.303   3
  -3  -3 -12 17896.5 1087.86   3
   3   3  12 18928.2 1119.29   5
   3   3  13 181379. 4096.01   5
  -3  -3 -13 188797. 4062.21   3
   3   3  14 7213.64 751.892   5
  -3  -3 -14 7319.80 723.114   3
   3   3  15 682.209 291.226   5
  -3  -3 -15 722.036 266.448   3
  -3  -3 -16 2324.93 441.538   3
   3   3  16 1596.54 397.673   5
  -3  -3 -17 32385.7 1624.92   3
   3   3  17 30999.6 1735.46   5
  -3   3 -18 31.2428 217.580   4
  -3  -3 -18 105.304 203.245   3
   3   3  18 71.4670 246.871   5
  -3   3 -19 17613.9 1154.69   4
  -3  -3 -19 18556.2 1265.32   3
   3   3  19 18627.0 1415.66   5
  -3   4  20 81.5555 218.514   5
  -3   4  19 20075.7 1376.15   5
   3  -4 -19 21187.0 1542.74   3
   3  -4 -18 6703.45 872.243   3
  -3   4  18 6180.45 763.337   5
   3  -4 -17 154.865 280.881   3
  -3   4  17 435.832 343.725   5
  -3   4  16 13714.3 1064.14   5
   3  -4 -16 12406.0 1090.87   3
   3  -4 -15 53200.2 2273.98   3
  -3   4  15 54964.3 2126.67   5
   3  -4 -14 45778.9 2048.29   3
  -3   4  14 41203.1 1792.10   5
   3  -4 -13 2585.33 502.263   3
  -3   4  13 2324.66 369.897   4
  -3   4  13 2058.60 401.413   5
   3   4 -12 71190.8 1599.74   5
  -3   4  12 72796.2 2094.63   4
  -3   4  11 94303.6 2424.39   4
  -3  -4  11 91155.8 1961.05   2
   3  -4 -11 95392.6 2868.25   3
   3   4 -11 96504.1 1792.78   5
  -3  -4  10 107729. 2257.70   2
   3  -4 -10 106699. 3043.63   3
  -3  -4  10 104600. 2143.35   4
  -3   4  10 104432. 2617.80   4
  -3  -4   9 17971.7 764.915   4
  -3  -4   9 18466.3 831.697   2
  -3   4   9 16796.1 933.428   1
  -3   4   9 18171.4 966.367   4
   3  -4  -9 19647.4 1174.51   3
  -3   4   8 15021.6 867.751   1
  -3  -4   8 15425.4 739.581   4
  -3   4   8 13306.9 825.953   4
   3  -4  -8 14345.0 987.494   3
   3   4  -8 14162.4 406.587   5
  -3  -4   8 14866.9 774.805   2
   3  -4  -7 76239.8 2455.49   4
  -3  -4   7 78391.4 1831.51   4
  -3   4   7 80194.5 2177.66   4
  -3   4   7 80840.5 2065.34   1
   3  -4  -7 82471.1 2409.03   3
   3   4  -7 72720.2 1108.93   5
  -3  -4   7 83756.7 2025.56   2
   3  -4  -6 11447.8 883.291   4
  -3  -4   6 11226.6 620.577   4
  -3   4   6 10401.5 738.369   4
   3  -4  -6 10757.3 814.962   3
  -3  -4   6 12192.7 735.582   2
  -3   4   6 10823.5 684.297   1
   3   4  -5 193.385 44.9384   5
   3  -4  -5 510.142 187.024   3
   3  -4  -5 459.043 209.955   4
   3   4  -5 286.871 58.7917   5
  -3   4   5 923.353 248.356   4
  -3  -4   5 416.282 139.774   4
  -3  -4   5-168.886 101.323   2
   3  -4  -4 161330. 3619.54   4
  -3   4   4 168774. 3419.20   4
  -3  -4   4 164295. 2815.29   4
   3  -4  -4 170376. 3408.32   3
  -3   4   4 172563. 2986.21   3
   3  -4  -3 147103. 3577.31   4
  -3   4   3 149336. 3407.54   4
  -3  -4   3 144421. 2867.75   4
  -3   4   3 150193. 2918.60   3
   3  -4  -3 144736. 3262.97   3
   3  -4  -2 169150. 3802.58   4
  -3   4   2 168442. 3630.27   4
  -3  -4   2 181543. 3185.09   4
   3  -4  -2 174282. 3460.21   3
  -3   4   2 176841. 3065.21   3
   3   4  -2 175302. 2538.17   5
   3   4  -1 42482.3 1002.60   5
  -3   4   1 44045.2 1647.16   4
  -3  -4   1 44905.8 1372.32   4
  -3   4   1 45561.0 1247.32   3
   3  -4  -1 45617.0 1474.31   3
  -3  -4   1 43455.7 1541.39   2
  -3   4   0 10961.8 802.251   4
  -3  -4   0 11711.9 685.401   4
   3  -4   0 11107.6 761.179   2
  -3  -4   0 11654.3 782.166   2
  -3   4   0 10998.1 556.266   3
   3   4   0 11130.2 506.003   5
  -3   4  -1 115219. 2828.80   4
  -3  -4  -1 119506. 2538.67   4
   3  -4   1 110570. 2648.63   2
  -3  -4  -1 113215. 2726.15   2
  -3   4  -1 117021. 2102.84   3
   3   4   1 107666. 2075.43   5
  -3  -4  -2 7470.41 606.019   3
  -3   4  -2 8370.55 692.954   4
  -3  -4  -2 7285.75 567.391   4
   3  -4   2 6927.88 571.100   2
  -3  -4  -2 6963.38 625.695   2
  -3   4  -2 7965.53 428.369   3
   3   4   2 7016.52 451.152   5
  -3  -4  -3 5776.62 550.341   3
  -3   4  -3 5756.01 581.655   4
   3  -4   3 6517.08 532.127   2
  -3   4  -3 5672.66 339.018   3
   3   4   3 6405.16 457.454   5
  -3  -4  -4 125230. 2920.56   3
  -3   4  -4 119113. 2923.32   4
   3  -4   4 125318. 2619.82   2
  -3   4  -4 124381. 1985.66   3
   3   4   4 123702. 2511.20   5
  -3  -4  -5 153819. 3446.31   3
   3  -4   5 161911. 3039.08   2
  -3   4  -5 159475. 3475.14   4
   3   4   5 152307. 3042.66   5
  -3   4  -5 161309. 2308.65   3
  -3   4  -6 262526. 4968.58   4
   3  -4   6 276335. 4345.53   2
  -3   4  -6 276707. 3512.19   3
   3   4   6 273872. 4610.81   5
  -3  -4  -6 272530. 5082.28   3
   3   4   7 37207.7 1382.46   5
  -3   4  -7 39134.1 1577.42   4
   3  -4   7 39795.4 1169.89   2
  -3  -4  -7 38574.7 1593.14   3
  -3   4  -8 5272.29 592.473   4
   3  -4   8 5015.87 372.904   2
   3   4   8 5068.10 519.913   5
  -3  -4  -8 5197.90 574.605   3
  -3   4  -9 44099.0 1743.62   4
   3  -4   9 43451.5 1068.73   2
   3   4   9 41897.2 1598.53   5
  -3  -4  -9 41742.5 1726.72   3
   3   4  10 48.8562 162.212   5
  -3  -4 -10 450.694 169.466   3
  -3   4 -10 210.565 192.175   4
   3  -4  10 12.3292 48.4751   2
   3   4  11 393.167 214.726   5
  -3  -4 -11 416.035 231.620   3
  -3   4 -11 360.385 216.525   4
   3   4  12 3781.51 533.975   5
  -3  -4 -12 4303.58 571.113   3
  -3   4 -12 3573.26 516.932   4
  -3   4 -13 71886.6 2385.50   4
  -3  -4 -13 68659.5 2403.26   3
   3   4  13 67840.6 2360.72   5
  -3   4 -14 24115.6 1347.81   4
  -3  -4 -14 23859.8 1417.73   3
   3   4  14 23241.4 1379.18   5
  -3  -4 -15 1414.01 400.680   3
  -3   4 -15 1521.44 388.628   4
   3   4  15 1528.27 422.198   5
  -3   4 -16 17868.4 1180.26   4
   3   4  16 17889.0 1293.44   5
  -3  -4 -16 19021.7 1312.41   3
  -3   4 -17 32015.8 1619.07   4
   3   4  17 30981.2 1775.09   5
  -3  -4 -17 33058.5 1756.13   3
  -3   4 -18 24209.6 1420.41   4
  -3  -4 -18 25242.1 1555.40   3
   3   4  18 24282.2 1620.04   5
  -3  -4 -19 6007.58 788.781   3
   3   4  19 5989.56 848.763   5
   3  -5 -18 986.815 367.281   3
  -3   5  18 1646.50 457.158   5
   3  -5 -17 6047.06 839.532   3
  -3   5  17 6527.22 808.200   5
   3  -5 -16 59428.6 2615.25   3
  -3   5  16 57433.4 2362.39   5
   3  -5 -15 10532.5 1076.54   3
  -3   5  15 10230.1 955.443   5
  -3   5  14 88952.1 2907.30   5
  -3   5  14 90694.1 2715.19   4
   3  -5 -14 95888.1 3257.98   3
  -3   5  13 243.316 201.538   5
   3  -5 -13 724.281 357.620   3
  -3   5  13 282.193 186.638   4
  -3   5  12 8555.46 765.021   4
   3  -5 -12 9154.55 931.201   3
   3  -5 -11 2250.34 463.039   3
  -3   5  11 2530.51 425.314   4
  -3  -5  10 22226.4 925.259   2
  -3   5  10 21583.3 1199.83   4
   3  -5 -10 19706.7 1319.79   3
  -3  -5  10 20464.4 958.923   4
   3   5 -10 20046.7 661.072   5
  -3  -5   9 4706.37 445.443   2
  -3  -5   9 5692.29 506.512   4
   3   5  -9 4897.95 298.752   5
  -3   5   9 6134.67 628.824   4
   3   5  -9 5020.17 538.454   4
   3  -5  -9 5631.43 690.905   3
  -3  -5   8 21782.8 1028.09   4
  -3   5   8 22717.2 1216.94   4
   3   5  -8 21063.2 1113.20   4
   3  -5  -8 21294.2 1314.44   3
   3   5  -8 24024.8 657.541   5
  -3  -5   7 12161.4 766.809   4
  -3   5   7 14230.6 954.539   4
   3   5  -7 14359.5 925.160   4
   3  -5  -7 13941.3 1039.35   3
   3   5  -7 13930.5 485.554   5
  -3  -5   6 110796. 2477.67   4
  -3   5   6 105033. 2768.81   4
   3   5  -6 109384. 2727.71   4
  -3  -5   5 13454.7 791.205   4
  -3   5   5 13066.2 915.146   4
   3   5  -5 14639.8 944.991   4
   3  -5  -5 13341.2 974.579   3
  -3  -5   5 13500.3 837.226   2
  -3  -5   4 97028.2 2308.53   4
  -3   5   4 98182.2 2704.64   4
   3  -5  -4 91129.2 2641.26   3
  -3  -5   4 98488.0 2469.49   2
  -3   5   3 6519.22 653.750   4
  -3  -5   3 5377.15 492.421   4
  -3  -5   3 6297.92 571.993   2
   3  -5  -3 6802.59 649.614   3
   3   5  -3 6255.70 370.019   5
  -3  -5   2 124388. 2711.25   3
  -3   5   2 126287. 3145.52   4
  -3  -5   2 125585. 2924.94   2
   3  -5  -2 119838. 2918.52   3
  -3   5   2 126651. 2576.33   3
   3   5  -2 125247. 2214.71   5
  -3  -5   1 6882.90 569.237   3
  -3   5   1 6780.35 676.749   4
  -3   5   1 7128.08 500.463   3
   3  -5  -1 6783.95 595.772   3
   3   5  -1 6215.47 412.902   5
  -3  -5   0 2758.56 376.532   3
  -3   5   0 2305.56 396.576   4
   3  -5   0 2508.14 356.870   3
  -3   5   0 2644.23 302.071   3
   3   5   0 2446.39 276.112   5
  -3  -5  -1 2274.24 365.296   3
  -3   5  -1 1863.28 384.553   4
   3  -5   1 1640.89 316.433   2
   3   5   1 1711.76 260.044   5
  -3   5  -1 2049.07 258.519   3
  -3  -5  -2 37211.5 1461.27   3
  -3   5  -2 36143.6 1610.76   4
   3  -5   2 35243.9 1441.86   2
  -3   5  -2 36947.6 1045.61   3
   3   5   2 37249.6 1219.95   5
  -3  -5  -3 53886.3 1836.52   3
  -3   5  -3 51458.6 1951.59   4
   3  -5   3 52320.6 1724.30   2
  -3   5  -3 52039.1 1220.29   3
   3   5   3 53578.5 1545.16   5
  -3   5  -4 131535. 3334.39   4
   3  -5   4 130125. 2848.47   2
  -3   5  -4 129418. 2133.82   3
   3   5   4 127073. 2715.40   5
  -3  -5  -4 132377. 3157.33   3
  -3   5  -5 16643.6 1099.10   4
  -3  -5  -5 16203.3 1030.24   3
   3  -5   5 15991.4 852.186   2
   3   5   5 16540.9 887.689   5
  -3   5  -5 16509.4 538.060   3
   3  -5   6 279219. 4535.61   2
  -3   5  -6 281054. 5388.78   4
  -3  -5  -6 279121. 5226.58   3
   3   5   7 3130.03 434.220   5
   3  -5   7 2097.33 294.907   2
  -3  -5  -7 2555.62 446.416   3
  -3   5  -7 2821.71 487.686   4
  -3  -5  -8 207.734 191.543   3
   3   5   8 147.512 137.911   5
  -3   5  -8 219.667 187.250   4
   3  -5   8-78.7442 95.8915   2
  -3   5  -9 7231.67 760.165   4
   3  -5   9 7191.18 417.458   2
   3   5   9 7434.29 703.968   5
  -3  -5  -9 7386.56 764.673   3
  -3   5 -10 5043.38 630.630   4
   3  -5  10 2644.12 200.437   2
   3   5  10 4242.32 550.240   5
  -3  -5 -10 4400.02 602.728   3
  -3   5 -11 323.104 232.127   4
  -3  -5 -11 282.950 228.085   3
   3   5  11 66.6336 237.569   5
  -3   5 -12 34375.4 1704.44   4
  -3  -5 -12 31243.6 1667.95   3
   3   5  12 31631.9 1598.23   5
   3   5  13 3104.99 553.543   5
  -3  -5 -13 1935.10 445.818   3
  -3   5 -13 3976.39 595.909   4
  -3   5 -14 85735.5 2818.24   4
   3   5  14 83651.9 2840.75   5
  -3  -5 -14 88694.8 3019.33   3
  -3  -5 -15 4626.47 673.351   3
  -3   5 -15 5449.54 684.098   4
   3   5  15 4540.08 680.944   5
  -3   5 -16 9542.56 919.061   4
  -3  -5 -16 8812.55 961.191   3
   3   5  16 8181.20 923.884   5
  -3   5 -17 11020.6 1003.02   4
  -3  -5 -17 10525.4 1056.65   3
   3   5  17 10284.1 1045.51   5
  -3   6  17 11538.9 1153.81   5
   3  -6 -17 13584.3 1347.87   3
  -3   6  16 11614.7 1128.41   5
   3  -6 -16 10870.4 1173.25   3
  -3   6  15 2467.73 550.388   5
   3  -6 -15 1768.87 540.827   3
  -3   6  14 32322.5 1702.11   4
   3  -6 -14 29818.4 1906.00   3
  -3   6  14 33342.2 1822.80   5
  -3   6  13 7867.24 824.303   4
   3  -6 -13 8083.04 993.394   3
  -3   6  13 6783.34 820.190   5
  -3   6  12 23107.5 1394.28   4
   3  -6 -12 21932.2 1578.79   3
   3  -6 -11 2299.20 530.796   3
  -3   6  11 1248.94 370.040   4
   3   6 -11 2362.93 412.169   4
  -3   6  10 129895. 3480.62   4
   3   6 -10 120761. 3187.43   4
   3  -6 -10 127427. 3833.11   3
   3  -6  -9 699.441 300.469   3
  -3   6   9 998.066 320.265   4
   3   6  -9 1354.84 330.554   4
   3  -6  -8 2176.11 427.688   3
  -3   6   8 3451.12 521.683   4
   3   6  -8 2399.76 430.484   4
  -3  -6   8 3496.23 432.457   2
   3  -6  -7 1437.43 391.737   3
  -3  -6   7 1592.16 276.850   3
  -3   6   7 1743.82 401.624   4
   3   6  -7 2160.63 412.457   4
  -3  -6   7 1961.23 347.197   2
   3   6  -7 1740.38 214.906   5
  -3  -6   6 3398.82 382.022   3
   3  -6  -6 3252.27 543.819   3
   3   6  -6 3948.46 582.602   4
  -3   6   6 3267.98 512.945   4
  -3  -6   6 3284.03 434.231   2
  -3  -6   5 5103.40 496.844   3
  -3   6   5 6707.63 716.742   4
   3   6  -5 6791.70 740.630   4
   3  -6  -5 4564.97 614.796   3
  -3  -6   4 42537.6 1460.03   3
  -3   6   4 42773.1 1819.20   4
   3   6  -4 40940.9 1863.43   4
   3  -6  -4 42099.7 1816.82   3
  -3  -6   3 11376.1 752.313   3
  -3   6   3 11152.0 909.839   4
   3  -6  -3 11229.4 884.970   3
  -3  -6   2 212438. 3971.23   3
  -3   6   2 211833. 4524.48   4
   3  -6  -2 214564. 4305.93   3
   3   6  -2 207499. 3533.59   5
  -3   6   1 40252.0 1753.37   4
   3  -6  -1 41359.3 1594.83   3
  -3  -6   1 41943.6 1535.80   3
   3   6  -1 42023.3 1316.42   5
   3   6   0 1873.77 275.459   5
  -3   6   0 2171.20 288.244   3
  -3  -6   0 1458.13 320.205   3
  -3   6   0 2350.64 419.744   4
   3  -6   0 2571.38 387.968   3
  -3   6  -1 6359.25 685.185   4
   3   6   1 6544.80 527.887   5
   3  -6   1 5682.49 525.800   3
  -3   6  -1 5254.87 424.547   3
  -3  -6  -1 5759.45 582.627   3
  -3   6  -2 3000.79 488.558   4
   3  -6   2 4044.72 513.514   2
   3   6   2 4209.72 460.861   5
  -3   6  -2 3868.15 353.053   3
  -3  -6  -2 3976.74 501.506   3
  -3  -6  -3 13530.8 931.040   3
  -3   6  -3 12685.2 994.672   4
   3  -6   3 13390.7 902.164   2
   3   6   3 12684.6 801.088   5
  -3   6  -3 13201.5 618.938   3
  -3   6  -4 122099. 3353.29   4
   3  -6   4 125992. 2935.41   2
   3   6   4 122527. 2843.43   5
  -3   6  -4 120888. 2185.60   3
  -3  -6  -4 122982. 3107.28   3
  -3   6  -5 38246.1 969.380   3
  -3   6  -5 37403.7 1769.70   4
   3  -6   5 38929.5 1451.90   2
   3   6   5 43099.8 1591.17   5
  -3  -6  -5 42311.6 1731.28   3
  -3   6  -6 92256.3 2899.17   4
   3  -6   6 96011.2 2339.97   2
  -3  -6  -6 90915.7 2724.37   3
   3   6   6 96557.2 2587.01   5
   3  -6   7 33093.1 1237.55   2
  -3   6  -7 32649.8 1677.37   4
   3   6   7 32851.6 1476.53   5
  -3  -6  -7 33678.5 1617.25   3
   3  -6   8 320.775 145.467   2
  -3  -6  -8 486.749 243.560   3
  -3   6  -8 870.369 322.546   4
   3   6   8 486.490 244.266   5
   3   6   9 2275.89 416.880   5
   3  -6   9 2583.09 282.041   2
  -3  -6  -9 2967.65 527.957   3
  -3   6  -9 2404.14 502.329   4
   3   6  10 51694.4 2084.49   5
  -3  -6 -10 52433.6 2214.19   3
   3   6  11 104.420 211.173   5
  -3  -6 -11-55.6606 206.348   3
  -3   6 -11-115.408 266.955   4
  -3   6 -12 33792.2 1798.57   4
  -3  -6 -12 27715.2 1678.17   3
   3   6  12 32391.8 1697.10   5
  -3  -6 -13 3651.37 652.608   3
  -3   6 -13 3251.53 575.008   4
   3   6  13 3149.18 584.806   5
  -3   6 -14 15423.8 1230.55   4
   3   6  14 15661.8 1254.53   5
  -3  -6 -14 15055.2 1291.55   3
   3   6  15 482.092 260.707   5
  -3  -6 -15 62.0314 253.452   3
  -3   6 -15 405.537 241.888   4
  -3   6 -16 19703.0 1384.95   4
  -3  -6 -16 19237.7 1506.46   3
   3   6  16 20120.2 1483.19   5
   3  -7 -15 46102.9 2579.93   3
  -3   7  15 43212.9 2288.34   5
  -3   7  14 30655.4 1819.62   4
   3  -7 -14 29971.5 2043.73   3
  -3   7  14 31482.6 1893.40   5
  -3   7  13-347.431 375.358   5
   3  -7 -13 628.199 370.909   3
  -3   7  13-167.807 301.298   4
   3  -7 -12 1929.75 539.397   3
  -3   7  12 927.160 281.061   4
  -3   7  11 17164.3 1306.59   4
   3   7 -11 18516.4 1224.82   4
   3  -7 -11 17726.2 1474.13   3
  -3   7  10 15558.9 1241.53   4
   3   7 -10 13620.9 1069.15   4
   3  -7 -10 14559.0 1302.28   3
  -3   7   9 6858.54 836.099   4
   3   7  -9 6522.68 768.371   4
  -3  -7   9 5783.13 486.741   3
   3  -7  -9 6952.20 886.739   3
  -3   7   8 42223.6 2030.60   4
   3   7  -8 37569.3 1853.22   4
   3  -7  -8 38667.1 2049.25   3
  -3  -7   8 41889.0 1382.47   3
  -3   7   7 10728.7 1004.44   4
   3   7  -7 9868.29 976.013   4
   3  -7  -7 10398.5 1024.26   3
  -3  -7   7 10403.5 688.261   3
  -3   7   6 34496.4 1778.12   4
   3   7  -6 29919.0 1727.77   4
   3  -7  -6 32504.0 1751.94   3
  -3  -7   6 33265.8 1278.58   3
  -3  -7   5 1825.38 317.655   3
  -3   7   5 2450.84 457.685   4
   3   7  -5 1415.23 367.981   4
   3  -7  -4 247.489 188.976   3
  -3  -7   4 820.510 250.318   3
  -3   7   4 317.994 223.840   4
   3   7  -4 615.097 301.032   4
  -3   7   3 106466. 3195.65   4
   3   7  -3 110104. 3559.53   4
   3  -7  -3 113247. 3108.98   3
  -3  -7   3 109779. 2675.97   3
  -3   7   2 15897.3 1148.72   4
   3  -7  -2 17867.9 1104.55   3
   3   7  -2 14278.8 813.373   5
  -3  -7   2 16118.6 946.893   3
  -3   7   1 17414.3 1199.78   4
   3  -7  -1 19470.2 1123.66   3
   3   7  -1 17015.9 939.776   5
  -3  -7   1 20968.6 1104.53   3
  -3   7   0 12967.2 1035.99   4
   3  -7   0 14617.2 931.231   3
   3   7   0 13450.3 849.692   5
  -3  -7   0 13716.3 903.577   3
   3  -7   1 139.138 131.307   3
   3   7   1 521.817 232.682   5
  -3  -7  -1 364.991 195.479   3
  -3   7  -1 158.390 223.804   4
  -3   7  -2 37131.2 1781.73   4
   3  -7   2 40052.8 1713.11   2
  -3  -7  -2 37993.8 1606.50   3
  -3   7  -3 20575.5 1314.74   4
   3  -7   3 19054.9 1141.38   2
   3   7   3 21020.6 1141.00   5
  -3  -7  -3 18386.0 1123.90   3
   3  -7   4 7408.14 692.987   2
   3   7   4 6442.14 639.027   5
  -3  -7  -4 6534.69 693.411   3
  -3   7  -5 123985. 3528.36   4
   3  -7   5 128098. 3027.46   2
   3   7   5 130370. 3242.57   5
  -3  -7  -5 126490. 3326.02   3
  -3   7  -6 10138.5 969.303   4
   3  -7   6 10694.8 766.906   2
  -3  -7  -6 9596.66 872.869   3
   3   7   6 9188.35 810.253   5
  -3   7  -7 23365.4 1467.53   4
   3   7   7 24037.6 1357.14   5
   3  -7   7 21774.1 1046.04   2
  -3  -7  -7 25293.6 1450.21   3
   3   7   8 1405.48 365.650   5
  -3   7  -8 1768.30 460.691   4
  -3  -7  -8 2401.94 490.874   3
  -3   7  -9 5100.31 696.949   4
   3   7   9 5017.68 671.462   5
  -3  -7  -9 5996.65 750.049   3
  -3   7 -10 12682.0 1110.11   4
   3   7  10 10894.3 1015.06   5
  -3  -7 -10 12399.9 1105.91   3
   3   7  11 3032.31 563.649   5
  -3  -7 -11 1835.74 486.527   3
  -3   7 -11 2231.42 506.202   4
  -3   7 -12 19714.0 1414.57   4
  -3  -7 -12 21573.0 1561.28   3
   3   7  12 21750.3 1488.85   5
  -3   7 -13 11541.8 1087.44   4
  -3  -7 -13 12076.0 1186.69   3
   3   7  13 13016.6 1180.64   5
   3   7  14 2991.88 619.349   5
  -3  -7 -14 2803.68 664.852   3
  -3   7 -14 2381.29 529.426   4
   3  -8 -12 4485.50 854.822   3
  -3   8  12 4381.62 747.791   4
  -3   8  11 13271.6 1264.74   4
   3  -8 -11 13449.6 1335.48   3
   3  -8 -10 1621.75 539.406   3
  -3   8  10 1088.15 373.742   4
   3   8 -10 2129.25 477.387   4
   3  -8  -9 1954.09 520.931   3
  -3   8   9 2035.62 517.034   4
   3   8  -9 2497.85 531.198   4
   3  -8  -8 2394.17 561.927   3
  -3   8   8 2062.32 496.336   4
   3   8  -8 2487.51 523.689   4
  -3   8   7 19461.1 1465.92   4
   3   8  -7 17795.8 1383.43   4
   3  -8  -7 19626.0 1435.78   3
  -3  -8   7 18053.3 921.063   3
   3  -8  -6 3808.21 628.317   3
  -3   8   6 4222.04 682.861   4
   3   8  -6 3962.25 688.814   4
  -3  -8   6 3913.76 447.053   3
   3  -8  -5 1030.65 365.838   3
  -3   8   5 943.987 384.797   4
  -3  -8   5 1094.15 260.720   3
   3  -8  -4 2667.36 511.347   3
  -3  -8   4 2537.87 393.591   3
  -3   8   4 3307.45 603.836   4
   3   8  -4 2701.48 644.287   4
  -3   8   3 91728.1 3103.32   4
   3  -8  -3 93344.5 2862.75   3
  -3  -8   3 88846.1 2424.74   3
   3   8  -2-4.93358 138.586   5
   3  -8  -2 185.047 222.987   3
  -3  -8   2 251.972 203.834   3
  -3   8   2 519.412 301.075   4
  -3   8   1 6279.86 764.651   4
   3  -8  -1 6323.37 662.224   3
  -3  -8   1 6648.76 651.425   3
   3   8  -1 4725.41 551.931   5
   3   8   0 419.402 226.154   5
   3  -8   0 596.298 231.583   3
  -3   8   0 1002.43 378.316   4
  -3  -8   0 1123.98 344.198   3
   3   8   1 1041.12 297.346   5
  -3  -8  -1 1008.32 323.146   3
  -3   8  -1 1403.70 382.771   4
   3  -8   1 1258.17 298.841   3
  -3   8  -2 6132.60 759.700   4
   3  -8   2 5631.92 674.904   2
   3   8   2 7676.03 741.489   5
  -3  -8  -2 5455.02 635.230   3
   3   8   3 1105.77 310.918   5
  -3  -8  -3 1822.61 385.563   3
  -3   8  -3 1865.91 470.877   4
   3  -8   3 1960.07 406.973   2
   3   8   4 1014.44 309.894   5
  -3  -8  -4 1365.67 353.946   3
  -3   8  -4 1159.50 380.713   4
   3  -8   4 968.780 303.906   2
  -3   8  -5 119347. 3562.41   4
   3   8   5 117343. 3295.75   5
   3  -8   5 118725. 3029.39   2
  -3  -8  -5 121533. 3358.27   3
   3   8   6 346.789 202.039   5
  -3  -8  -6 128.754 258.884   3
  -3   8  -6 128.831 296.163   4
  -3  -8  -7 7408.94 821.559   3
  -3   8  -7 7206.65 872.134   4
   3   8   7 7936.03 845.873   5
  -3   8  -8 19159.0 1375.98   4
  -3  -8  -8 19409.7 1358.34   3
   3   8   8 18299.8 1302.77   5
   3   8   9 5642.35 752.169   5
  -3   8  -9 5834.45 778.188   4
  -3  -8  -9 5707.11 780.949   3
  -3   8 -10 9190.66 976.997   4
  -3  -8 -10 8765.91 985.618   3
   3   8  10 8597.39 962.066   5
   3   8  11 148.754 296.093   5
  -3  -8 -11 162.136 298.643   3
  -3   8 -11-70.8351 252.430   4
  -3   9   7 18967.6 1556.34   4
   3  -9  -7 17257.2 1386.18   3
  -3   9   6 8762.32 1036.20   4
   3  -9  -6 8456.77 931.050   3
   3  -9  -5 304.452 258.802   3
  -3   9   5 171.390 282.678   4
   3  -9  -4 5526.43 707.571   3
  -3   9   4 7863.64 945.164   4
  -3  -9   4 6960.49 646.958   3
  -3   9   3 21304.5 1557.30   4
   3  -9  -3 20599.0 1318.77   3
  -3  -9   3 20165.2 1130.42   3
  -3   9   2 15235.0 1287.61   4
   3  -9  -2 15899.6 1136.10   3
  -3  -9   2 15679.4 1019.71   3
  -3   9   1 14949.4 1261.80   4
  -3  -9   1 17125.2 1087.81   3
   3  -9  -1 15190.2 1064.13   3
  -3   9   0 9753.76 1010.70   4
  -3  -9   0 9135.22 818.087   3
  -3   9  -1 15822.0 1289.68   4
  -3  -9  -1 14242.2 1031.16   3
  -3   9  -2 8187.73 931.240   4
   3  -9   2 7168.91 803.782   2
  -3  -9  -2 6480.33 716.485   3
   3   9   3-281.838 253.712   5
  -3  -9  -3 13.0678 210.397   3
  -3   9  -3 173.426 237.633   4
   3  -9   3 323.378 231.947   2
  -3   9  -4 28075.7 1709.96   4
  -3  -9  -4 29459.8 1606.18   3
   3   9   4 24850.2 1503.20   5
   3   9   5 23185.6 1473.79   5
  -3   9  -5 25387.0 1633.31   4
  -3  -9  -5 21609.2 1410.46   3
  -3  -9  -6 13038.0 1128.76   3
  -3   9  -6 13455.8 1197.29   4
   3   9   6 12156.3 1097.24   5
   4   0 -21 288.202 322.815   1
  -4   0  21-151.871 188.853   5
   4   0 -20 926.014 383.469   1
  -4   0  20 423.823 225.755   5
   4   0 -19 49.4700 241.915   2
  -4   0  19 120.531 173.847   5
   4   0 -19 220.798 219.276   1
   4   0 -18 182307. 3994.94   2
   4   0 -18 176558. 4380.06   1
  -4   0  18 181703. 3779.43   5
  -4   0  17-4.68994 139.343   5
   4   0 -17 75.0489 171.653   2
   4   0 -17 67.1084 163.664   1
   4   0 -16 71.3782 149.567   2
  -4   0  16 246.054 157.631   5
  -4   0  15 164.232 165.691   5
   4   0 -15-41.6242 144.570   2
   4   0 -14 30683.9 1369.55   2
  -4   0  14 29803.3 1159.99   5
   4   0 -13 49.4250 123.599   2
  -4   0  13 56.9210 105.977   5
   4   0 -12 86001.6 2347.45   2
  -4   0  12 85853.8 1946.20   5
  -4   0  11 99.6966 106.053   5
   4   0 -11 97.5116 191.521   2
   4   0 -10 409245. 6564.83   2
  -4   0  10 432570. 5878.00   5
  -4   0   9 301.287 166.636   3
   4   0  -9 5.73391 130.587   2
  -4   0   9 117.404 45.7690   4
  -4   0   9 155.716 95.9709   5
   4   0  -8 44578.2 1532.12   2
  -4   0   8 44623.7 996.847   4
  -4   0   8 42790.9 1470.35   3
  -4   0   7 80.7040 84.9053   3
   4   0  -7 45.5308 113.716   2
  -4   0   7 97.8265 71.1749   4
   4   0  -6 119206. 2634.27   2
   4   0  -5 62.8698 92.1454   2
   4   0  -4 242024. 4155.22   2
   4   0  -3 118.010 104.016   2
   4   0  -2 438562. 6436.52   2
   4   0  -1 15.0475 107.953   2
   4   0   0 40838.9 1360.68   2
  -4   0  -1 143.513 107.332   2
   4   0   1-57.9303 105.207   2
  -4   0  -1 147.999 93.7137   5
  -4   0  -2 316167. 4631.07   5
   4   0   2 300352. 4840.52   2
  -4   0  -2 301836. 4179.03   1
  -4   0  -2 299799. 4825.83   2
  -4   0  -3 339.585 146.658   2
  -4   0  -3 103.421 78.1589   1
   4   0   3 262.989 133.776   2
  -4   0  -3 48.6498 110.055   5
  -4   0  -4 844.085 177.252   1
   4   0   4 1130.51 216.266   2
  -4   0  -4 1506.02 236.566   5
  -4   0  -4 1359.83 247.136   2
  -4   0  -5 32.2540 96.6067   5
   4   0   5 10.6423 87.7454   2
  -4   0  -5-15.1435 98.8988   1
  -4   0  -5 144.477 113.609   2
   4   0   6 272428. 4539.64   2
  -4   0  -6 272788. 4564.56   5
  -4   0  -6 279245. 4595.70   2
  -4   0  -6 274006. 4520.23   1
   4   0   7-9.87893 85.2325   2
  -4   0  -7 36.9132 111.587   1
   4   0   7 119.927 139.365   5
  -4   0  -7 120.861 117.122   2
  -4   0  -7 203.153 170.369   5
   4   0   8 85771.0 2142.63   2
  -4   0  -8 87316.7 2182.98   2
   4   0   8 85295.6 2360.96   5
  -4   0  -8 86496.8 2328.42   1
  -4   0  -9 116.366 154.054   3
  -4   0  -9 504.773 219.398   1
  -4   0  -9 297.908 177.546   2
   4   0   9 247.007 211.367   5
  -4   0 -10 216028. 3836.12   3
  -4   0 -10 209043. 3910.36   2
   4   0  10 211472. 4320.47   5
  -4   0 -10 209119. 4356.14   1
  -4   0 -11 179.190 116.214   3
   4   0  11 355.892 264.930   5
  -4   0 -11 252.205 231.435   1
  -4   0 -11 198.387 184.150   2
  -4   0 -12 70251.9 2045.32   2
   4   0  12 73229.6 2404.69   5
  -4   0 -12 69073.0 2438.88   1
  -4   0 -12 74403.9 1933.07   3
  -4   0 -13-90.2360 142.607   3
  -4   0 -13 8.65626 151.377   1
   4   0  13 137.712 203.028   5
   4   0  14 71017.6 2511.85   5
  -4   0 -14 71625.8 2665.85   1
  -4   0 -14 73881.6 1953.74   3
  -4   0 -15-205.890 135.936   3
  -4   0 -15-230.224 258.388   1
   4   0  15-214.755 210.305   5
  -4   0 -16 39089.9 1431.52   3
   4   0  16 38812.6 1932.68   5
  -4   0 -16 38390.7 2063.22   1
  -4   0 -17 388.573 190.017   3
  -4   0 -17 182.608 252.223   1
   4   0  17 322.471 333.091   5
  -4   0 -18 114421. 3946.71   1
  -4   0 -18 111132. 2669.62   3
   4   0  18 114084. 3645.79   5
  -4   0 -19 93.7225 352.629   1
   4   0  19 178.537 276.348   5
  -4   0 -20 14052.6 1442.79   1
   4   0  20 12557.1 1227.48   5
  -4   1  21 6186.15 715.921   5
   4  -1 -21 4127.58 631.077   2
   4  -1 -21 5485.18 794.076   1
  -4   1  20 1477.49 378.514   5
   4  -1 -20 1754.61 408.065   2
   4  -1 -20 1173.22 388.312   1
  -4  -1  20 1368.68 357.980   5
   4  -1 -19 20746.4 1296.89   2
   4  -1 -19 20433.7 1402.36   1
  -4  -1  19 21691.1 1146.89   5
  -4   1  19 21884.4 1250.82   5
   4  -1 -18 23871.4 1439.47   1
   4  -1 -18 24649.3 1384.04   2
  -4  -1  18 24666.5 1179.85   5
  -4   1  18 24534.0 1283.44   5
   4   1 -18 23497.4 1173.96   2
  -4   1  17 1690.21 350.657   5
   4   1 -17 2524.05 398.010   2
   4  -1 -17 1479.47 329.467   1
   4  -1 -17 1738.57 376.575   2
  -4  -1  17 2829.50 400.479   5
  -4   1  16 1120.05 266.467   5
  -4  -1  16 1510.84 277.500   5
   4   1 -16 1827.65 339.116   2
   4  -1 -16 1546.93 358.417   1
   4  -1 -16 977.431 305.041   2
  -4   1  15 509.972 207.037   5
   4  -1 -15 917.272 243.683   1
   4   1 -15 1167.18 282.166   2
   4  -1 -15 1135.75 294.853   2
  -4  -1  15 1413.56 253.298   5
   4  -1 -14 68979.1 2164.03   1
   4  -1 -14 70278.3 2241.57   2
  -4  -1  14 71325.9 1772.78   5
  -4   1  14 68440.0 1951.67   5
   4   1 -14 70580.0 2051.09   2
   4  -1 -13 4253.77 527.104   2
  -4  -1  13 5180.44 420.975   5
   4  -1 -13 5135.64 527.996   1
  -4   1  13 5201.69 488.879   5
   4   1 -13 4822.95 502.368   2
   4  -1 -12 34478.1 1332.19   1
   4  -1 -12 32648.7 1429.55   2
  -4  -1  12 35123.6 1068.79   5
  -4   1  12 34059.5 1238.43   5
   4   1 -12 34146.5 1343.49   2
   4  -1 -11 104235. 2669.58   2
  -4   1  11 102931. 1722.87   4
  -4  -1  11 106431. 1996.92   5
  -4   1  11 98993.9 2284.73   5
   4   1 -11 107354. 2519.26   2
   4  -1 -10 227813. 3914.72   1
  -4   1  10 239979. 3283.60   4
   4  -1 -10 233178. 4373.80   2
   4   1 -10 236232. 4165.68   2
   4  -1  -9 21180.3 844.581   1
  -4   1   9 21362.1 689.535   4
   4  -1  -9 21052.3 1071.41   2
  -4  -1   9 21799.2 1047.49   3
  -4  -1   9 21801.4 670.352   5
   4   1  -9 21989.6 1014.77   2
  -4  -1   8 10670.6 357.094   4
  -4   1   8 11217.7 548.711   4
   4  -1  -8 10509.6 738.891   2
   4  -1  -8 11343.4 555.925   1
  -4  -1   8 10438.7 314.817   4
  -4  -1   8 11373.1 436.986   5
   4   1  -8 11351.7 704.041   2
   4   1  -7 462.591 154.894   2
  -4  -1   7 382.347 92.1559   5
  -4   1   7 291.631 129.673   3
   4  -1  -7 432.364 185.359   2
  -4   1   7 408.421 135.492   4
   4  -1  -7 284.192 84.7567   1
  -4   1   6 74842.9 1700.51   4
   4  -1  -6 72852.5 2021.42   2
   4   1  -6 71275.5 1892.18   2
   4  -1  -5 62.3495 130.340   2
  -4   1   5 429.658 139.478   4
   4   1  -5 107.713 123.161   2
  -4   1   4 163946. 2895.66   4
   4  -1  -4 173852. 3356.01   2
   4   1  -4 166908. 3191.30   2
   4  -1  -3 202557. 3011.69   2
   4   1  -3 208319. 2879.62   2
   4  -1  -2 606968. 5537.28   2
   4   1  -2 605583. 5361.00   2
   4   1  -1 139180. 2827.39   2
  -4  -1   1 145193. 2240.17   5
   4  -1  -1 136857. 2867.61   2
  -4   1   0 58956.8 1605.23   2
   4   1   0 58725.4 1660.06   2
   4   1   0 57963.9 1235.66   1
   4  -1   0 57053.5 1653.26   2
  -4  -1   0 58304.6 1243.07   5
   4   1   1 15893.1 616.968   1
  -4   1  -1 16499.8 803.675   2
   4   1   1 16322.9 828.633   2
  -4  -1  -1 17155.5 647.558   5
   4  -1   1 17193.7 851.617   2
  -4   1  -2 44178.2 1365.63   2
   4   1   2 40930.8 1361.42   2
   4   1   2 40258.8 1094.81   1
  -4  -1  -2 41514.3 1128.23   5
   4  -1   2 39534.4 1349.03   2
  -4   1  -3 8241.74 572.024   2
  -4  -1  -3 8763.49 507.409   5
   4   1   3 7395.32 558.080   2
   4  -1   3 7348.60 550.750   2
   4   1   3 8082.13 547.813   5
  -4   1  -3 8806.41 600.413   5
  -4  -1  -3 7535.59 573.978   2
  -4   1  -4 118443. 2482.03   2
  -4  -1  -4 107337. 2228.77   5
   4   1   4 114752. 2506.42   2
   4  -1   4 112406. 2453.70   2
  -4  -1  -4 111799. 2525.26   2
   4   1   4 115295. 2429.47   5
  -4   1  -4 112451. 2515.87   5
  -4   1  -5 15987.7 803.537   2
  -4  -1  -5 16954.6 828.569   1
   4   1   5 19551.8 928.785   2
   4  -1   5 15724.7 815.065   2
  -4  -1  -5 17300.2 897.545   2
   4   1   5 17438.4 864.853   5
  -4   1  -5 15391.1 846.676   5
  -4  -1  -5 17930.2 816.076   5
   4   1   6 207978. 3853.81   2
   4  -1   6 219230. 3792.99   2
  -4  -1  -6 209974. 3919.15   2
  -4   1  -6 218686. 3987.43   5
  -4  -1  -6 211789. 3734.47   5
  -4  -1  -6 212923. 3862.67   1
   4   1   6 214157. 3907.48   5
  -4   1  -6 223473. 3791.35   2
   4  -1   7 74646.7 1905.53   2
  -4  -1  -7 78409.8 2106.38   2
  -4  -1  -7 74902.1 2081.87   1
   4   1   7 74781.1 2070.05   5
  -4  -1  -7 76199.1 1993.81   5
  -4   1  -7 73540.4 1894.69   2
  -4  -1  -8 111.773 115.902   3
  -4  -1  -8-53.9986 105.336   1
   4  -1   8-18.1010 116.616   2
  -4   1  -8 170.451 140.669   2
  -4  -1  -8-33.1236 107.061   2
   4   1   8 107.968 144.803   5
  -4  -1  -9 90022.1 2319.19   3
  -4   1  -9 90373.1 2007.22   3
   4   1   9 84784.4 2389.15   5
   4  -1   9 91302.7 2133.42   2
  -4  -1  -9 87122.6 2498.06   1
  -4  -1  -9 87746.5 2335.00   2
  -4   1  -9 88284.1 2127.28   2
  -4  -1 -10 84577.8 2273.47   3
  -4   1 -10 84113.5 1915.97   3
  -4  -1 -10 79878.6 2482.44   1
   4   1  10 80196.0 2376.65   5
  -4   1 -10 82980.3 2072.68   2
  -4  -1 -11 18032.5 990.853   3
  -4  -1 -11 18016.9 1160.33   1
   4   1  11 18611.1 1117.15   5
  -4   1 -11 19168.9 929.154   2
  -4   1 -11 18569.9 820.027   3
  -4  -1 -12 28899.6 1551.13   1
   4   1  12 29767.1 1473.87   5
  -4   1 -12 29314.5 1180.99   2
  -4   1 -12 27380.0 998.064   3
  -4  -1 -12 29049.4 1260.57   3
  -4  -1 -13 6022.36 732.563   1
   4   1  13 6066.48 681.805   5
  -4   1 -13 4734.45 488.506   2
  -4   1 -13 4268.74 382.017   3
  -4  -1 -13 5724.75 560.206   3
  -4  -1 -14 83787.6 2947.65   1
  -4  -1 -14 85931.7 2335.29   3
   4   1  14 86259.4 2787.29   5
  -4   1 -14 88179.1 1967.84   3
  -4   1 -15 93.5745 114.788   3
  -4  -1 -15 528.265 205.332   3
  -4  -1 -15 621.534 322.538   1
   4   1  15 338.320 254.446   5
  -4  -1 -16 12355.9 1177.79   1
  -4  -1 -16 11971.0 838.245   3
   4   1  16 11508.9 1033.39   5
  -4   1 -16 10769.0 645.345   3
  -4  -1 -17 17631.3 1450.57   1
  -4  -1 -17 18896.0 1085.06   3
  -4   1 -17 15751.7 1384.32   1
   4   1  17 16952.8 1315.34   5
  -4  -1 -18 55864.9 2694.59   1
  -4   1 -18 54862.3 2673.15   1
   4   1  18 55116.3 2452.92   5
  -4  -1 -18 53693.3 1910.82   3
  -4  -1 -19 32192.1 2105.55   1
   4   1  19 35472.0 2007.78   5
  -4  -1 -19 32028.4 1466.77   3
  -4   1 -19 33216.9 2139.64   1
  -4   1 -20 255.197 259.079   1
   4   1  20 294.087 276.697   5
  -4  -1 -20-128.163 388.057   1
  -4   2  20 4661.59 624.572   5
   4  -2 -20 5067.71 746.717   1
   4  -2 -19 45173.0 2124.19   1
   4  -2 -19 47748.1 2106.77   2
  -4   2  19 43576.3 1891.29   5
   4  -2 -18 25880.8 1529.69   1
   4  -2 -18 25746.3 1504.56   2
  -4  -2  18 22275.3 1145.52   5
  -4   2  18 25631.3 1385.10   5
   4  -2 -17 31335.1 1632.77   2
  -4   2  17 30540.9 1459.70   5
   4   2 -17 35047.2 1326.57   2
  -4  -2  17 31698.1 1269.14   5
   4  -2 -17 28225.1 1547.79   1
   4  -2 -16 6620.09 736.979   2
  -4   2  16 5945.28 629.244   5
  -4  -2  16 6742.64 548.456   5
   4   2 -16 6616.69 566.825   2
   4  -2 -16 7060.46 728.347   1
   4  -2 -15 23322.1 1273.79   1
   4  -2 -15 23820.0 1359.64   2
  -4  -2  15 24391.7 985.053   5
   4   2 -15 25505.9 1119.62   2
  -4   2  15 22612.3 1183.89   5
   4  -2 -14 5133.86 576.595   1
   4  -2 -14 5542.20 644.345   2
  -4  -2  14 5132.80 424.475   5
   4   2 -14 5044.06 501.946   2
  -4   2  14 5687.46 580.336   5
   4  -2 -13 19787.1 1063.85   1
  -4   2  13 20168.9 782.456   4
   4  -2 -13 20343.6 1201.17   2
  -4  -2  13 21560.0 805.310   5
   4   2 -13 21676.0 1004.72   2
  -4   2  13 19248.3 1033.76   5
  -4   2  12 1125.51 259.333   5
   4  -2 -12 1307.25 262.962   1
   4  -2 -12 1514.67 354.191   2
  -4   2  12 1395.43 203.783   4
   4   2 -12 868.950 244.813   2
  -4  -2  12 806.090 163.094   5
  -4   2  11 276635. 4253.66   4
   4  -2 -11 274861. 5260.95   2
   4   2 -11 291606. 4793.76   2
  -4  -2  11 301941. 4032.49   5
  -4   2  10 98435.1 1996.32   4
   4  -2 -10 96678.0 2637.26   2
  -4  -2  10 92846.2 2388.68   3
   4   2 -10 95215.6 2272.07   2
  -4  -2  10 97133.4 1624.60   5
  -4   2   9 130495. 2456.18   4
   4  -2  -9 129854. 3097.40   2
   4   2  -9 132296. 2726.54   2
  -4  -2   9 128085. 1880.49   5
  -4   2   8 332.474 133.858   4
  -4  -2   8 283.632 66.7040   4
   4  -2  -8 228.282 180.121   2
   4   2  -8-0.59341 98.5886   2
  -4  -2   8 91.8824 32.7666   5
  -4   2   7 40591.6 1340.12   4
  -4  -2   7 40635.3 894.289   4
   4  -2  -7 39374.7 1524.97   2
   4   2  -7 39629.8 1335.27   2
  -4   2   6 535.141 164.391   3
  -4   2   6 855.282 210.307   4
   4  -2  -6 667.476 208.091   2
  -4  -2   6 606.403 117.337   4
   4   2  -6 589.045 180.791   2
  -4   2   5 191.652 114.817   3
   4  -2  -5 178.286 140.628   2
  -4   2   5 296.451 109.383   4
  -4  -2   5 29.1739 74.9136   4
   4   2  -5 139.257 103.275   2
  -4   2   4 7751.43 566.163   4
   4  -2  -4 8049.71 640.013   2
  -4   2   4 8422.46 567.381   3
   4   2  -4 8848.53 606.884   2
   4  -2  -3 465713. 7015.85   2
  -4   2   3 464859. 5683.36   1
  -4   2   3 466383. 6568.87   3
   4   2  -3 468540. 6707.01   2
   4  -2  -2 88986.7 2219.38   2
  -4   2   2 88442.3 1941.97   3
   4  -2  -1 524440. 7753.40   2
   4   2  -1 507398. 7496.87   2
  -4   2   1 509684. 7249.36   3
   4  -2   0 75524.8 2059.81   2
  -4   2   0 75391.7 1885.09   2
   4   2   0 74555.0 1945.58   2
   4  -2   1 48999.2 1571.53   2
  -4   2  -1 51281.2 1479.20   2
   4   2   1 52310.9 1582.66   2
   4   2   1 51287.7 1293.65   5
  -4   2  -2 33876.6 1156.94   2
   4   2   2 31422.4 1195.89   2
   4   2   2 30497.3 1030.25   5
   4   2   2 32306.6 1104.88   1
   4  -2   2 32476.3 1235.96   2
  -4  -2  -3 1673.90 217.498   5
   4   2   3 1757.46 250.380   5
   4  -2   3 995.584 230.949   2
   4   2   3 1412.53 233.208   1
  -4   2  -3 977.491 199.542   2
   4   2   3 1415.29 257.582   2
   4   2   4 3992.92 395.940   1
  -4   2  -4 3591.88 361.844   2
   4   2   4 3502.62 405.108   2
  -4  -2  -4 4001.08 463.751   2
   4   2   4 3962.46 385.289   5
   4  -2   4 2940.93 364.609   2
  -4  -2  -4 4164.54 364.768   5
  -4   2  -5 227069. 3728.53   2
  -4  -2  -5 217016. 4127.73   2
  -4   2  -5 220843. 4155.60   5
   4  -2   5 226838. 3899.87   2
   4   2   5 218270. 3921.00   1
   4   2   5 220183. 3836.73   5
  -4  -2  -5 218048. 3674.82   5
  -4   2  -6 8418.13 552.987   2
  -4  -2  -6 6759.71 607.153   2
   4  -2   6 8554.87 589.631   2
   4   2   6 7905.02 593.774   5
  -4  -2  -6 7723.13 557.708   5
  -4  -2  -7 65168.1 2013.03   3
  -4   2  -7 68277.9 1712.26   2
   4  -2   7 67207.4 1753.18   2
   4   2   7 65279.6 1893.79   5
  -4  -2  -7 63379.6 1785.33   5
  -4  -2  -8 14625.4 919.287   3
  -4   2  -8 16043.7 769.440   2
   4  -2   8 15051.3 766.960   2
   4   2   8 14615.2 884.141   5
  -4  -2  -9 138078. 3193.47   3
  -4   2  -9 138255. 2434.41   3
  -4   2  -9 131892. 2651.70   2
   4  -2   9 139432. 2711.91   2
   4   2   9 132047. 3087.77   5
  -4   2 -10 126243. 2254.23   3
  -4   2 -10 125642. 2534.78   2
  -4  -2 -10 117346. 3199.53   1
   4  -2  10 127172. 2516.26   2
   4   2  10 117492. 2964.86   5
  -4  -2 -10 121411. 3021.48   3
  -4   2 -11 64215.4 1688.47   2
  -4  -2 -11 64722.9 2347.67   1
   4   2  11 63843.7 2127.55   5
  -4   2 -11 65914.0 1447.20   3
  -4  -2 -11 64154.6 2083.76   3
  -4  -2 -12 708.172 286.514   1
  -4   2 -12 499.559 161.127   2
  -4   2 -12 619.860 140.638   3
  -4  -2 -12 583.266 249.132   3
   4   2  12 765.504 261.870   5
  -4   2 -13 26608.0 1026.42   2
  -4  -2 -13 28039.1 1619.76   1
   4   2  13 24450.6 1372.05   5
  -4   2 -13 27005.6 844.651   3
  -4  -2 -13 26053.1 1294.92   3
  -4   2 -14 238.317 107.561   3
  -4  -2 -14 54.3559 183.223   3
  -4  -2 -14 514.482 297.061   1
   4   2  14 291.671 233.327   5
  -4   2 -15 2041.40 232.921   3
  -4  -2 -15 2639.85 434.221   3
  -4  -2 -15 2196.49 514.799   1
   4   2  15 2231.63 478.257   5
  -4  -2 -16 1905.02 392.745   3
  -4  -2 -16 1215.63 401.826   1
   4   2  16 1504.35 400.952   5
  -4  -2 -17 78751.3 3211.68   1
   4   2  17 75869.3 2829.32   5
  -4  -2 -17 80268.5 2555.62   3
   4   2  18 35988.6 1962.38   5
  -4  -2 -18 40323.1 2326.18   1
  -4  -2 -18 36364.2 1674.91   3
  -4  -2 -19 39780.8 2371.34   1
  -4  -2 -19 38492.2 1748.31   3
   4   2  19 40247.6 2152.84   5
  -4   3  20 2444.55 503.748   5
   4  -3 -20 1703.30 478.381   2
   4  -3 -19 28509.7 1713.10   2
  -4   3  19 25810.3 1497.94   5
  -4   3  18 17995.0 1218.40   5
   4  -3 -18 18688.7 1360.42   2
   4  -3 -17 63708.9 2521.86   2
  -4   3  17 63772.3 2294.67   5
  -4   3  16 2162.41 387.135   5
   4  -3 -16 1898.88 464.474   2
   4  -3 -15 51476.0 2191.84   2
  -4   3  15 52235.2 1975.38   5
  -4   3  14 3496.64 492.773   5
  -4   3  14 3217.00 379.961   4
   4   3 -14 3068.71 373.212   2
   4  -3 -14 4034.26 606.458   2
  -4   3  13-58.9888 175.988   5
   4  -3 -13-43.3750 167.365   4
  -4   3  13 33.3712 96.1751   4
   4  -3 -13 95.5554 169.975   2
   4   3 -13 156.765 139.023   2
   4  -3 -12 3131.37 394.217   4
  -4   3  12 2816.52 343.382   4
   4   3 -12 2599.22 350.335   2
   4  -3 -12 2946.49 492.183   2
   4  -3 -11 68311.8 1979.11   4
  -4   3  11 71227.0 1839.79   4
   4  -3 -11 70164.0 2392.85   2
   4   3 -11 71066.1 1840.38   2
   4  -3 -10 9003.56 676.286   4
  -4  -3  10 8659.94 355.420   4
   4  -3 -10 8701.72 804.481   2
   4   3 -10 9777.93 633.868   2
  -4  -3   9 175688. 2718.45   4
   4  -3  -9 176653. 3981.87   2
   4   3  -9 184689. 3342.01   2
  -4  -3   8 5293.60 330.828   4
   4  -3  -8 5360.57 602.476   2
   4   3  -8 5274.02 464.721   2
  -4  -3   7 33547.6 922.671   4
   4  -3  -7 37060.1 1577.35   2
   4   3  -7 33879.5 1214.22   2
  -4   3   6 1260.19 276.143   4
  -4  -3   6 1017.67 159.811   4
   4  -3  -6 1320.42 311.996   2
   4   3  -6 800.257 203.787   2
  -4   3   6 958.945 176.754   1
  -4   3   5 248.583 97.6616   1
  -4   3   5 512.570 200.094   4
  -4  -3   5 490.613 124.814   4
   4  -3  -5 176.162 162.234   2
   4   3  -5 82.3117 108.799   2
  -4   3   4 18813.4 1020.69   4
  -4   3   4 17880.0 695.580   1
  -4  -3   4 20617.5 792.110   4
   4  -3  -4 18554.1 1058.61   2
   4   3  -4 20068.0 927.024   2
  -4   3   4 19070.4 876.225   3
  -4  -3   4 21525.7 1058.94   2
  -4   3   3 414119. 6560.23   4
   4  -3  -3 415049. 6692.26   2
  -4  -3   3 416507. 5870.06   4
   4   3  -3 416702. 6210.12   2
  -4   3   3 410715. 6059.05   3
  -4  -3   3 432172. 6602.82   2
  -4   3   2 12884.2 819.322   4
   4  -3  -2 11745.1 826.073   2
  -4  -3   2 14965.4 719.868   4
   4   3  -2 14731.3 800.715   2
  -4   3   2 12909.6 687.576   3
  -4  -3   2 15725.1 915.512   2
  -4   3   1 134962. 2962.79   4
   4  -3  -1 138699. 3076.18   2
  -4  -3   1 140402. 2689.37   4
   4   3  -1 139314. 2823.54   2
  -4   3   1 138396. 2592.77   3
  -4  -3   1 144520. 3114.71   2
   4  -3   0 2151.87 349.908   2
  -4   3   0 2125.36 330.908   4
  -4  -3   0 1894.79 283.802   4
   4   3   0 2155.64 303.390   2
  -4   3   0 2686.84 304.520   3
   4   3   0 2111.76 220.449   5
  -4  -3   0 2309.57 363.098   2
  -4   3  -1 384.462 125.640   3
   4  -3   1 271.983 171.259   2
  -4   3  -1 156.031 161.132   4
   4   3   1 568.200 184.970   2
  -4  -3  -1 275.186 137.604   4
  -4  -3  -1 502.285 176.378   2
  -4  -3  -2 396.329 108.779   5
  -4   3  -2 376.385 138.190   3
   4  -3   2 283.980 164.563   2
  -4   3  -2 359.949 166.983   4
  -4  -3  -2 376.301 166.022   4
  -4  -3  -2 404.526 194.403   2
   4   3   2 471.936 133.769   5
   4  -3   3 29113.8 1209.68   2
  -4   3  -3 28938.8 1266.54   4
   4   3   3 32264.9 1271.38   1
  -4   3  -3 31577.3 975.644   3
   4   3   3 31321.5 1058.14   5
  -4  -3  -3 28650.5 965.795   5
  -4  -3  -4 246.432 111.490   5
  -4   3  -4 213.410 152.052   4
   4  -3   4 90.8916 115.141   2
  -4   3  -4 79.7614 74.5046   3
   4   3   4 34.4924 157.268   1
   4   3   4 131.487 119.894   5
  -4  -3  -5 261059. 4822.93   3
   4   3   5 271314. 4767.37   1
   4  -3   5 274369. 4536.01   2
  -4   3  -5 265018. 3881.20   3
   4   3   5 266210. 4411.51   5
  -4  -3  -6 253.332 159.174   5
   4  -3   6-56.5681 109.060   2
   4   3   6 208.613 153.516   5
  -4  -3  -7 8501.13 741.675   3
  -4   3  -7 7443.23 501.930   2
   4  -3   7 7383.87 552.495   2
   4   3   7 8293.53 645.762   5
  -4  -3  -8 19799.2 1148.32   3
  -4   3  -8 19564.5 813.833   2
   4  -3   8 20614.5 894.976   2
   4   3   8 19457.5 1034.41   5
  -4   3  -9 101057. 1753.30   3
  -4   3  -9 99569.6 2056.54   2
   4  -3   9 103645. 2182.52   2
   4   3   9 93248.9 2551.85   5
  -4  -3  -9 90815.5 2690.01   3
   4  -3  10 32381.2 1063.57   2
  -4   3 -10 29925.7 995.402   2
   4   3  10 29982.4 1403.55   5
  -4  -3 -10 29078.5 1444.09   3
  -4   3 -10 30556.5 778.045   3
  -4   3 -11 73820.2 1641.52   2
   4   3  11 69724.5 2284.15   5
  -4   3 -11 71293.0 1270.49   3
  -4  -3 -11 68988.4 2325.80   3
  -4   3 -12 14910.1 455.628   3
   4   3  12 14809.5 1043.57   5
  -4  -3 -12 14247.0 1021.19   3
   4   3  13 29912.4 1533.17   5
  -4  -3 -13 30768.4 1534.64   3
  -4  -3 -14 3103.84 517.343   3
   4   3  14 3204.30 522.719   5
  -4  -3 -15 4591.95 596.875   3
   4   3  15 4349.64 643.527   5
   4   3  16 13808.4 1154.27   5
  -4  -3 -16 15290.6 1114.45   3
  -4  -3 -17 122062. 3449.62   3
   4   3  17 114612. 3589.60   5
  -4  -3 -18 3565.38 598.614   3
   4   3  18 3653.09 669.568   5
  -4  -3 -19 20221.6 1355.02   3
   4   3  19 20221.6 1532.10   5
   4  -4 -19 14959.7 1343.20   2
  -4   4  19 16949.2 1284.44   5
  -4   4  18 2430.82 497.469   5
   4  -4 -18 2197.72 537.086   2
   4  -4 -17 22687.3 1575.25   2
   4  -4 -17 22404.2 1558.83   3
  -4   4  17 20768.3 1359.15   5
  -4   4  16 42.1900 200.356   5
   4  -4 -16-13.5828 320.757   3
   4  -4 -16 129.006 264.152   2
  -4   4  15 25305.1 1233.48   4
   4  -4 -15 27998.3 1720.05   2
   4  -4 -15 27118.9 1664.94   3
  -4   4  15 28044.3 1519.40   5
  -4   4  14 26273.4 1214.54   4
   4   4 -14 27801.2 997.744   2
   4  -4 -14 25783.2 1598.77   3
  -4   4  14 25941.2 1431.28   5
  -4   4  13 7502.64 642.347   4
   4   4 -13 7815.94 535.170   2
   4  -4 -13 8557.51 898.433   3
  -4   4  12 15165.7 908.977   4
   4   4 -12 15659.2 773.898   2
   4  -4 -12 15195.2 1173.06   3
  -4   4  11 41934.7 1554.32   4
   4   4 -11 44466.5 1362.95   2
   4  -4 -11 44290.0 1979.16   3
  -4  -4  10 89442.1 1852.25   4
  -4   4  10 86510.2 2349.43   4
   4  -4 -10 87489.0 2820.11   3
  -4  -4   9 59857.9 1831.96   2
  -4  -4   9 59272.8 1525.91   4
  -4   4   9 60081.0 1904.95   4
   4   4  -9 62624.3 1692.05   2
   4  -4  -9 61751.2 2261.74   3
   4  -4  -8 1517.08 351.984   3
  -4  -4   8 1240.20 268.765   2
  -4  -4   8 1474.19 232.684   4
  -4   4   8 1376.39 286.632   4
   4   4  -8 1496.47 265.470   2
  -4   4   8 1052.67 228.355   1
  -4   4   7 27446.5 1106.51   1
  -4  -4   7 26313.6 954.073   4
  -4   4   7 29012.2 1303.59   4
   4   4  -7 29910.7 1134.17   2
   4  -4  -7 28076.5 1513.76   2
   4  -4  -7 28171.0 1432.05   3
  -4  -4   7 29093.1 1267.61   2
  -4  -4   6 149.249 181.494   2
  -4   4   6 402.841 185.780   4
  -4  -4   6 156.081 103.541   4
   4   4  -6 72.8752 121.389   2
   4  -4  -6 419.984 214.122   3
   4  -4  -6 78.2668 147.080   2
  -4   4   6 88.7588 92.5953   1
  -4   4   5 2718.19 327.806   1
  -4  -4   5 3197.24 331.426   4
   4   4  -5 3221.86 380.551   2
  -4   4   5 3034.92 447.054   4
   4  -4  -5 2566.75 462.520   2
  -4  -4   5 3626.45 456.214   2
  -4   4   4 43086.3 1695.43   4
  -4  -4   4 42838.6 1306.15   4
   4   4  -4 44366.9 1442.28   2
   4  -4  -4 41563.2 1761.88   2
  -4  -4   4 44508.8 1653.67   2
  -4   4   3 157919. 3573.54   4
  -4  -4   3 154679. 2944.01   4
   4   4  -3 155737. 3122.30   2
   4  -4  -3 153724. 3661.87   2
  -4   4   3 157818. 3014.57   3
  -4  -4   3 157780. 3472.07   2
  -4   4   2 340625. 5944.06   4
  -4  -4   2 350993. 5261.90   4
   4  -4  -2 328832. 5957.00   2
  -4  -4   2 360613. 5922.01   2
  -4   4   2 347041. 5163.44   3
   4   4  -2 323201. 4316.23   5
  -4   4   1 92873.8 2598.94   4
  -4  -4   1 92159.1 2209.57   4
   4  -4  -1 95228.2 2649.47   2
  -4   4   1 95788.3 2089.73   3
   4   4  -1 93784.4 1688.64   5
  -4   4   0 68763.0 2185.08   4
   4  -4   0 67509.4 2159.30   2
  -4  -4   0 71773.4 1927.01   4
  -4   4   0 67522.1 1668.07   3
   4   4   0 74954.0 1531.11   5
  -4   4  -1 12364.0 869.378   4
   4  -4   1 12947.0 874.041   2
  -4   4  -1 13243.3 647.200   3
   4   4   1 13724.8 630.862   5
   4  -4   2 2102.87 357.079   2
  -4   4  -2 2238.82 390.408   4
  -4   4  -2 2381.25 266.210   3
   4   4   2 2281.93 278.638   5
  -4  -4  -3 5872.77 596.604   3
  -4   4  -3 6543.69 643.301   4
   4  -4   3 5815.91 566.700   2
  -4   4  -3 6098.43 402.958   3
   4   4   3 6211.57 480.310   5
   4  -4   4 38939.7 1466.17   2
  -4  -4  -4 39837.0 1594.70   3
  -4   4  -4 37985.4 1589.86   4
  -4   4  -4 37905.3 1021.72   3
   4   4   4 35596.7 1253.63   5
  -4  -4  -5 97775.2 2717.12   3
  -4   4  -5 102721. 2793.26   4
  -4   4  -5 104561. 1857.93   3
   4   4   5 97871.8 2340.81   5
   4  -4   5 108375. 2545.74   2
  -4  -4  -6 84697.0 2543.63   3
  -4   4  -6 87688.2 2589.51   4
  -4   4  -6 87300.5 1582.87   3
   4   4   6 89600.8 2277.84   5
   4  -4   6 90220.9 2228.48   2
  -4  -4  -7 18666.2 1155.46   3
  -4   4  -7 17443.5 1116.40   4
  -4   4  -7 18534.3 561.958   3
   4  -4   7 18948.1 916.068   2
   4   4   7 17854.0 975.653   5
  -4   4  -8 4558.79 590.461   4
   4  -4   8 4268.17 412.146   2
  -4   4  -8 4115.38 221.192   3
   4   4   8 4619.74 523.782   5
  -4  -4  -8 4161.09 570.880   3
  -4   4  -9 40550.3 729.731   3
  -4   4  -9 48746.8 1943.22   4
   4  -4   9 49505.9 1366.12   2
  -4   4  -9 40093.7 698.456   3
   4   4   9 46825.4 1726.85   5
  -4  -4  -9 45960.0 1905.31   3
  -4   4 -10 29405.4 1524.29   4
   4  -4  10 32053.4 1027.08   2
   4   4  10 31361.4 1452.95   5
  -4  -4 -10 30548.8 1559.31   3
  -4   4 -11 27014.3 1481.05   4
   4  -4  11 29259.6 898.984   2
   4   4  11 28553.4 1435.78   5
  -4  -4 -11 29877.3 1553.72   3
  -4   4 -12 8322.21 832.969   4
   4   4  12 8463.69 807.695   5
  -4  -4 -12 8462.52 841.655   3
  -4   4 -13 27779.8 1534.55   4
   4   4  13 25631.5 1456.99   5
  -4  -4 -13 23482.6 1418.10   3
  -4   4 -14 6513.15 753.728   4
   4   4  14 6234.42 749.762   5
  -4  -4 -14 7268.04 809.910   3
  -4  -4 -15 2064.94 454.344   3
  -4   4 -15 2273.51 479.764   4
   4   4  15 2202.69 492.372   5
  -4  -4 -16 184.652 206.731   3
  -4   4 -16 62.9040 204.344   4
   4   4  16 334.359 220.747   5
  -4   4 -17 39187.9 1926.68   4
   4   4  17 42347.5 2135.57   5
  -4  -4 -17 41233.8 2065.98   3
  -4   4 -18 44900.9 2089.38   4
   4   4  18 47307.9 2341.15   5
   4  -5 -18 72291.7 3142.41   2
   4  -5 -18 73119.9 3114.99   3
  -4   5  18 68320.4 2737.72   5
  -4   5  17 391.017 283.361   5
   4  -5 -17 1513.66 525.385   3
   4  -5 -16 4607.12 765.320   3
  -4   5  16 6782.92 813.243   5
  -4   5  15 4152.76 646.148   5
   4  -5 -15 4525.11 744.725   3
  -4   5  15 3433.08 503.542   4
  -4   5  14 15099.7 1018.38   4
   4  -5 -14 16445.5 1363.89   3
  -4   5  14 14661.6 1152.00   5
  -4   5  13 28446.7 1421.49   4
   4  -5 -13 32987.3 1901.40   3
  -4   5  12 10610.6 859.035   4
   4  -5 -12 11700.6 1108.31   3
  -4   5  11 23562.9 1286.74   4
   4  -5 -11 24744.8 1593.03   3
  -4  -5  10 206590. 3909.32   2
  -4   5  10 195523. 4223.62   4
   4  -5 -10 201273. 4895.47   3
   4  -5  -9 975.568 354.071   3
  -4  -5   9 1251.70 279.744   2
  -4  -5   9 1690.83 297.539   4
  -4   5   9 1466.59 332.452   4
  -4  -5   8 2536.95 392.875   2
   4  -5  -8 2135.65 456.554   3
  -4  -5   8 1576.40 277.585   4
  -4   5   8 2349.71 402.486   4
  -4  -5   7 16776.5 872.528   4
  -4   5   7 17010.0 1077.38   4
   4  -5  -7 17519.7 1215.33   3
  -4   5   7 15921.2 928.536   1
  -4  -5   7 16951.5 1013.25   2
  -4   5   6 3119.32 405.607   1
   4  -5  -6 3483.93 535.866   3
  -4  -5   6 3431.15 386.383   4
  -4   5   6 4078.10 540.613   4
  -4   5   5 22446.9 1254.40   4
  -4  -5   5 21082.1 971.246   4
   4  -5  -5 22794.4 1319.84   3
  -4   5   4 30674.7 1476.39   4
   4  -5  -4 27476.2 1560.88   2
   4  -5  -4 29032.8 1454.20   3
  -4   5   3 6217.95 678.423   4
   4  -5  -3 5699.53 688.833   2
   4   5  -3 4444.08 258.507   5
  -4   5   2 286352. 5471.51   4
   4   5  -2 284920. 3950.00   5
  -4   5   1 11956.1 933.973   4
   4  -5  -1 12931.1 979.369   2
  -4   5   1 14246.9 753.901   3
   4   5  -1 13395.3 594.951   5
  -4   5   0 438.613 146.038   3
   4   5   0 84.7341 82.7579   5
  -4   5   0 2.11563 152.457   4
   4  -5   0-11.2673 139.893   2
  -4  -5  -1 51756.4 1799.62   3
  -4   5  -1 48718.7 1960.88   4
   4  -5   1 50957.4 1912.53   2
  -4   5  -1 49463.9 1382.35   3
   4   5   1 49186.0 1389.95   5
  -4  -5  -2 38616.7 1567.98   3
  -4   5  -2 36781.1 1691.22   4
   4  -5   2 36345.5 1568.34   2
  -4   5  -2 37195.8 1120.97   3
   4   5   2 39015.8 1270.42   5
   4  -5   3 3646.45 484.200   2
  -4  -5  -3 3166.13 474.876   3
  -4   5  -3 3138.40 499.520   4
  -4   5  -3 3679.81 321.965   3
   4   5   3 3653.88 412.595   5
  -4  -5  -4 14101.2 968.455   3
  -4   5  -4 16139.6 1107.26   4
   4  -5   4 14793.1 940.640   2
  -4   5  -4 15938.3 636.678   3
   4   5   4 14078.9 812.969   5
   4   5   5 2470.39 370.838   5
   4  -5   5 2776.15 409.100   2
  -4  -5  -5 2293.27 405.800   3
  -4   5  -5 2564.65 469.642   4
  -4   5  -5 2903.01 254.767   3
  -4   5  -6 55358.8 2141.26   4
  -4   5  -6 53115.5 1117.42   3
   4   5   6 57619.5 1850.98   5
   4  -5   6 56572.3 1788.49   2
  -4  -5  -6 56821.1 2111.03   3
  -4   5  -7 11039.0 942.499   4
   4   5   7 11604.6 833.089   5
  -4   5  -7 10312.7 367.939   3
   4  -5   7 10648.1 713.841   2
  -4  -5  -7 10436.4 900.088   3
  -4   5  -8 25938.4 1471.72   4
   4  -5   8 26654.6 1086.22   2
   4   5   8 23973.2 1248.14   5
  -4  -5  -8 24854.1 1420.60   3
  -4   5  -9 21234.8 1337.18   4
   4  -5   9 20323.6 873.108   2
   4   5   9 17914.2 1114.93   5
  -4  -5  -9 18328.7 1235.56   3
  -4   5 -10 180431. 4349.73   4
   4  -5  10 180041. 2992.18   2
   4   5  10 172347. 4002.29   5
  -4  -5 -10 175571. 4317.89   3
  -4   5 -11 5678.50 718.474   4
  -4  -5 -11 4413.02 653.724   3
   4   5  11 5265.99 665.894   5
  -4  -5 -12 257.075 248.761   3
   4   5  12 229.624 215.904   5
  -4  -5 -13 2201.93 504.609   3
  -4   5 -13 2061.27 466.339   4
   4   5  13 2340.51 472.460   5
  -4  -5 -14 3427.70 589.059   3
  -4   5 -14 3271.85 577.567   4
   4   5  14 2550.70 515.186   5
  -4  -5 -15 318.359 297.417   3
  -4   5 -15 363.219 224.067   4
   4   5  15 513.545 266.149   5
  -4   5 -16 23298.4 1499.84   4
   4   5  16 25516.1 1644.91   5
  -4  -5 -16 23167.8 1591.16   3
  -4   6  16 4748.70 747.351   5
   4  -6 -16 5459.15 920.134   3
  -4   6  15-133.926 350.866   5
  -4   6  15 237.821 244.632   4
  -4   6  14 30600.4 1632.19   4
   4  -6 -14 35902.3 2192.34   3
  -4   6  14 32904.9 1851.11   5
   4  -6 -13 2043.06 597.275   3
  -4   6  13 1159.19 346.467   4
  -4   6  12 9166.00 890.027   4
   4  -6 -12 10040.1 1117.44   3
  -4   6  11 19000.3 1256.49   4
   4  -6 -11 19534.0 1521.71   3
  -4   6  10 68192.7 2450.70   4
   4  -6 -10 69877.4 2879.85   3
  -4   6   9 20483.0 1311.08   4
   4  -6  -9 21996.0 1539.42   3
   4  -6  -8 4879.60 740.034   3
  -4   6   8 5392.42 652.715   4
   4  -6  -7 1779.63 476.961   3
  -4   6   7 1700.65 371.018   4
  -4   6   6 70384.0 2451.98   4
   4  -6  -6 71230.1 2670.93   3
   4  -6  -5 4460.91 639.770   3
  -4   6   5 5024.88 634.207   4
   4   6  -5 4057.97 205.146   5
  -4   6   4 77719.3 2553.80   4
   4  -6  -4 74025.9 2534.26   3
   4   6  -4 68684.9 1357.55   5
  -4  -6   3 29826.2 1322.08   3
  -4   6   3 26734.3 1463.30   4
   4  -6  -3 26782.0 1610.79   2
   4  -6  -3 28114.6 1469.24   3
   4   6  -3 31580.1 920.145   5
  -4  -6   2 156206. 3451.45   3
  -4   6   2 159282. 3897.07   4
   4  -6  -2 152748. 4029.10   2
   4   6  -2 163846. 2789.16   5
  -4  -6   1 20275.4 1110.44   3
  -4   6   1 17363.1 1192.82   4
   4  -6  -1 18658.8 1268.53   2
   4   6  -1 20250.2 836.334   5
  -4  -6   0 26821.9 1302.76   3
  -4   6   0 25564.8 1462.31   4
   4  -6   0 24172.8 1397.88   2
   4   6   0 27564.9 1048.03   5
   4   6   1 2034.19 301.526   5
  -4   6  -1 1640.51 246.317   3
  -4  -6  -1 1781.45 359.897   3
  -4   6  -1 1533.44 382.320   4
   4  -6   1 775.103 288.229   2
  -4  -6  -2 25492.5 1320.32   3
  -4   6  -2 25402.1 1467.97   4
   4  -6   2 26443.2 1401.58   2
  -4   6  -2 25122.9 938.166   3
   4   6   2 25076.0 1109.52   5
   4   6   3 283.185 178.113   5
  -4   6  -3 671.970 165.433   3
  -4  -6  -3 595.358 225.399   3
   4  -6   3 550.557 250.607   2
  -4   6  -3 869.131 329.670   4
  -4   6  -4 28702.2 1596.05   4
   4  -6   4 28088.0 1373.03   2
  -4  -6  -4 27192.8 1425.64   3
   4   6   4 27157.0 1242.00   5
  -4   6  -4 27469.7 892.416   3
   4  -6   5 16453.3 1021.42   2
  -4   6  -5 15861.0 1201.59   4
   4   6   5 16955.5 1014.56   5
  -4  -6  -5 18393.4 1188.53   3
   4  -6   6 129790. 3019.00   2
  -4   6  -6 122677. 3596.02   4
   4   6   6 123290. 3094.66   5
  -4  -6  -6 122587. 3347.03   3
   4   6   7 1753.25 376.658   5
   4  -6   7 2213.40 358.108   2
  -4  -6  -7 1728.15 427.884   3
  -4   6  -7 2537.42 530.640   4
   4   6   8 855.495 277.833   5
   4  -6   8 1061.74 252.910   2
  -4  -6  -8 671.426 291.216   3
  -4   6  -8 1036.21 353.381   4
   4   6   9 1220.48 340.410   5
  -4  -6  -9 1418.52 394.121   3
  -4   6  -9 1563.34 376.156   4
  -4   6 -10 24470.6 1564.76   4
   4   6  10 23899.6 1400.86   5
  -4  -6 -10 22432.7 1460.55   3
  -4   6 -11 5583.90 757.876   4
   4   6  11 5247.52 697.842   5
  -4  -6 -11 5664.77 761.618   3
   4   6  12 1407.62 405.429   5
  -4  -6 -12 1217.36 396.773   3
  -4   6 -12 2300.84 519.509   4
   4   6  13 1303.47 428.370   5
  -4  -6 -13 861.766 386.889   3
  -4   6 -13 1276.40 422.476   4
  -4   6 -14 54758.4 2439.36   4
   4   6  14 56540.0 2434.47   5
  -4  -6 -14 48903.9 2383.63   3
  -4  -6 -15 917.579 334.134   3
  -4   6 -15 1019.13 418.711   4
   4   6  15 1322.51 381.306   5
  -4   7  14 13746.3 1182.14   4
   4  -7 -14 15094.2 1512.24   3
  -4   7  14 12116.6 1207.28   5
   4  -7 -13-1127.41 474.519   3
  -4   7  13 48.2369 240.834   4
   4  -7 -12 3449.19 744.993   3
  -4   7  12 2892.00 563.474   4
  -4   7  11 54489.6 2368.50   4
   4  -7 -11 52893.4 2709.98   3
  -4   7  10 28398.1 1670.54   4
   4  -7 -10 25342.4 1826.83   3
  -4  -7   9 23957.7 1112.69   3
  -4   7   9 24222.3 1538.06   4
   4  -7  -9 22490.9 1672.72   3
   4  -7  -8-205.678 284.713   3
  -4  -7   8 332.405 195.880   3
  -4   7   8-97.5260 230.592   4
   4  -7  -7 779.250 355.971   3
  -4  -7   7 1023.96 281.989   3
  -4   7   7 422.076 270.752   4
  -4  -7   6 35077.6 1433.68   3
  -4   7   6 37405.4 1877.93   4
   4  -7  -6 35132.0 1922.46   3
   4  -7  -5 2636.53 516.790   3
  -4  -7   5 2708.93 423.506   3
  -4   7   5 3524.52 592.364   4
   4  -7  -4 3322.92 571.305   3
  -4  -7   4 2054.88 375.329   3
  -4   7   4 2859.58 524.090   4
  -4  -7   3 86086.9 2437.10   3
  -4   7   3 86052.8 2855.03   4
   4  -7  -3 88176.8 2778.44   3
   4   7  -3 79600.3 1857.67   5
  -4  -7   2 14426.6 965.311   3
  -4   7   2 15103.7 1148.95   4
   4  -7  -2 13180.8 1141.13   2
   4   7  -2 13060.0 721.279   5
  -4   7   1 63775.6 2430.47   4
   4  -7  -1 60563.8 2426.40   2
  -4  -7   1 63236.7 2123.29   3
   4   7  -1 63396.0 1787.22   5
   4   7   0 1729.71 312.794   5
  -4  -7   0 1794.87 375.315   3
  -4   7   0 1783.60 424.112   4
   4  -7   0 1518.50 401.981   2
   4   7   1 1453.91 317.223   5
  -4  -7  -1 990.237 302.827   3
  -4   7  -1 1438.32 403.731   4
   4  -7   1 1000.44 330.302   2
  -4   7  -2 72185.4 2658.75   4
   4  -7   2 77173.2 2569.40   2
   4   7   2 77932.1 2251.54   5
  -4  -7  -2 74978.7 2442.26   3
   4   7   3 1355.86 328.946   5
  -4  -7  -3 1764.45 389.975   3
   4  -7   3 1919.18 416.307   2
  -4   7  -3 2364.81 503.338   4
   4   7   4 973.594 315.055   5
  -4  -7  -4 245.362 213.673   3
   4  -7   4 779.628 313.858   2
   4  -7   5 16617.2 1073.25   2
  -4   7  -5 17157.5 1304.70   4
   4   7   5 17960.1 1128.71   5
  -4  -7  -5 17996.7 1203.05   3
   4  -7   6 19190.0 1114.57   2
  -4   7  -6 21468.3 1468.00   4
   4   7   6 21790.4 1281.66   5
  -4  -7  -6 19457.1 1275.33   3
  -4   7  -7 18558.7 1394.02   4
   4   7   7 19440.9 1244.62   5
  -4  -7  -7 21194.6 1367.36   3
  -4   7  -8 8481.97 968.319   4
   4   7   8 8672.32 850.805   5
  -4  -7  -8 8783.27 899.967   3
  -4   7  -9 23102.4 1576.26   4
   4   7   9 24739.9 1480.80   5
  -4  -7  -9 24810.5 1555.18   3
  -4   7 -10 32570.9 1893.10   4
   4   7  10 29957.5 1684.07   5
  -4  -7 -10 33052.9 1836.79   3
   4   7  11 3504.70 626.062   5
  -4  -7 -11 3251.36 614.850   3
  -4   7 -11 3515.79 626.632   4
  -4   7 -12 11926.0 1172.11   4
   4   7  12 10216.4 1024.28   5
  -4  -7 -12 11465.1 1127.09   3
   4  -8 -10 78.9893 271.923   3
  -4   8  10 304.411 315.008   4
  -4   8   9 19433.4 1487.71   4
   4  -8  -9 20690.7 1653.48   3
   4  -8  -8 5597.75 832.635   3
  -4   8   8 7052.81 878.615   4
   4  -8  -7 4622.73 731.768   3
  -4   8   7 4164.58 702.868   4
  -4  -8   7 4759.80 543.775   3
  -4   8   6 7830.63 921.759   4
   4  -8  -6 7413.40 906.070   3
  -4  -8   6 7709.90 687.141   3
   4  -8  -5 519.239 317.766   3
  -4  -8   5 453.230 242.184   3
  -4   8   5 979.875 346.531   4
   4  -8  -4 5581.24 744.509   3
  -4   8   4 6209.38 804.471   4
  -4  -8   4 5921.93 622.983   3
  -4   8   3 65066.4 2595.23   4
   4  -8  -3 71007.4 2847.48   2
   4  -8  -3 67126.2 2442.35   3
  -4  -8   3 61254.0 2100.88   3
  -4  -8   2 1449.74 356.057   3
  -4   8   2 2494.94 508.666   4
   4  -8  -2 2393.61 548.300   2
  -4   8   1 40836.7 1998.79   4
   4  -8  -1 41462.1 2047.84   2
  -4  -8   1 41899.0 1749.67   3
  -4   8   0 5367.65 743.563   4
   4  -8   0 5355.81 715.426   2
  -4  -8   0 6720.40 708.419   3
  -4   8  -1 20708.7 1417.80   4
   4  -8   1 21940.9 1412.67   2
  -4  -8  -1 19716.2 1216.33   3
   4   8   2 2442.93 420.622   5
  -4  -8  -2 1782.51 403.679   3
  -4   8  -2 2618.42 545.839   4
   4  -8   2 1901.03 444.744   2
   4   8   3 1245.94 324.401   5
  -4  -8  -3 2104.83 430.622   3
   4  -8   3 764.136 332.014   2
  -4   8  -3 1267.99 388.290   4
   4   8   4 904.774 341.283   5
  -4  -8  -4 936.537 341.554   3
   4  -8   4 1208.06 341.902   2
  -4   8  -4 1996.31 508.548   4
  -4   8  -5 15988.4 1295.07   4
   4   8   5 16610.2 1184.49   5
  -4  -8  -5 15552.0 1169.80   3
   4   8   6 1142.46 336.303   5
  -4  -8  -6 1596.45 431.512   3
  -4   8  -6 1056.84 433.173   4
  -4   8  -7 12887.9 1178.38   4
   4   8   7 13817.1 1149.52   5
  -4  -8  -7 13297.6 1127.64   3
   4   8   8 3273.37 599.180   5
  -4  -8  -8 3046.98 580.820   3
  -4   8  -8 2743.48 613.958   4
  -4   8  -9 35792.7 2021.64   4
   4   8   9 33849.4 1880.75   5
  -4  -8  -9 35470.0 1915.49   3
  -4   9   4 23256.8 1625.57   4
   4  -9  -4 23354.1 1491.24   3
  -4  -9   4 23132.3 1246.97   3
  -4   9   3 27732.4 1767.47   4
   4  -9  -3 27695.4 1791.77   2
  -4  -9   3 25827.0 1358.30   3
  -4   9   2 29759.3 1810.19   4
   4  -9  -2 27044.0 1761.82   2
  -4  -9   2 30999.6 1504.81   3
  -4   9   1 17023.0 1353.73   4
   4  -9  -1 19114.0 1436.26   2
  -4  -9   1 18192.4 1183.53   3
  -4   9   0 21309.4 1517.94   4
   4  -9   0 19190.9 1424.16   2
  -4  -9   0 21435.0 1297.59   3
  -4   9  -1 11184.6 1088.94   4
   4  -9   1 10288.2 1014.46   2
  -4  -9  -1 10402.0 925.782   3
  -4  -9  -2 1825.09 439.142   3
   4  -9   2 1561.54 415.698   2
  -4   9  -2 1552.69 432.501   4
  -4   9  -3 9433.88 1034.25   4
  -4  -9  -3 7678.03 831.487   3
   5   0 -20 7152.25 850.770   1
   5   0 -19 208.732 232.603   2
   5   0 -19-1.33756 219.192   1
  -5   0  19-14.0725 172.425   5
   5   0 -18 112324. 3157.86   2
   5   0 -18 109122. 3240.94   1
  -5   0  18 110564. 2743.58   5
  -5   0  17 153.950 196.359   5
   5   0 -17 251.078 231.819   2
   5   0 -17 339.459 224.762   1
   5   0 -16 65319.5 2290.62   2
   5   0 -16 63558.7 2198.24   1
  -5   0  16 62935.3 1864.45   5
  -5   0  15 45.9511 119.300   5
   5   0 -15 17.9612 171.724   2
   5   0 -15 98.1882 146.521   1
   5   0 -14 45436.4 1831.50   2
  -5   0  14 41372.5 1354.34   5
  -5   0  13 12.0002 93.2667   5
   5   0 -13 94.5308 141.604   2
   5   0 -12 30276.1 1442.78   2
  -5   0  12 31210.9 1083.38   5
  -5   0  11 123.319 143.522   5
   5   0 -11 360.505 215.966   2
  -5   0  10 489560. 6101.33   4
  -5   0  10 490915. 6691.97   5
   5   0  -9 303.292 212.222   2
  -5   0   9 218.281 99.4686   4
  -5   0   8 110940. 2090.87   4
   5   0  -8 107235. 2751.15   2
  -5   0   7-39.5663 92.4206   4
   5   0  -7 85.2670 147.933   2
  -5   0   6 5135.59 522.594   2
   5   0  -6 4586.33 503.253   2
   5   0  -5 202.380 128.151   2
  -5   0   5 36.7317 124.340   2
   5   0  -5 59.1587 28.5958   1
   5   0  -4 886.325 242.061   2
  -5   0   4 1408.52 271.246   2
  -5   0   3 80.1385 140.856   2
   5   0  -3 258.083 170.601   2
   5   0  -2 689244. 9707.77   2
   5   0  -1 115.228 149.017   2
  -5   0   0 3450.89 430.958   2
  -5   0   0 2468.19 320.896   5
   5   0   0 2464.16 361.690   2
  -5   0  -1 68.4281 120.324   2
   5   0   1 59.8706 109.340   2
  -5   0  -1 316.019 129.134   5
  -5   0  -2 166156. 3394.66   2
   5   0   2 163347. 3388.32   2
  -5   0  -2 160846. 3069.68   5
  -5   0  -3-51.4425 107.958   2
   5   0   3 55.3210 117.077   2
  -5   0  -3 69.2722 74.0883   1
  -5   0  -3-92.0350 91.1177   5
   5   0   4 9267.69 694.967   2
  -5   0  -4 9139.29 561.216   1
  -5   0  -4 10119.9 662.293   5
  -5   0  -4 9805.73 719.700   2
  -5   0  -5 110.110 133.734   2
  -5   0  -5-43.3875 114.599   1
   5   0   5 28.6196 107.234   2
  -5   0  -5 267.355 184.099   5
  -5   0  -6 161441. 3220.80   1
   5   0   6 154349. 3342.14   2
  -5   0  -7-7.36046 113.121   1
   5   0   7 118.458 150.975   2
  -5   0  -7-4.80226 149.128   2
  -5   0  -8 20059.0 1078.22   1
   5   0   8 19404.7 1040.34   2
  -5   0  -9 503.627 221.767   1
   5   0   9 199.406 183.756   2
  -5   0 -10 346604. 6208.19   1
  -5   0 -10 344445. 5669.07   3
  -5   0 -11 565.345 210.238   3
  -5   0 -11 356.503 323.938   1
  -5   0 -12 34724.4 1730.15   1
  -5   0 -12 33939.5 1371.24   3
  -5   0 -13-25.3251 198.340   1
  -5   0 -13-55.1357 119.428   3
  -5   0 -14 18408.1 1357.29   1
  -5   0 -14 17243.6 948.390   3
  -5   0 -15 134.414 259.839   1
  -5   0 -15 34.6047 120.195   3
  -5   0 -16 16849.6 1411.29   1
  -5   0 -16 18389.4 991.771   3
  -5   0 -17 240.276 215.566   3
  -5   0 -17 875.777 434.600   1
  -5   0 -18 216571. 5810.71   1
  -5   0 -19 329.981 434.498   1
   5  -1 -20 387.945 212.550   2
   5  -1 -20 118.352 192.151   1
   5  -1 -19 16322.3 1235.77   2
   5  -1 -19 16014.0 1214.68   1
  -5   1  19 17576.5 1116.01   5
   5  -1 -18 80813.8 2765.07   2
   5  -1 -18 78200.8 2653.98   1
  -5   1  18 79910.2 2395.70   5
   5   1 -18 75116.5 2381.67   2
   5  -1 -17 40857.7 1894.73   2
   5  -1 -17 40702.2 1799.81   1
  -5  -1  17 46287.5 1525.09   5
  -5   1  17 40969.3 1627.48   5
   5   1 -17 45591.9 1775.57   2
   5  -1 -16 16360.6 1158.21   2
   5  -1 -16 15637.6 1045.52   1
  -5  -1  16 16124.5 835.540   5
  -5   1  16 14275.4 894.355   5
   5   1 -16 15094.7 997.515   2
  -5   1  15 211.887 169.148   5
   5   1 -15 66.0011 146.552   2
   5  -1 -15 241.565 236.182   2
   5  -1 -15 155.228 138.925   1
  -5  -1  15 298.652 158.637   5
   5  -1 -14 47405.2 1947.35   2
   5  -1 -14 49345.3 1727.43   1
  -5  -1  14 50716.4 1405.75   5
  -5   1  14 47304.0 1597.96   5
   5   1 -14 48799.1 1809.46   2
  -5  -1  13 498.128 153.473   5
  -5   1  13 478.184 172.394   5
   5   1 -13 267.346 213.289   2
   5  -1 -13 81.9534 153.946   2
   5  -1 -13 286.976 174.201   1
  -5  -1  12 101.832 96.0483   5
   5   1 -12 141.847 154.321   2
  -5   1  12 114.676 143.947   5
   5  -1 -12 2.04201 159.374   2
  -5   1  12 74.2290 58.2902   4
   5  -1 -11 12262.9 921.973   2
  -5   1  11 12234.5 499.870   4
   5  -1 -11 12084.0 691.749   1
  -5  -1  11 12438.5 557.562   5
   5   1 -11 12680.2 863.856   2
   5  -1 -10 119169. 3089.08   2
  -5   1  10 121246. 2165.26   4
   5  -1 -10 116524. 2343.57   1
  -5  -1  10 125247. 2086.14   5
   5   1 -10 114358. 2852.54   2
  -5  -1   9 211466. 3021.59   4
   5  -1  -9 213895. 4388.39   2
  -5   1   9 215954. 3518.75   4
   5  -1  -9 213049. 3349.93   1
   5   1  -9 222155. 4204.68   2
  -5  -1   9 212056. 3098.35   5
   5  -1  -8 15620.8 995.017   2
  -5   1   8 16115.9 781.448   4
   5   1  -8 14293.4 895.037   2
  -5  -1   8 13821.4 507.701   5
   5  -1  -7 4672.80 547.324   2
  -5   1   7 5679.64 463.960   4
  -5  -1   7 6687.43 601.769   2
   5   1  -7 5246.39 530.925   2
  -5   1   6 115773. 2424.22   4
   5  -1  -6 114693. 2909.64   2
  -5  -1   6 115048. 2756.71   2
   5   1  -6 113845. 2734.67   2
   5  -1  -5 287.321 175.605   2
  -5  -1   5 26.5641 125.580   2
  -5   1   5 260.190 128.824   4
   5   1  -5 90.8936 140.785   2
   5  -1  -4 207.088 154.006   2
  -5  -1   4 40.9626 135.459   2
  -5   1   4 337.269 185.220   2
   5   1  -4-39.2819 95.5725   2
  -5  -1   3 20125.9 1052.10   2
  -5   1   3 19572.8 996.506   2
   5   1  -3 18097.9 970.305   2
  -5  -1   3 19604.4 669.446   5
   5  -1  -3 20031.2 1063.49   2
  -5  -1   2 110691. 2682.37   2
  -5   1   2 111906. 2606.39   2
  -5  -1   2 107509. 1984.66   5
   5   1  -2 104954. 2563.90   2
   5  -1  -2 109067. 2696.64   2
  -5   1   1 42383.4 1490.44   2
   5   1  -1 42845.0 999.017   1
   5   1  -1 43799.1 1546.75   2
  -5  -1   1 42364.8 1110.41   5
   5  -1  -1 41867.9 1555.04   2
  -5  -1   1 44725.5 1594.98   2
  -5   1   0 4129.00 454.617   2
   5   1   0 3770.06 442.937   2
  -5  -1   0 3975.44 328.411   5
   5  -1   0 4504.78 490.682   2
   5   1   0 3506.48 271.224   1
  -5   1  -1 20467.9 1005.28   2
  -5   1  -1 19270.1 572.408   1
   5   1   1 21584.5 1065.20   2
  -5  -1  -1 21852.6 824.848   5
   5  -1   1 19444.2 1030.01   2
  -5  -1  -1 22378.9 1099.96   2
  -5   1  -2 262759. 4545.02   2
   5   1   2 254827. 4576.59   2
  -5   1  -2 267192. 4525.24   5
   5  -1   2 254111. 4602.56   2
  -5  -1  -2 251304. 4013.33   5
  -5   1  -2 256417. 3670.37   1
  -5  -1  -2 251659. 4631.35   2
  -5   1  -3 111365. 2616.34   2
   5   1   3 111903. 2677.40   2
  -5   1  -3 108051. 2089.72   1
  -5   1  -3 108953. 2579.27   5
  -5  -1  -3 115731. 2326.53   5
  -5  -1  -3 113666. 2747.84   2
  -5   1  -4 59820.8 1825.53   2
   5   1   4 54144.6 1787.00   2
   5  -1   4 59925.1 1857.31   2
  -5   1  -4 59428.4 1834.67   5
  -5  -1  -4 57084.5 1588.91   5
  -5   1  -5 23071.7 1093.11   2
   5   1   5 20758.1 1069.10   2
   5  -1   5 22675.8 1095.46   2
  -5  -1  -5 22847.5 990.459   5
  -5   1  -6 41835.2 1498.42   2
   5   1   6 39892.1 1530.04   2
   5  -1   6 40981.5 1511.31   2
   5   1   6 40906.2 1545.40   5
  -5   1  -7 2146.02 347.093   2
  -5  -1  -7 1539.75 312.398   1
   5   1   7 961.578 235.649   2
   5  -1   7 1451.80 281.613   2
   5   1   7 1296.67 307.146   5
  -5  -1  -8 4646.77 536.190   1
   5  -1   8 5719.51 540.437   2
   5   1   8 4409.82 535.253   5
  -5   1  -8 5329.69 518.740   2
   5   1   9 25222.7 1308.73   5
  -5  -1  -9 24375.4 1200.08   3
   5  -1   9 24590.4 1140.42   2
  -5  -1  -9 23855.3 1275.59   1
  -5   1  -9 22637.9 1116.67   2
  -5  -1 -10 192399. 3988.95   3
  -5   1 -10 199380. 3623.93   3
   5  -1  10 201722. 3847.42   2
   5   1  10 191537. 4245.15   5
  -5  -1 -10 192119. 4301.21   1
  -5   1 -10 195935. 3880.68   2
  -5  -1 -11 87692.7 2489.59   3
  -5   1 -11 88220.1 2153.65   3
  -5  -1 -11 90686.9 2833.98   1
   5   1  11 88834.3 2740.84   5
  -5  -1 -12 18043.4 1263.26   1
   5   1  12 18455.8 1216.73   5
  -5  -1 -12 18335.0 1076.73   3
  -5   1 -12 18347.4 900.511   3
  -5  -1 -13 8833.04 921.839   1
  -5   1 -13 8882.60 911.481   1
   5   1  13 8354.89 844.872   5
  -5   1 -13 8638.92 604.631   3
  -5  -1 -13 8376.65 719.188   3
  -5  -1 -14 3342.13 606.137   1
  -5  -1 -14 3673.18 483.022   3
  -5   1 -14 3996.86 660.362   1
  -5   1 -14 3210.09 370.703   3
   5   1  14 3273.15 568.162   5
  -5  -1 -15 197.506 201.894   1
  -5   1 -15 479.230 161.167   3
  -5  -1 -15 343.441 179.673   3
  -5   1 -15 895.441 358.410   1
   5   1  15 668.251 346.572   5
  -5  -1 -16 2606.02 562.319   1
  -5  -1 -16 2153.36 395.463   3
  -5   1 -16 1651.77 465.925   1
   5   1  16 2129.33 508.673   5
   5   1  17 32685.6 1912.74   5
  -5  -1 -17 33986.1 2102.82   1
  -5   1 -17 33322.9 2046.96   1
  -5  -1 -17 33895.2 1524.88   3
   5   1  18 70112.3 2904.00   5
  -5  -1 -18 68970.9 3116.46   1
  -5  -1 -18 70044.8 2308.97   3
  -5   1 -18 71982.8 3153.30   1
  -5   2  20 109.094 212.591   5
   5  -2 -20-102.238 280.371   2
   5  -2 -19 32637.2 1820.77   2
  -5   2  19 34133.5 1653.27   5
   5  -2 -18 45208.1 2116.11   2
  -5   2  18 44709.6 1839.51   5
   5  -2 -17 84255.7 2909.65   2
   5   2 -17 89709.9 2459.48   2
  -5   2  17 85804.3 2575.79   5
  -5   2  16-13.2127 189.929   5
   5  -2 -16-196.905 260.796   2
   5   2 -16 113.632 190.233   2
   5  -2 -15 6110.76 728.451   2
   5   2 -15 7558.74 664.408   2
  -5  -2  15 6076.42 474.555   5
  -5   2  15 7212.43 670.479   5
  -5   2  14 822.118 245.380   5
   5  -2 -14 580.955 245.008   2
  -5   2  14 891.392 179.061   4
   5   2 -14 953.245 269.792   2
  -5  -2  14 571.466 155.912   5
  -5   2  13 2794.66 392.927   5
  -5   2  13 3595.64 324.224   4
   5  -2 -13 2820.20 492.222   2
  -5  -2  13 2657.27 254.253   5
   5   2 -13 3197.09 449.890   2
   5  -2 -12 1265.26 352.806   2
  -5   2  12 1089.96 195.037   4
   5   2 -12 1112.10 282.637   2
  -5  -2  12 976.015 142.255   5
  -5   2  11 150912. 2731.45   4
   5  -2 -11 148316. 3669.39   2
   5   2 -11 150669. 3282.03   2
  -5  -2  11 148934. 2216.80   5
  -5   2  10 113793. 2237.31   4
   5  -2 -10 113798. 3006.02   2
   5   2 -10 105791. 2583.78   2
  -5  -2   9 186295. 2035.47   4
   5   2  -9 190007. 3394.02   2
   5  -2  -8 32274.7 1497.30   2
  -5  -2   8 31176.8 1351.76   2
  -5  -2   8 30257.1 803.214   4
   5   2  -8 31394.8 1303.89   2
  -5  -2   7 148.223 159.431   2
   5  -2  -7 276.691 210.820   2
  -5  -2   7 212.209 83.4676   4
   5   2  -7-59.5813 110.802   2
  -5  -2   6 15990.0 963.267   2
   5  -2  -6 15594.2 1007.36   2
  -5  -2   6 14378.6 637.453   4
   5   2  -6 14841.2 874.846   2
  -5  -2   5 20784.8 1109.61   2
   5  -2  -5 19980.9 1138.52   2
   5   2  -5 20666.5 1043.03   2
  -5  -2   4 23010.2 1148.71   2
   5  -2  -4 24805.5 1254.94   2
   5   2  -4 23000.4 1078.51   2
  -5   2   3 138461. 2978.25   4
   5  -2  -3 140128. 3291.43   2
  -5   2   3 141861. 2926.97   3
   5   2  -3 140674. 3053.28   2
  -5  -2   3 135621. 1959.85   5
  -5  -2   3 148010. 3261.12   2
  -5   2   2 66710.2 1908.28   4
   5  -2  -2 70578.4 2173.44   2
  -5   2   2 69159.2 1850.42   3
   5   2  -2 63391.1 1917.12   2
  -5  -2   2 64526.4 1200.66   5
  -5  -2   2 66395.7 2047.68   2
   5  -2  -1 92006.3 2533.73   2
  -5   2   1 93215.6 2349.97   2
   5   2  -1 95800.0 2428.42   2
  -5  -2   1 96964.5 1687.79   5
  -5  -2   1 98794.6 2574.12   2
   5   2   0 69608.9 1664.82   1
  -5   2   0 66068.8 1885.31   2
   5   2   0 64190.4 1935.37   2
  -5  -2   0 63068.8 1368.13   5
   5  -2   0 63714.7 2024.24   2
  -5   2  -1 121048. 2699.69   2
   5   2   1 116286. 2769.12   2
   5   2   1 116662. 2396.03   1
  -5  -2  -1 119701. 2168.98   5
   5  -2   1 119439. 2869.08   2
   5   2   2 26696.3 1026.99   1
   5   2   2 25764.2 1200.88   2
  -5  -2  -2 27858.3 938.476   5
   5  -2   2 29220.1 1298.35   2
  -5   2  -3 187549. 3561.95   2
   5   2   3 182258. 3712.73   2
   5   2   3 182526. 3473.82   5
   5  -2   3 182649. 3733.44   2
  -5  -2  -3 186245. 3179.07   5
   5   2   3 179221. 3347.26   1
  -5   2  -4 4725.78 470.690   2
   5   2   4 5092.01 538.459   2
   5   2   4 5784.71 521.669   5
   5   2   4 5249.58 471.835   1
   5  -2   4 4460.23 497.571   2
  -5  -2  -4 5410.98 451.538   5
  -5   2  -5 11599.0 736.285   2
   5   2   5 11466.2 804.473   2
   5  -2   5 10142.4 739.631   2
   5   2   5 11322.3 754.881   5
  -5  -2  -5 11354.6 681.922   5
  -5   2  -6 36293.1 1335.34   2
   5  -2   6 35155.9 1399.71   2
   5   2   6 35058.4 1411.07   5
  -5   2  -7 11829.6 746.488   2
   5  -2   7 12160.4 790.152   2
   5   2   7 13208.5 868.067   5
  -5   2  -8 44.0690 146.448   2
  -5  -2  -8 49.2268 148.692   3
   5   2   8-25.4437 152.958   5
  -5  -2  -9 104482. 2849.09   3
  -5   2  -9 107586. 2511.37   2
   5   2   9 108833. 2869.71   5
  -5  -2 -10 29604.2 1438.82   3
  -5   2 -10 28451.7 1037.75   3
  -5   2 -10 29683.0 1219.75   2
   5  -2  10 29443.2 1213.58   2
   5   2  10 26775.7 1391.15   5
  -5   2 -11 150011. 2781.63   3
  -5   2 -11 148277. 3112.07   2
   5  -2  11 154627. 3111.49   2
   5   2  11 143179. 3624.73   5
  -5  -2 -11 147298. 3584.11   3
   5   2  12 19587.8 1259.64   5
  -5  -2 -12 20587.5 1213.80   3
  -5   2 -12 22901.5 889.755   3
  -5   2 -13 891.360 182.784   3
  -5  -2 -13 743.676 254.605   3
  -5  -2 -14 19599.1 1453.44   1
   5   2  14 17557.0 1270.47   5
  -5   2 -14 18848.2 775.063   3
  -5  -2 -14 18804.5 1173.19   3
  -5  -2 -15 6606.46 885.542   1
   5   2  15 5792.73 748.970   5
  -5  -2 -15 5965.18 678.027   3
  -5  -2 -16 11228.8 1184.80   1
   5   2  16 12588.7 1140.25   5
  -5  -2 -16 10517.8 891.501   3
  -5  -2 -17 59992.4 2866.94   1
   5   2  17 60345.5 2605.94   5
  -5  -2 -17 59464.3 2211.66   3
  -5  -2 -18 9496.61 1184.32   1
   5   2  18 9087.37 1049.69   5
  -5  -2 -18 8796.86 858.090   3
   5  -3 -19 40411.7 2132.27   2
  -5   3  19 42308.2 1939.01   5
  -5   3  18 2748.37 507.308   5
   5  -3 -18 2499.32 567.949   2
   5  -3 -17 75938.4 2897.72   2
  -5   3  17 78642.7 2598.84   5
  -5   3  16 4749.58 602.938   5
   5  -3 -16 4936.73 722.408   2
   5   3 -16 5202.86 532.038   2
  -5   3  15 399.173 215.282   5
   5  -3 -15 381.868 293.170   2
  -5   3  15 271.047 144.988   4
   5   3 -15 70.3172 149.571   2
  -5   3  14 3810.53 520.381   5
  -5   3  14 4020.78 410.889   4
   5  -3 -14 4118.98 615.824   2
   5   3 -14 3992.48 473.080   2
  -5   3  13 29852.5 1143.00   4
   5  -3 -13 30773.3 1682.05   2
   5   3 -13 31296.7 1312.60   2
  -5   3  12 14297.6 792.302   4
   5  -3 -12 14565.3 1134.81   2
   5   3 -12 14758.5 880.008   2
  -5   3  11 190767. 3554.42   4
   5  -3 -11 185863. 4430.25   2
   5   3 -11 194846. 3795.39   2
  -5  -3  10 42484.7 968.683   4
  -5   3  10 41561.2 1445.92   4
   5  -3 -10 42046.7 1883.43   2
  -5  -3   9 220374. 3232.01   4
  -5   3   9 225662. 4125.74   4
   5  -3  -9 221508. 4803.31   2
   5   3  -9 227623. 4169.99   2
  -5   3   8 37945.4 1475.35   4
  -5  -3   8 40495.6 1037.48   4
   5  -3  -8 36709.8 1717.99   2
   5   3  -8 40593.7 1488.40   2
   5  -3  -7 153.440 187.045   2
  -5   3   7-60.6865 146.441   4
  -5  -3   7-4.57635 72.4859   4
   5   3  -7 200.173 155.387   2
  -5   3   6 31845.2 1407.52   4
   5  -3  -6 30541.2 1508.09   2
  -5  -3   6 29724.1 981.811   4
   5   3  -6 31476.9 1297.89   2
  -5   3   5 55290.4 1902.02   4
   5  -3  -5 54463.3 2043.28   2
  -5  -3   5 56107.7 1467.23   4
   5   3  -5 57485.7 1797.31   2
  -5   3   5 57362.3 1257.81   1
  -5   3   4 8837.52 731.611   4
  -5   3   4 8973.90 425.833   1
   5  -3  -4 8855.58 789.162   2
  -5  -3   4 8151.14 537.197   4
   5   3  -4 7978.04 648.244   2
  -5   3   3 130977. 3082.77   4
   5  -3  -3 136739. 3364.25   2
  -5  -3   3 127722. 2647.68   4
  -5   3   2 14912.2 929.317   4
   5  -3  -2 14631.8 1004.38   2
  -5  -3   2 16628.0 857.708   4
   5   3  -2 16563.2 938.620   2
  -5   3   2 15550.2 823.877   3
  -5   3   1 149905. 3375.03   4
   5  -3  -1 158406. 3651.12   2
  -5  -3   1 163838. 3222.42   4
   5   3  -1 156370. 3305.73   2
  -5   3   1 152104. 3020.99   3
  -5  -3   0 78.6055 63.8434   5
  -5   3   0 8.10233 117.736   3
   5  -3   0-2.84624 141.916   2
  -5   3   0 106.006 122.729   4
   5   3   0 40.3248 138.881   2
   5  -3   1 114956. 2949.81   2
  -5   3  -1 113182. 2845.32   4
   5   3   1 115310. 2769.84   2
  -5   3  -1 118854. 2471.12   3
   5   3   1 118685. 2338.67   5
  -5  -3  -1 110840. 2066.26   5
   5   3   2 15791.8 891.107   1
  -5   3  -2 17631.5 1032.75   4
   5   3   2 14460.3 903.262   2
  -5   3  -2 18779.3 849.380   3
   5   3   2 15834.0 777.661   5
  -5  -3  -2 14347.2 665.987   5
   5  -3   2 20204.9 1119.11   2
   5   3   3 171126. 3577.44   2
   5   3   3 172716. 3482.92   1
  -5   3  -3 169663. 3072.73   3
   5   3   3 173027. 3227.93   5
   5  -3   3 169094. 3632.07   2
   5  -3   4 2683.14 403.521   2
   5   3   4 2803.88 398.535   1
   5   3   4 2777.16 364.714   5
  -5  -3  -4 2925.52 341.991   5
  -5  -3  -5 1709.85 273.513   5
  -5   3  -5 1324.12 246.241   2
   5  -3   5 1339.47 297.750   2
   5   3   5 1455.70 277.779   5
  -5   3  -6 335.917 144.586   2
   5  -3   6 413.629 185.673   2
   5   3   6 406.306 196.831   5
  -5  -3  -7 61770.0 2165.66   3
  -5   3  -7 62938.1 1771.17   2
   5  -3   7 60199.6 1875.59   2
   5   3   7 60242.6 1958.08   5
  -5  -3  -8 5105.80 624.171   3
  -5   3  -8 5653.94 499.493   2
   5  -3   8 5272.07 515.824   2
   5   3   8 5894.33 605.043   5
  -5  -3  -9 149878. 3745.35   3
  -5   3  -9 159413. 3104.12   2
   5  -3   9 162537. 3243.12   2
   5   3   9 152171. 3560.81   5
  -5   3 -10 2959.96 292.732   3
  -5  -3 -10 3880.15 573.048   3
   5  -3  10 3501.01 405.144   2
  -5   3 -10 3126.14 387.977   2
   5   3  10 3525.88 519.918   5
   5   3  11 97906.6 2914.30   5
  -5  -3 -11 99068.5 2983.88   3
  -5   3 -11 103275. 1946.67   3
  -5   3 -12 444.211 126.214   3
  -5  -3 -12 737.333 257.588   3
   5   3  12 398.690 267.892   5
  -5  -3 -13 909.930 320.653   3
   5   3  13 121.934 188.826   5
  -5  -3 -14 3164.78 514.438   3
   5   3  14 2921.83 542.694   5
   5   3  15 8170.27 899.889   5
  -5  -3 -15 7174.47 781.209   3
  -5  -3 -16 2240.87 485.393   3
   5   3  16 2940.68 585.884   5
   5   3  17 54532.1 2487.33   5
  -5  -3 -17 61256.6 2400.39   3
   5  -4 -18 51475.0 2525.94   2
  -5   4  18 50722.1 2218.18   5
   5  -4 -17 22642.9 1643.92   2
  -5   4  17 24645.5 1490.58   5
  -5   4  16 1545.16 415.529   5
   5  -4 -16 1118.37 450.898   2
  -5   4  15 3138.92 520.192   5
   5  -4 -15 2328.63 538.562   2
  -5   4  15 2537.04 392.267   4
  -5   4  14 4097.61 480.987   4
   5   4 -14 4715.56 484.418   2
   5  -4 -14 3856.13 674.856   2
  -5   4  13 25396.8 1203.02   4
   5  -4 -13 25625.3 1650.71   2
   5   4 -13 28026.6 1184.60   2
  -5   4  12 1241.03 303.450   4
   5  -4 -12 1089.57 366.140   2
   5   4 -12 559.251 224.899   2
  -5   4  11 69940.8 2101.92   4
   5  -4 -11 68024.2 2666.13   2
   5   4 -11 70989.6 1998.83   2
  -5   4  10 90820.6 2485.04   4
   5  -4 -10 89975.1 3074.32   2
   5   4 -10 98680.1 2419.98   2
  -5  -4   9 67576.6 1626.15   4
  -5   4   9 71936.4 2185.62   4
   5  -4  -9 71389.0 2660.09   2
   5   4  -9 74908.6 2068.90   2
  -5   4   8 8292.43 726.603   4
  -5  -4   8 9000.87 537.618   4
   5  -4  -8 8349.32 879.639   2
   5   4  -8 9879.25 716.603   2
  -5  -4   7 2760.45 313.131   4
   5   4  -7 3330.18 430.622   2
  -5   4   7 3253.84 464.562   4
   5  -4  -7 3677.17 579.121   2
  -5   4   7 3656.86 368.458   1
  -5   4   6 46389.6 1368.14   1
  -5   4   6 46191.2 1837.24   4
  -5  -4   6 47728.7 1374.82   4
   5  -4  -6 46760.2 2051.44   2
   5   4  -6 47842.1 1644.60   2
  -5   4   5 46881.9 1847.20   4
  -5  -4   5 45718.1 1381.97   4
   5  -4  -5 44455.8 1962.82   2
   5   4  -5 47924.3 1639.75   2
  -5   4   5 45449.5 1326.15   1
  -5   4   4 5005.08 598.776   4
  -5  -4   4 5178.25 460.007   4
   5  -4  -4 5098.95 652.144   2
   5   4  -4 4655.17 501.849   2
  -5   4   3 51022.6 1959.80   4
   5  -4  -3 53372.7 2110.15   2
  -5  -4   3 56283.9 1637.06   4
   5   4  -3 54519.3 1782.56   2
  -5   4   2 25013.6 1335.03   4
   5  -4  -2 26156.3 1436.96   2
   5   4  -2 28233.7 1256.26   2
  -5   4   1 45829.3 1817.34   4
   5  -4  -1 48384.9 1947.26   2
   5   4  -1 49336.4 1705.06   2
   5   4  -1 43027.2 1111.44   5
  -5   4   0 369.105 152.173   3
   5  -4   0 567.922 230.188   2
  -5   4   0 346.899 186.826   4
   5   4   0 482.055 164.674   5
  -5   4  -1 52919.3 1969.57   4
   5  -4   1 56059.7 2066.06   2
  -5   4  -1 54826.4 1543.20   3
   5   4   1 53427.2 1445.32   5
   5  -4   2 334923. 6059.43   2
  -5   4  -2 331552. 6005.36   4
  -5   4  -2 328004. 5013.61   3
   5   4   2 333502. 5090.41   5
   5  -4   3 85350.2 2521.48   2
  -5   4  -3 84866.6 2589.53   4
  -5   4  -3 84814.9 1923.38   3
   5   4   3 85238.1 2098.99   5
  -5   4  -4 10931.4 896.804   4
  -5   4  -4 10032.1 575.835   3
   5   4   4 11976.3 749.644   5
   5  -4   4 9603.44 783.767   2
  -5  -4  -5 3568.58 520.633   3
  -5   4  -5 4955.03 608.112   4
  -5   4  -5 4436.61 365.428   3
   5   4   5 3949.63 450.719   5
   5  -4   5 4355.05 531.041   2
  -5  -4  -6 2317.50 424.675   3
  -5   4  -6 2507.45 448.953   4
  -5   4  -6 2582.59 267.915   3
   5  -4   6 2569.88 396.871   2
   5   4   6 2999.18 412.814   5
  -5  -4  -7 35748.5 1685.09   3
  -5   4  -7 38986.3 1787.17   4
  -5   4  -7 38483.3 1061.00   3
   5  -4   7 38360.7 1489.14   2
   5   4   7 38071.5 1538.98   5
  -5  -4  -8 2977.53 516.367   3
  -5   4  -8 3900.61 576.510   4
  -5   4  -8 2864.47 257.220   3
   5  -4   8 2839.57 397.325   2
   5   4   8 2806.99 430.868   5
  -5   4  -9 58052.6 2261.14   4
   5  -4   9 57706.0 1740.01   2
   5   4   9 54162.4 2003.16   5
  -5  -4  -9 53251.9 2182.35   3
  -5   4 -10 84402.3 2826.33   4
   5  -4  10 92203.9 2191.12   2
   5   4  10 84936.1 2656.75   5
  -5  -4 -10 90798.7 2931.54   3
  -5   4 -11 35757.5 1818.50   4
   5  -4  11 40871.2 1291.61   2
   5   4  11 35654.0 1700.32   5
  -5  -4 -11 35320.2 1779.22   3
  -5   4 -12 32389.8 1745.69   4
   5   4  12 33941.6 1701.69   5
  -5  -4 -12 31977.8 1709.52   3
  -5  -4 -13 2985.85 529.418   3
  -5   4 -13 4439.31 664.731   4
   5   4  13 2814.78 514.973   5
  -5   4 -14 13759.0 1157.85   4
   5   4  14 16248.9 1234.25   5
  -5  -4 -14 15724.6 1209.17   3
  -5   4 -15 11064.2 1070.32   4
   5   4  15 11842.2 1081.13   5
  -5  -4 -15 12514.6 1106.81   3
  -5   4 -16 10950.8 1072.39   4
   5   4  16 12121.3 1163.73   5
  -5  -4 -16 13236.4 1151.78   3
  -5   5  17 5116.31 759.408   5
   5  -5 -17 5998.70 943.531   2
   5  -5 -16 10165.6 1189.13   2
  -5   5  16 7594.27 884.885   5
  -5   5  15 6849.42 710.215   4
   5  -5 -15 8409.08 1056.65   2
  -5   5  15 7497.33 858.526   5
  -5   5  14 6370.86 669.691   4
   5  -5 -14 8065.53 1031.42   2
  -5   5  13 94.9910 177.838   4
   5  -5 -13 329.711 254.768   2
  -5   5  12 24347.5 1319.71   4
   5  -5 -12 22956.7 1678.68   2
  -5   5  11 233.194 223.544   4
   5  -5 -11 595.233 295.285   2
  -5   5  10 220386. 4596.05   4
   5  -5 -10 222402. 5535.52   2
  -5   5   9 14798.5 1031.86   4
   5  -5  -9 14799.0 1291.09   2
  -5  -5   8 82189.2 2085.34   4
  -5   5   8 79792.5 2533.17   4
   5  -5  -8 82755.6 3095.30   2
  -5   5   7 11413.9 747.310   1
  -5  -5   7 11311.3 706.038   4
  -5   5   7 11228.6 914.544   4
   5  -5  -7 9634.92 1014.69   2
  -5   5   6 10836.5 896.897   4
   5  -5  -6 10379.3 1033.94   2
  -5   5   6 9793.55 693.143   1
  -5   5   5 1414.13 259.647   1
  -5   5   5 1265.23 331.076   4
   5  -5  -5 1287.95 379.308   2
  -5   5   4 20587.7 1277.56   4
   5  -5  -4 21645.8 1437.98   2
   5  -5  -3 320.495 248.069   2
  -5   5   3 659.904 279.922   4
  -5   5   2 147445. 3533.42   4
   5  -5  -2 142680. 3670.97   2
  -5   5   1 8215.89 830.218   4
   5  -5  -1 7808.10 819.533   2
   5   5  -1 5588.14 387.590   5
  -5   5   0 11461.6 967.841   4
   5  -5   0 12164.6 1004.28   2
   5   5   0 11734.3 634.485   5
  -5   5  -1 4793.79 634.942   4
   5  -5   1 4693.80 615.043   2
  -5   5  -1 5491.16 474.476   3
   5   5   1 5465.58 454.375   5
  -5  -5  -2 75284.3 2389.63   3
  -5   5  -2 74218.8 2564.98   4
   5  -5   2 75956.4 2530.86   2
  -5   5  -2 74438.0 1824.65   3
   5   5   2 79247.0 1983.43   5
  -5  -5  -3 7903.01 757.690   3
   5  -5   3 9014.78 829.520   2
  -5   5  -3 8861.26 850.806   4
  -5   5  -3 9009.44 549.410   3
   5   5   3 8609.21 644.777   5
   5  -5   4 7823.83 752.705   2
  -5  -5  -4 7262.16 744.609   3
  -5   5  -4 6729.03 752.619   4
  -5   5  -4 7646.78 481.815   3
   5   5   4 8358.05 655.871   5
  -5  -5  -5 14141.1 1047.01   3
  -5   5  -5 14301.6 1105.34   4
  -5   5  -5 13941.1 629.100   3
   5   5   5 15819.2 942.313   5
   5  -5   5 14686.0 990.047   2
  -5  -5  -6 36582.7 1736.50   3
  -5   5  -6 37672.5 1827.13   4
   5   5   6 37617.4 1552.35   5
   5  -5   6 37627.7 1560.96   2
  -5  -5  -7 450.316 271.927   3
  -5   5  -7 386.545 274.440   4
   5  -5   7 264.414 190.635   2
   5   5   7 421.520 187.880   5
  -5   5  -8 6507.36 771.481   4
  -5  -5  -8 4928.23 680.411   3
   5  -5   8 5986.35 573.145   2
   5   5   8 5264.49 621.262   5
  -5  -5  -9 624.621 295.334   3
  -5   5  -9 424.575 291.989   4
   5  -5   9 257.823 161.226   2
   5   5   9 1130.99 330.048   5
  -5   5 -10 99523.1 3229.50   4
   5   5  10 97308.6 2945.06   5
  -5  -5 -10 101465. 3227.93   3
  -5   5 -11 4773.69 709.895   4
   5   5  11 5960.72 725.664   5
  -5  -5 -11 5715.47 773.792   3
  -5   5 -12 22304.0 1514.97   4
   5   5  12 24270.7 1482.56   5
  -5  -5 -12 22764.8 1516.08   3
  -5   5 -13 10878.5 1070.03   4
   5   5  13 10495.5 998.249   5
  -5  -5 -13 9592.68 982.310   3
  -5   5 -14 8107.80 937.295   4
   5   5  14 8504.71 926.274   5
  -5  -5 -14 7623.59 892.635   3
  -5   5 -15 7029.48 893.189   4
  -5  -5 -15 6781.35 870.288   3
   5   5  15 6485.61 839.874   5
  -5   6  15 270.783 259.301   5
  -5   6  15 723.473 314.424   4
   5  -6 -15 4.38579 373.241   2
  -5   6  14 31194.2 1672.80   4
   5  -6 -14 32852.6 2242.25   2
  -5   6  13 2991.90 531.585   4
   5  -6 -13 3051.49 722.881   2
  -5   6  12 274.583 213.974   4
   5  -6 -12 364.066 314.136   2
  -5   6  11 31952.8 1658.25   4
   5  -6 -11 26333.1 1934.27   2
  -5   6  10 58370.0 2280.56   4
   5  -6 -10 54834.9 2793.89   2
  -5   6   9 5886.67 712.195   4
   5  -6  -9 4196.09 773.617   2
  -5   6   8 3348.43 543.696   4
   5  -6  -8 2669.88 616.000   2
  -5   6   7 6070.50 722.448   4
   5  -6  -7 5631.04 852.277   2
  -5   6   6 44723.5 1959.01   4
   5  -6  -6 40614.3 2247.33   2
  -5   6   5 1693.89 390.221   4
   5  -6  -5 1428.71 487.998   2
  -5   6   4 2503.02 474.942   4
   5  -6  -4 2826.89 573.531   2
  -5   6   3 19862.3 1304.87   4
   5  -6  -3 16206.6 1319.24   2
  -5   6   2 64095.3 2410.56   4
   5  -6  -2 64298.3 2566.79   2
   5   6  -2 56596.9 1276.44   5
  -5  -6   1 7009.66 704.377   3
  -5   6   1 6171.23 754.715   4
   5  -6  -1 6180.49 776.926   2
   5   6  -1 5672.02 415.133   5
  -5  -6   0 4886.93 596.175   3
  -5   6   0 5426.36 706.921   4
   5  -6   0 4917.85 671.173   2
   5   6   0 5065.48 439.599   5
  -5  -6  -1 4753.51 604.991   3
  -5   6  -1 5398.11 723.645   4
   5  -6   1 5346.22 713.702   2
   5   6   1 6286.69 523.665   5
  -5  -6  -2 104835. 2995.17   3
  -5   6  -2 102707. 3280.68   4
   5  -6   2 103969. 3147.74   2
   5   6   2 112459. 2589.40   5
   5  -6   3 1283.78 395.385   2
  -5  -6  -3 1525.03 390.068   3
  -5   6  -3 1599.36 437.680   4
   5   6   3 2152.16 369.064   5
  -5  -6  -4 26894.8 1483.52   3
   5  -6   4 26838.8 1476.37   2
  -5   6  -4 27136.4 1643.35   4
   5   6   4 28980.8 1316.62   5
   5  -6   5 2699.84 456.476   2
  -5  -6  -5 2848.33 531.223   3
  -5   6  -5 3816.78 634.969   4
   5   6   5 3428.00 472.418   5
  -5   6  -6 24393.4 1568.16   4
   5   6   6 26995.6 1359.16   5
   5  -6   6 25702.3 1327.57   2
  -5  -6  -6 25087.0 1491.61   3
   5  -6   7 482.437 219.967   2
  -5  -6  -7 498.460 285.067   3
  -5   6  -7 1164.86 350.936   4
   5   6   7 1113.02 334.135   5
  -5  -6  -8 1183.18 340.410   3
  -5   6  -8 1908.85 517.097   4
   5  -6   8 1831.93 367.904   2
   5   6   8 1089.21 328.344   5
  -5   6  -9 17950.1 1402.11   4
   5   6   9 18755.5 1245.16   5
  -5  -6  -9 17372.0 1290.66   3
  -5   6 -10 91308.7 3256.82   4
   5   6  10 86618.4 2875.06   5
  -5  -6 -10 87030.4 3050.03   3
  -5   6 -11 10543.0 1093.23   4
   5   6  11 10840.4 1006.50   5
  -5  -6 -11 9899.81 1034.53   3
  -5  -6 -12 1633.69 472.096   3
  -5   6 -12 1593.57 465.232   4
   5   6  12 2130.18 516.094   5
  -5   6 -13 12200.4 1177.06   4
   5   6  13 11672.0 1091.23   5
  -5  -6 -13 13523.0 1231.29   3
  -5   7  12 284.164 291.357   4
   5  -7 -12 264.564 388.446   2
  -5   7  11 13956.1 1191.29   4
   5  -7 -11 9629.11 1276.45   2
  -5   7  10 46040.1 2166.81   4
   5  -7 -10 40892.4 2584.16   2
  -5   7   9 58625.4 2440.79   4
   5  -7  -9 42785.7 2647.87   2
  -5   7   8 5890.73 755.685   4
   5  -7  -8 5149.26 856.924   2
  -5  -7   7 1205.90 325.208   3
  -5   7   7 472.677 258.476   4
   5  -7  -7 1249.79 473.061   2
  -5  -7   6 3480.14 495.698   3
  -5   7   6 4789.95 679.202   4
   5  -7  -6 3250.31 670.076   2
  -5  -7   5 180.659 198.953   3
  -5   7   5 168.396 186.399   4
   5  -7  -5-103.511 236.793   2
  -5  -7   4 601.743 268.044   3
  -5   7   4 965.008 371.535   4
   5  -7  -4 499.580 366.722   2
  -5  -7   3 13338.7 977.052   3
   5  -7  -3 11360.7 1158.02   2
  -5  -7   2 74647.3 2425.22   3
  -5   7   2 74530.4 2726.13   4
   5  -7  -2 74434.1 2912.47   2
  -5  -7   1 23649.5 1325.71   3
  -5   7   1 19447.8 1369.39   4
   5  -7  -1 20285.8 1464.94   2
  -5  -7   0 1750.08 399.922   3
   5  -7   0 1214.06 377.505   2
  -5  -7  -1 11688.0 959.199   3
  -5   7  -1 12879.6 1135.87   4
   5  -7   1 10383.0 996.330   2
   5   7   1 9975.02 730.073   5
  -5   7  -2 7631.39 891.473   4
   5  -7   2 6420.67 776.240   2
   5   7   2 5920.71 579.105   5
  -5  -7  -2 6545.49 749.312   3
   5  -7   3 39582.8 1877.66   2
  -5   7  -3 41867.3 2099.08   4
   5   7   3 40117.5 1630.23   5
  -5  -7  -3 38848.3 1829.88   3
   5   7   4 495.164 236.662   5
   5  -7   4 48.8311 234.112   2
  -5  -7  -4 229.585 208.899   3
  -5   7  -4 186.879 265.311   4
   5  -7   5 5738.37 686.605   2
  -5   7  -5 4668.18 706.901   4
   5   7   5 4910.18 609.483   5
  -5  -7  -5 5534.57 710.100   3
  -5   7  -6 38320.1 2071.89   4
   5   7   6 36835.8 1723.25   5
  -5  -7  -6 37912.3 1878.39   3
   5  -7   6 38542.9 1702.93   2
   5   7   7 279.448 208.010   5
  -5  -7  -7 332.013 226.410   3
  -5   7  -7 323.049 292.971   4
  -5  -7  -8-19.7315 240.676   3
  -5   7  -8 286.725 300.761   4
   5   7   8 126.565 203.451   5
  -5   7  -9 16540.6 1406.64   4
   5   7   9 15913.5 1219.45   5
  -5  -7  -9 18083.5 1365.03   3
  -5   7 -10 26466.6 1801.52   4
   5   7  10 24224.8 1549.03   5
  -5  -7 -10 25375.5 1647.42   3
  -5   7 -11 48455.4 2478.00   4
   5   7  11 48361.1 2269.38   5
  -5  -7 -11 48014.3 2337.84   3
  -5   8   8 7159.19 904.104   4
   5  -8  -8 6129.82 1029.12   2
  -5  -8   7 1071.44 370.848   3
  -5   8   7 1546.64 424.577   4
   5  -8  -7 1172.49 534.421   2
  -5  -8   6 24732.8 1313.41   3
  -5   8   6 25097.8 1642.02   4
   5  -8  -6 21658.4 1746.45   2
  -5  -8   5 1937.60 403.040   3
  -5   8   5 1984.98 489.160   4
   5  -8  -5 2288.66 611.230   2
  -5  -8   4 3434.28 522.275   3
  -5   8   4 2680.69 511.740   4
   5  -8  -4 3044.09 637.700   2
  -5   8   3 22542.2 1514.31   4
   5  -8  -3 19140.6 1525.62   2
  -5  -8   3 21359.6 1282.28   3
  -5  -8   2 3175.62 521.435   3
  -5   8   2 2439.61 548.628   4
   5  -8  -2 3009.03 642.068   2
  -5   8   1 23502.3 1552.77   4
   5  -8  -1 22148.1 1575.15   2
  -5  -8   1 25981.5 1451.39   3
  -5  -8   0 246.220 279.114   3
   5  -8   0 15.2606 233.328   2
  -5   8   0 361.177 301.351   4
  -5   8  -1 6718.75 851.885   4
   5  -8   1 6675.95 851.165   2
  -5  -8  -1 7480.28 803.723   3
  -5  -8  -2 3625.09 586.920   3
   5  -8   2 3253.10 572.268   2
  -5   8  -2 3423.25 608.965   4
   5  -8   3 27320.1 1603.76   2
  -5   8  -3 26904.9 1719.84   4
  -5  -8  -3 27272.6 1564.82   3
   5  -8   4 353.489 289.319   2
  -5  -8  -4 218.311 239.331   3
  -5   8  -4 232.578 323.937   4
  -5   8  -5 6801.19 897.823   4
  -5  -8  -5 6114.41 763.072   3
  -5  -8  -6 1647.16 454.559   3
  -5   8  -6 1339.02 414.131   4
   5   8   7 1757.46 417.660   5
  -5  -8  -7 1462.05 434.292   3
  -5   8  -7 881.330 369.011   4
   6   0 -19-10.5186 207.948   2
   6   0 -18 73995.7 2528.25   1
   6   0 -18 73806.0 2661.22   2
  -6   0  17-209.853 222.338   5
   6   0 -17 288.035 277.746   2
   6   0 -17 88.8160 203.805   1
  -6   0  16 16045.7 883.291   5
   6   0 -16 16079.3 1041.62   1
   6   0 -16 16580.4 1195.51   2
  -6   0  15 86.1055 116.826   5
   6   0 -15-77.9638 175.386   2
   6   0 -15 14.5303 140.831   1
   6   0 -14 30269.4 1309.35   1
  -6   0  14 34850.1 1223.11   5
   6   0 -14 31125.8 1628.93   2
  -6   0  13-28.6723 113.981   5
   6   0 -13 125.122 198.737   2
   6   0 -13 94.7156 128.325   1
  -6   0  12 4836.05 419.330   5
   6   0 -12 4723.21 621.666   2
  -6   0  11-107.978 136.269   5
   6   0 -11 79.7855 177.763   2
  -6   0  11-29.7064 53.9140   4
   6   0 -11 130.914 96.8629   1
  -6   0  10 161144. 2729.09   4
   6   0 -10 152632. 2707.67   1
   6   0 -10 156743. 3785.57   2
   6   0  -9 203.312 203.659   2
  -6   0   9 347.812 145.553   4
   6   0  -9 110.249 93.8523   1
  -6   0   8 10119.4 614.147   4
   6   0  -8 10071.4 836.231   2
   6   0  -7-56.5296 134.630   2
   6   0  -7 71.9921 37.7656   1
   6   0  -6 243986. 4808.51   2
   6   0  -5 247.662 239.084   2
   6   0  -4 87587.6 2536.23   2
   6   0  -3-434.160 200.305   2
   6   0  -2 55090.4 1945.34   2
  -6   0   1 105.319 113.247   5
   6   0  -1 30.2489 150.645   2
   6   0   0 5088.05 563.735   2
  -6   0   0 5498.55 481.107   5
   6   0   1 193.262 161.671   2
  -6   0  -1-31.2713 152.248   5
   6   0   2 422389. 6985.57   2
  -6   0  -2 434853. 6502.26   5
   6   0   3 1075.18 279.378   2
  -6   0  -3 883.514 253.798   5
   6   0   4 61052.4 2052.82   2
   6   0   5-2.76006 128.727   2
  -6   0  -5-67.6437 102.413   1
   6   0   6 5618.76 603.046   2
  -6   0  -6 5040.04 506.410   1
  -6   0  -7 16.5181 151.553   1
   6   0   7-104.254 168.723   2
   6   0   8 12729.7 915.423   2
  -6   0  -8 12831.2 879.515   1
   6   0   9 191.593 158.504   2
  -6   0  -9 163.240 198.959   1
  -6   0 -10 167234. 3600.94   3
  -6   0 -10 169328. 3969.92   1
  -6   0 -11 229.637 181.416   3
  -6   0 -11 48.5375 226.732   1
  -6   0 -12 29138.0 1339.94   3
  -6   0 -12 26056.2 1542.06   1
  -6   0 -13 31.6959 121.942   3
  -6   0 -13-53.4966 246.360   1
  -6   0 -14 59157.0 2547.54   1
  -6   0 -14 59268.7 1956.16   3
  -6   0 -15 120.009 180.859   3
  -6   0 -15 349.138 389.584   1
  -6   0 -16 5147.51 806.014   1
  -6   0 -16 5583.38 580.014   3
  -6   0 -17-17.1576 280.479   1
   6  -1 -19 6234.10 825.460   2
  -6   1  19 6272.21 657.427   5
   6  -1 -18 116901. 3616.17   2
   6   1 -18 114340. 3221.01   2
  -6   1  18 116565. 2967.41   5
   6  -1 -17 46112.8 2165.02   2
   6  -1 -17 43286.6 1781.77   1
   6   1 -17 47032.3 1949.58   2
  -6   1  17 40502.7 1599.18   5
   6  -1 -16 58462.2 2423.80   2
   6  -1 -16 58603.4 2003.22   1
   6   1 -16 58176.7 2189.30   2
  -6   1  16 58985.0 1894.97   5
  -6  -1  15 143.151 94.7352   5
  -6   1  15-81.8288 194.298   5
   6  -1 -15-270.637 284.152   2
   6  -1 -15-78.8859 128.563   1
   6   1 -15 178.138 207.764   2
  -6  -1  14 2455.93 292.044   5
   6  -1 -14 2686.97 517.752   2
   6  -1 -14 2890.88 398.133   1
  -6   1  14 3909.97 451.055   5
   6   1 -14 2676.54 476.029   2
   6  -1 -13 21502.5 1383.84   2
  -6  -1  13 23167.6 849.107   5
   6   1 -13 24251.4 1338.53   2
  -6   1  13 20863.7 1029.63   5
   6  -1 -12 3730.36 381.495   1
   6  -1 -12 2954.04 523.215   2
  -6   1  12 3098.19 256.790   4
  -6  -1  12 2765.53 279.785   5
   6   1 -12 3407.18 498.427   2
   6  -1 -11 41176.3 1901.22   2
  -6   1  11 41505.7 1163.18   4
   6   1 -11 41395.1 1752.42   2
   6  -1 -10 195663. 4420.94   2
  -6  -1  10 192564. 2852.79   4
  -6   1  10 193031. 3343.39   4
   6   1 -10 193146. 4152.90   2
  -6  -1  10 185879. 2855.18   5
   6  -1  -9 24991.6 1407.51   2
  -6   1   9 25102.9 1064.36   4
   6   1  -9 26805.9 1360.81   2
  -6  -1   9 24768.0 748.844   5
   6  -1  -8 60873.5 2214.10   2
   6   1  -8 60539.6 2087.72   2
   6  -1  -7 1035.49 287.509   2
   6   1  -7 1208.80 309.077   2
   6   1  -6 96923.6 2698.17   2
   6  -1  -6 106821. 2955.97   2
   6   1  -5 147879. 3408.45   2
   6  -1  -5 144764. 3545.97   2
   6   1  -4 74330.1 2267.69   2
  -6  -1   4 72805.3 1623.36   5
   6  -1  -4 76573.2 2417.11   2
   6  -1  -3 2490.06 413.474   2
   6   1  -3 2341.29 188.636   1
  -6  -1   3 2280.27 256.186   5
   6   1  -3 2073.57 364.568   2
   6   1  -2 15368.4 980.313   2
  -6  -1   2 16327.9 702.124   5
   6   1  -2 17632.6 558.205   1
   6  -1  -2 15778.0 1030.57   2
   6   1  -1 5966.96 621.160   2
  -6  -1   1 5536.62 430.790   5
   6  -1  -1 5780.82 609.237   2
   6   1   0 155.820 154.527   2
   6  -1   0 478.879 218.908   2
  -6  -1   0 133.849 97.1992   5
   6   1   1 21001.7 1149.78   2
   6  -1   1 19275.5 1126.59   2
  -6  -1  -1 20733.0 888.592   5
   6   1   2 305697. 5566.65   2
   6  -1   2 309470. 5642.04   2
  -6  -1  -2 305693. 4909.34   5
  -6   1  -3 103613. 2066.11   1
   6   1   3 114009. 2896.23   2
   6  -1   3 104462. 2810.77   2
  -6  -1  -3 114217. 2450.02   5
  -6   1  -4 175450. 3104.43   1
   6   1   4 171107. 3788.38   2
   6  -1   4 176221. 3852.03   2
  -6  -1  -4 171042. 3332.10   5
  -6   1  -5 13491.4 758.794   1
   6   1   5 15066.4 991.808   2
   6  -1   5 12367.3 892.666   2
   6   1   6 9091.39 770.535   2
   6  -1   6 7972.64 710.167   2
  -6   1  -6 9497.84 668.123   1
   6   1   7 22097.1 1236.87   2
   6  -1   7 22970.9 1220.81   2
  -6   1  -7 22829.0 1113.15   1
   6   1   8 7190.84 706.406   2
   6  -1   8 7358.68 688.483   2
  -6   1  -8 7997.86 697.536   1
  -6  -1  -9 55521.7 2049.42   1
   6  -1   9 51797.2 1874.58   2
  -6   1  -9 48939.6 1875.93   1
  -6  -1 -10 201920. 4318.18   3
  -6  -1 -10 212782. 4643.96   1
   6  -1  10 214892. 4317.22   2
  -6   1 -10 212775. 4563.52   1
  -6  -1 -11 29157.3 1436.49   3
  -6   1 -11 27152.8 1212.56   3
  -6  -1 -11 31136.8 1642.78   1
   6  -1  11 28706.5 1363.48   2
  -6   1 -11 27575.1 1518.16   1
  -6  -1 -12 101578. 2861.19   3
  -6   1 -12 105111. 2539.52   3
  -6  -1 -12 101228. 3234.10   1
  -6   1 -12 103220. 3190.13   1
  -6  -1 -13 16500.1 1287.15   1
   6   1  13 15530.2 1229.46   5
  -6   1 -13 14209.7 1187.02   1
  -6  -1 -13 14297.5 1009.61   3
  -6   1 -13 15251.0 882.887   3
  -6  -1 -14 9984.77 1046.26   1
   6   1  14 8217.81 915.341   5
  -6   1 -14 8533.61 946.810   1
  -6   1 -14 9023.30 670.282   3
  -6  -1 -14 7737.60 744.389   3
  -6  -1 -15 12912.7 1218.05   1
   6   1  15 13533.9 1222.42   5
  -6   1 -15 11544.4 746.513   3
  -6  -1 -15 13364.5 958.093   3
  -6   1 -15 11682.0 1155.74   1
  -6  -1 -16 666.726 254.271   3
  -6  -1 -16 709.108 383.091   1
  -6   1 -16 1142.37 461.327   1
  -6  -1 -17 1974.81 393.567   3
  -6  -1 -17 1378.47 459.310   1
  -6   1 -17 1960.24 605.125   1
   6  -2 -19 18569.2 1435.03   2
  -6   2  19 14861.6 1063.03   5
  -6   2  18 146.469 222.356   5
   6  -2 -18 1046.04 433.279   2
   6  -2 -17 99796.5 3363.21   2
   6   2 -17 103077. 2858.70   2
  -6   2  17 96036.8 2764.79   5
   6  -2 -16 11093.9 1088.55   2
   6   2 -16 10963.5 873.842   2
  -6   2  16 11455.6 881.508   5
  -6   2  15 1913.55 375.061   5
   6  -2 -15 1057.26 318.913   2
   6   2 -15 1315.38 349.178   2
   6  -2 -14 36963.8 1889.19   2
   6   2 -14 35508.5 1591.30   2
  -6   2  14 33228.0 1466.00   5
  -6   2  13 19714.3 796.696   4
   6   2 -13 21286.7 1205.15   2
   6  -2 -12 38.3464 238.491   2
   6   2 -12 143.892 163.302   2
   6  -2 -11 18330.1 1257.47   2
   6   2 -11 20752.3 1150.36   2
  -6  -2  10 1889.59 166.079   4
   6  -2 -10 2623.70 510.072   2
   6   2 -10 2472.06 417.429   2
   6  -2  -9 100836. 3079.69   2
  -6   2   9 100931. 2522.90   4
  -6  -2   9 107542. 1879.77   4
   6   2  -9 106460. 2820.28   2
   6  -2  -8 6328.44 717.273   2
  -6   2   8 7881.23 668.808   4
  -6  -2   8 6554.05 413.127   4
   6   2  -8 5877.34 615.285   2
   6  -2  -7 12473.8 1005.06   2
  -6   2   7 13858.1 886.924   4
   6   2  -7 12499.4 891.151   2
   6  -2  -6 37586.8 1750.21   2
  -6   2   6 39296.7 1509.22   4
   6   2  -6 33943.3 1492.49   2
   6  -2  -5 238707. 4824.03   2
  -6   2   5 231786. 4217.25   4
   6   2  -5 235941. 4406.45   2
   6  -2  -4 20542.3 1240.52   2
  -6   2   4 19845.1 1066.09   4
   6   2  -4 18873.7 1082.51   2
  -6  -2   4 18668.1 520.269   5
  -6  -2   3 349.478 92.4471   5
   6  -2  -3 63.1614 147.734   2
  -6   2   3-33.9301 140.870   4
   6   2  -3 101.894 153.844   2
   6   2  -2 30318.1 1385.60   2
  -6  -2   2 29308.7 817.496   5
   6  -2  -2 30767.6 1513.56   2
   6   2  -1 32109.3 1434.75   2
  -6  -2   1 33357.5 940.484   5
   6   2  -1 32699.0 1083.63   1
   6  -2  -1 31012.5 1514.97   2
  -6  -2   0 128.321 89.1653   5
   6  -2   0 40.8619 141.308   2
   6   2   0 2.98667 106.924   1
   6   2   0-73.7595 137.891   2
  -6   2   0 24.7861 28.1619   1
   6   2   1 75311.2 1857.36   1
   6   2   1 80327.6 2376.61   2
  -6  -2  -1 78144.8 1744.09   5
   6  -2   1 78823.8 2454.93   2
   6   2   2 7710.27 707.644   2
   6   2   2 7298.90 540.471   1
  -6  -2  -2 6975.90 497.982   5
   6   2   3 288447. 5386.97   2
   6  -2   3 295029. 5497.39   2
  -6  -2  -3 295504. 4659.01   5
   6   2   4 25394.5 1312.22   2
   6  -2   4 26163.9 1331.54   2
  -6  -2  -4 24747.3 1059.39   5
   6   2   5 2837.22 456.242   2
   6  -2   5 3207.06 453.152   2
   6   2   6 38610.8 1653.84   2
   6  -2   6 40332.2 1655.20   2
   6   2   6 37338.3 1587.01   5
   6  -2   7 16511.0 1027.71   2
   6   2   7 17680.2 1106.08   5
   6  -2   8 1370.02 293.700   2
   6   2   8 1280.79 315.482   5
  -6  -2  -9 73820.3 2467.63   3
   6  -2   9 79787.5 2327.85   2
   6   2   9 76955.4 2534.50   5
  -6  -2 -10 3765.19 562.583   3
   6  -2  10 5400.05 580.249   2
   6   2  10 4321.71 619.450   5
  -6  -2 -11 186994. 4350.76   3
  -6   2 -11 194019. 3589.59   3
   6   2  11 196600. 4577.58   5
  -6  -2 -12 1311.34 363.488   3
  -6   2 -12 1371.61 249.577   3
   6   2  12 1416.23 452.740   5
  -6  -2 -13 1383.65 360.297   3
  -6   2 -13 1389.94 256.787   3
   6   2  13 1141.45 377.439   5
   6   2  14 18344.3 1357.36   5
  -6  -2 -14 17873.1 1202.29   3
   6   2  15 29986.3 1789.89   5
  -6  -2 -15 28507.2 1532.25   3
  -6   2 -16 12828.4 1278.10   1
   6   2  16 13134.7 1223.71   5
  -6  -2 -16 13470.6 1039.00   3
  -6   2 -17 15344.5 1448.58   1
   6   2  17 15822.0 1379.18   5
  -6  -2 -17 15622.4 1154.09   3
  -6   3  18 187.255 227.766   5
   6  -3 -18 313.386 336.179   2
   6  -3 -17 93120.0 3321.66   2
  -6   3  17 65262.2 2392.43   5
  -6   3  16-170.596 208.150   5
   6  -3 -16 754.421 416.543   2
  -6   3  15 1330.21 336.475   5
   6  -3 -15 659.934 359.835   2
   6   3 -15 1147.36 320.502   2
   6  -3 -14 1130.63 415.635   2
   6   3 -14 318.770 193.102   2
   6  -3 -13 34678.4 1884.75   2
  -6   3  13 35419.1 1297.62   4
   6   3 -13 37393.9 1569.32   2
   6  -3 -12 2031.65 490.449   2
  -6   3  12 2020.16 321.922   4
   6   3 -12 2632.00 433.878   2
   6  -3 -11 14567.3 1178.44   2
  -6   3  11 15581.1 883.535   4
   6   3 -11 15476.8 991.091   2
   6  -3 -10 601.213 305.746   2
  -6   3  10 1021.17 268.299   4
   6   3 -10 1098.16 312.736   2
  -6   3   9 146610. 3339.04   4
   6  -3  -9 146474. 3946.66   2
  -6  -3   9 146825. 2459.13   4
   6   3  -9 146603. 3394.55   2
   6  -3  -8 388.107 246.378   2
  -6   3   8 1065.83 288.783   4
  -6  -3   8 701.663 163.302   4
   6   3  -8 570.524 233.459   2
  -6   3   7 42524.0 1737.76   4
   6  -3  -7 42570.7 1955.84   2
  -6  -3   7 42722.9 1248.16   4
   6   3  -7 43472.7 1682.98   2
  -6   3   6 23712.7 1282.36   4
   6  -3  -6 23211.1 1424.49   2
  -6  -3   6 25921.6 986.203   4
   6   3  -6 26356.0 1293.28   2
  -6   3   5 118172. 3046.55   4
   6  -3  -5 117246. 3357.74   2
  -6  -3   5 111951. 2425.80   4
   6   3  -5 113418. 2913.78   2
  -6   3   4 3710.33 509.063   4
   6  -3  -4 3494.19 558.490   2
   6   3  -4 4285.36 524.957   2
   6  -3  -3 6188.89 723.963   2
  -6   3   3 6445.87 652.325   4
  -6  -3   3 6705.26 566.462   4
   6   3  -3 6143.64 616.185   2
  -6   3   3 5010.61 226.114   1
   6  -3  -2 1740.49 410.459   2
  -6   3   2 1024.42 266.228   4
   6   3  -2 1142.29 282.461   2
   6  -3  -1 75984.3 2558.41   2
  -6   3   1 75908.3 2365.74   4
   6   3  -1 72912.2 2270.20   2
  -6  -3   1 72044.6 1427.81   5
  -6   3   0 10438.5 840.502   4
   6   3   0 12638.6 773.873   1
   6   3   0 11178.9 846.173   2
  -6  -3   0 10641.7 514.664   5
   6  -3   0 10393.4 898.468   2
  -6   3  -1 80803.5 2510.79   4
   6   3   1 81727.0 2477.29   2
   6   3   1 82787.7 2219.62   1
   6  -3   1 84504.4 2682.06   2
  -6   3  -2 9578.96 824.022   4
   6   3   2 10882.9 859.658   2
   6   3   2 9691.51 707.791   1
   6  -3   2 8081.93 772.695   2
  -6  -3  -2 10993.9 617.674   5
   6   3   3 193819. 3885.48   1
   6   3   3 200435. 4206.47   2
   6  -3   3 199950. 4336.88   2
  -6  -3  -3 193348. 3420.84   5
  -6  -3  -4 3109.88 365.770   5
   6   3   4 2449.34 417.159   2
   6  -3   4 3081.90 491.345   2
   6   3   4 2721.40 400.802   5
   6  -3   5 252.169 189.254   2
   6   3   5 421.358 216.959   5
   6  -3   6 162.855 157.840   2
   6   3   6 183.941 135.617   5
  -6  -3  -7 12118.6 976.576   3
   6  -3   7 13190.0 933.256   2
   6   3   7 12790.8 928.449   5
  -6  -3  -8 1285.79 356.123   3
   6  -3   8 950.280 273.940   2
   6   3   8 948.428 319.559   5
  -6  -3  -9 38691.4 1819.37   3
   6  -3   9 40986.2 1607.13   2
   6   3   9 38779.3 1762.17   5
  -6  -3 -10 1684.69 443.697   3
   6  -3  10 657.364 263.005   2
   6   3  10 1118.30 386.733   5
  -6   3 -11 182815. 3194.96   3
   6   3  11 179697. 4381.60   5
  -6  -3 -11 178060. 4390.80   3
  -6  -3 -12 1053.78 351.390   3
   6  -3  12 194.351 195.125   2
   6   3  12 592.564 309.264   5
  -6  -3 -13 1198.96 328.064   3
   6   3  13 933.167 329.725   5
  -6  -3 -14 1035.69 326.538   3
   6   3  14 1523.69 438.321   5
   6   3  15 10057.2 1053.92   5
  -6  -3 -15 9220.67 918.736   3
  -6  -3 -16 66.4418 234.338   3
   6   3  16 165.103 251.717   5
   6  -4 -17 51008.4 2574.92   2
  -6   4  17 53302.2 2255.10   5
   6  -4 -16 53065.9 2595.56   2
  -6   4  16 47579.1 2104.82   5
  -6   4  15 154.133 251.103   5
   6  -4 -15-292.364 249.798   2
   6  -4 -14 2597.01 546.199   2
  -6   4  14 2731.09 403.407   4
   6   4 -14 2914.73 441.672   2
  -6   4  13 23479.2 1182.20   4
   6  -4 -13 24787.3 1696.22   2
   6   4 -13 27228.7 1300.07   2
  -6   4  12 9976.86 773.609   4
   6  -4 -12 9286.27 1030.11   2
   6   4 -12 10105.7 794.207   2
   6  -4 -11 2909.36 587.675   2
  -6   4  11 3127.42 434.636   4
   6   4 -11 2930.00 455.354   2
  -6   4  10 30186.1 1407.79   4
   6  -4 -10 30350.6 1802.76   2
   6   4 -10 31615.2 1437.76   2
  -6   4   9 65864.2 2202.27   4
   6  -4  -9 64843.3 2641.23   2
   6   4  -9 67485.3 2133.31   2
  -6   4   8 11338.8 897.336   4
   6  -4  -8 10413.6 1038.38   2
   6   4  -8 12706.4 895.382   2
  -6   4   7 12923.9 993.457   4
   6  -4  -7 12976.1 1126.95   2
  -6  -4   7 13148.8 698.040   4
   6   4  -7 14243.1 950.860   2
  -6   4   6 22947.7 1346.18   4
   6  -4  -6 20858.4 1439.23   2
  -6  -4   6 23586.9 994.854   4
   6   4  -6 24531.5 1251.15   2
  -6   4   5 70647.9 2454.66   4
   6  -4  -5 68088.3 2632.91   2
   6   4  -5 70289.0 2215.70   2
  -6   4   5 72702.6 1562.14   1
  -6   4   4 37567.0 1746.31   4
   6  -4  -4 35279.6 1852.30   2
  -6   4   4 38558.1 1065.36   1
   6   4  -4 39678.3 1621.25   2
   6  -4  -3 383.294 252.177   2
  -6   4   3 813.487 289.757   4
   6   4  -3-77.3953 148.742   2
  -6   4   2 12929.0 995.529   4
   6  -4  -2 14429.2 1154.91   2
   6   4  -2 13929.1 954.928   2
   6  -4  -1 33093.3 1756.71   2
  -6   4   1 33472.7 1617.81   4
   6   4  -1 35121.0 1550.15   2
   6  -4   0 52139.2 2184.00   2
  -6   4   0 49615.9 1999.41   4
   6   4   0 49846.2 1877.83   2
   6  -4   1 16321.5 1173.18   2
  -6   4  -1 16869.1 1149.75   4
  -6   4  -2 59504.6 2238.04   4
   6   4   2 59930.6 1797.36   5
   6  -4   2 59542.9 2281.17   2
  -6   4  -3 107127. 3131.85   4
   6   4   3 105482. 2580.51   5
   6  -4   3 105000. 3065.28   2
  -6   4  -4 63586.9 2374.64   4
  -6   4  -4 63959.1 1748.67   3
   6   4   4 67528.1 2052.77   5
   6  -4   4 62665.9 2265.91   2
  -6   4  -5 1210.53 235.513   3
  -6   4  -5 1469.10 405.801   4
   6  -4   5 1688.30 368.750   2
   6   4   5 1982.63 358.735   5
  -6   4  -6 933.908 188.713   3
  -6  -4  -6 586.122 245.902   3
  -6   4  -6 881.270 319.764   4
   6  -4   6 818.057 272.286   2
   6   4   6 722.968 227.152   5
  -6  -4  -7 10648.2 955.210   3
  -6   4  -7 10939.3 992.319   4
   6  -4   7 11713.0 886.039   2
   6   4   7 11326.7 888.673   5
  -6  -4  -8 31812.7 1698.01   3
  -6   4  -8 34403.7 1801.20   4
   6  -4   8 33561.0 1488.27   2
   6   4   8 31507.0 1573.44   5
  -6  -4  -9 16744.3 1255.29   3
  -6   4  -9 20028.3 1389.87   4
   6  -4   9 20077.8 1098.95   2
   6   4   9 16482.9 1149.06   5
  -6   4 -10 132426. 3854.72   4
   6   4  10 125815. 3501.68   5
  -6  -4 -10 126081. 3714.25   3
  -6   4 -11 88501.2 3101.19   4
   6  -4  11 92985.4 2339.47   2
   6   4  11 76031.0 2714.53   5
  -6  -4 -11 77934.9 2852.15   3
  -6   4 -12 41860.7 2114.28   4
   6   4  12 40221.1 1969.51   5
  -6  -4 -12 39233.5 1980.47   3
  -6  -4 -13 609.116 271.668   3
  -6   4 -13 849.592 385.975   4
   6   4  13 772.493 334.330   5
  -6  -4 -14 75.7773 223.122   3
  -6   4 -14 681.375 337.368   4
   6   4  14 514.393 267.507   5
  -6   4 -15 9670.24 1066.92   4
   6   4  15 8459.67 968.106   5
  -6  -4 -15 9664.26 1012.57   3
   6  -5 -15 2694.49 666.169   2
  -6   5  14 19310.2 1184.48   4
   6  -5 -14 19532.1 1636.24   2
  -6   5  13 8690.59 800.529   4
   6  -5 -13 8574.21 1079.37   2
   6   5 -12 4255.55 519.687   2
   6  -5 -12 2780.68 640.285   2
  -6   5  12 3361.33 509.051   4
   6  -5 -11 153.916 270.781   2
  -6   5  11 33.4563 165.337   4
   6   5 -11-45.1847 183.561   2
  -6   5  10 37394.7 1709.15   4
   6  -5 -10 37654.2 2176.69   2
   6   5 -10 39882.2 1597.48   2
   6  -5  -9 1190.26 408.322   2
  -6   5   9 1268.09 365.135   4
   6   5  -9 1044.90 295.251   2
  -6   5   8 11455.7 966.285   4
   6  -5  -8 9518.23 1063.91   2
   6   5  -8 12058.0 874.596   2
   6  -5  -7 739.686 388.834   2
  -6   5   7 742.393 261.505   4
   6   5  -7 866.392 259.354   2
  -6   5   6 109874. 3228.96   4
   6   5  -6 116217. 2958.99   2
  -6   5   5 22875.7 1406.75   4
   6  -5  -5 19454.0 1474.09   2
  -6   5   4 50476.8 2141.29   4
   6  -5  -4 49514.4 2343.72   2
  -6   5   3 11814.6 1015.05   4
   6  -5  -3 10480.7 1058.64   2
  -6   5   2 20981.3 1378.63   4
   6  -5  -2 21097.3 1481.62   2
  -6   5   1 20474.1 1351.56   4
   6  -5  -1 19820.8 1421.11   2
   6  -5   0 2123.44 479.238   2
  -6   5   0 1823.03 421.955   4
   6   5   0 1784.86 258.859   5
   6  -5   1 531.023 287.525   2
  -6   5  -1 653.916 327.404   4
   6   5   1 411.671 195.156   5
   6  -5   2 102631. 3181.43   2
  -6   5  -2 99525.5 3148.54   4
   6   5   2 95433.0 2409.16   5
   6  -5   3 1937.12 451.196   2
   6   5   3 1261.95 305.858   5
  -6  -5  -4 64171.0 2375.41   3
  -6   5  -4 62652.7 2464.83   4
   6   5   4 65050.1 2052.01   5
   6  -5   4 66669.4 2416.12   2
   6  -5   5 1825.46 406.216   2
  -6  -5  -5 2060.24 433.950   3
  -6   5  -5 2440.96 526.766   4
   6   5   5 2542.49 421.178   5
  -6  -5  -6 24900.2 1494.60   3
  -6   5  -6 24331.6 1540.85   4
   6   5   6 23698.8 1293.81   5
   6  -5   6 25898.7 1409.06   2
  -6  -5  -7 34356.6 1795.15   3
  -6   5  -7 38016.3 1951.62   4
   6  -5   7 35183.0 1605.44   2
   6   5   7 36206.6 1653.32   5
  -6  -5  -8 349.415 287.706   3
  -6   5  -8 228.916 235.861   4
   6  -5   8 167.655 192.534   2
  -6  -5  -9 733.073 298.623   3
  -6   5  -9 1352.66 423.648   4
   6  -5   9 887.757 264.555   2
   6   5   9 1130.60 362.290   5
  -6   5 -10 59569.9 2602.39   4
   6   5  10 58489.0 2324.79   5
  -6  -5 -10 57387.2 2476.49   3
  -6  -5 -11 806.069 349.939   3
  -6   5 -11 1129.73 435.049   4
   6   5  11 892.783 362.830   5
  -6   5 -12 20655.9 1549.79   4
   6   5  12 16652.5 1290.64   5
  -6  -5 -12 17683.1 1376.10   3
  -6  -5 -13-103.902 284.537   3
  -6   5 -13-105.829 302.020   4
   6   5  13 107.802 312.325   5
   6  -6 -13 5123.76 907.438   2
  -6   6  13 5556.59 700.639   4
   6  -6 -12 4141.48 867.133   2
  -6   6  12 5174.44 686.894   4
   6  -6 -11 389.577 281.917   2
  -6   6  11 30.8283 259.148   4
  -6   6  10 97653.3 3076.83   4
   6  -6 -10 93342.8 3809.17   2
  -6   6   9 9349.22 905.252   4
   6  -6  -9 9490.09 1189.28   2
  -6   6   8 15041.3 1159.53   4
   6  -6  -8 12104.2 1317.06   2
   6  -6  -7 1547.94 512.554   2
  -6   6   7 2366.20 495.803   4
  -6   6   6 41483.3 1959.14   4
   6  -6  -6 36186.3 2199.95   2
   6  -6  -5 557.458 330.243   2
  -6   6   5 962.926 340.282   4
  -6   6   4 23960.8 1504.41   4
   6  -6  -4 23712.5 1702.13   2
  -6   6   3 8067.07 879.207   4
   6  -6  -3 5825.01 846.812   2
  -6   6   2 14209.1 1163.68   4
   6  -6  -2 13832.6 1262.14   2
   6  -6  -1 604.759 354.977   2
  -6   6   1 836.065 352.299   4
   6  -6   0 2756.82 567.679   2
  -6   6   0 2979.42 572.212   4
  -6  -6  -1 17504.8 1195.59   3
   6  -6   1 16895.7 1326.21   2
  -6   6  -1 18724.3 1397.81   4
   6   6   1 15848.2 859.804   5
  -6  -6  -2 140332. 3689.10   3
   6  -6   2 138873. 3963.47   2
  -6   6  -2 135811. 3995.75   4
   6   6   2 132356. 2984.92   5
   6  -6   3 15552.3 1210.11   2
  -6  -6  -3 18236.6 1262.70   3
  -6   6  -3 15825.0 1294.36   4
   6   6   3 18843.8 1050.89   5
  -6  -6  -4 34738.6 1774.59   3
  -6   6  -4 34160.8 1917.86   4
   6   6   4 35504.1 1541.52   5
   6  -6   4 34383.8 1768.02   2
   6  -6   5 1794.33 404.546   2
  -6  -6  -5 2038.97 464.304   3
  -6   6  -5 2082.34 523.477   4
   6   6   5 2091.21 392.481   5
   6  -6   6 4237.98 572.101   2
  -6  -6  -6 4471.10 678.846   3
  -6   6  -6 5001.08 765.300   4
   6   6   6 4382.57 580.010   5
  -6  -6  -7 4329.88 682.162   3
  -6   6  -7 4714.68 738.682   4
   6  -6   7 4011.30 559.872   2
   6   6   7 3760.21 576.344   5
  -6  -6  -8 156.573 255.041   3
  -6   6  -8-244.470 255.991   4
   6   6   8 186.185 231.752   5
  -6   6  -9 6688.78 908.099   4
   6   6   9 6815.02 790.829   5
  -6  -6  -9 6976.15 876.403   3
   6   6  10 102988. 3297.93   5
  -6  -6 -10 100329. 3434.86   3
  -6   6 -11 18318.8 1518.59   4
   6   6  11 18872.2 1386.78   5
  -6  -6 -11 19136.4 1471.64   3
  -6   7  10 9407.18 978.062   4
   6  -7 -10 7728.98 1188.98   2
  -6   7   9 17204.3 1318.30   4
   6  -7  -9 12218.8 1477.02   2
   6  -7  -8 656.251 369.550   2
  -6   7   8 973.609 317.644   4
   6  -7  -7 538.439 421.233   2
  -6   7   7 916.013 354.812   4
  -6   7   6 30652.4 1758.03   4
   6  -7  -6 27493.3 2008.66   2
  -6   7   5 61184.8 2513.45   4
   6  -7  -5 55329.9 2808.78   2
  -6  -7   4 3261.29 525.522   3
   6  -7  -4 3023.18 652.725   2
  -6   7   4 2690.03 539.520   4
  -6  -7   3 75.2139 198.922   3
   6  -7  -3 391.746 366.994   2
  -6   7   3 52.2361 212.448   4
  -6  -7   2 19087.9 1249.63   3
  -6   7   2 20231.6 1449.17   4
   6  -7  -2 19073.2 1512.16   2
  -6  -7   1 129.559 277.666   3
   6  -7  -1 578.857 341.045   2
  -6   7   1 333.424 249.732   4
  -6  -7   0 9418.39 904.709   3
  -6   7   0 8117.24 936.228   4
   6  -7   0 8009.48 936.901   2
  -6  -7  -1 26812.9 1539.22   3
   6  -7   1 24957.8 1666.02   2
  -6  -7  -2 24078.1 1485.08   3
   6  -7   2 25372.0 1641.64   2
  -6   7  -2 26135.9 1715.02   4
  -6  -7  -3 63213.5 2491.45   3
   6  -7   3 68980.4 2697.84   2
  -6   7  -3 63163.7 2742.43   4
   6  -7   4 218.985 259.795   2
  -6  -7  -4 444.344 300.253   3
  -6   7  -4 667.553 401.016   4
  -6   7  -5 9687.24 1093.30   4
   6  -7   5 9621.94 939.226   2
  -6  -7  -5 11610.5 1085.63   3
  -6   7  -6 10643.5 1166.09   4
  -6  -7  -6 12488.6 1123.82   3
  -6   7  -7 197.666 303.304   4
   6   7   7 171.768 220.567   5
  -6   7  -8 15158.3 1413.60   4
   6   7   8 13047.1 1122.19   5
  -6  -7  -8 14954.9 1252.31   3
  -6  -8   5 41624.9 1866.06   3
  -6   8   5 43951.4 2204.06   4
   6  -8  -5 41667.3 2485.18   2
  -6  -8   4 497.248 268.971   3
   6  -8  -4-171.082 355.671   2
  -6   8   4-261.733 280.008   4
  -6  -8   3-239.828 240.882   3
   6  -8  -3 184.444 292.373   2
  -6   8   3 446.198 301.739   4
  -6  -8   2 4683.43 651.966   3
   6  -8  -2 5107.14 830.337   2
  -6   8   2 4585.40 737.195   4
  -6  -8   1 9744.33 942.810   3
  -6   8   1 8731.66 970.171   4
   6  -8  -1 8385.19 1020.08   2
  -6  -8   0 2698.10 553.177   3
   6  -8   0 2102.91 544.378   2
  -6   8   0 2710.43 585.901   4
   6  -8   1 12343.4 1205.86   2
  -6   8  -1 11870.7 1163.91   4
  -6  -8  -1 12643.9 1096.67   3
   6  -8   2 658.514 419.951   2
  -6  -8  -2-57.4357 254.562   3
  -6   8  -2-187.047 286.604   4
   6  -8   3 63052.6 2648.35   2
  -6   8  -3 56943.2 2655.85   4
  -6  -8  -3 62742.5 2533.09   3
   7   0 -18 32807.3 1814.72   2
   7   0 -17 80.4545 225.723   2
   7   0 -16 70340.9 2685.47   2
   7   0 -15-95.4679 252.120   2
  -7   0  14 58905.1 1644.46   5
   7   0 -14 60937.7 2441.16   2
  -7   0  13 255.246 177.417   5
   7   0 -13 151.042 236.082   2
   7   0 -12 88877.9 2959.05   2
  -7   0  12 89346.6 2052.42   5
   7   0 -11 272.303 275.324   2
  -7   0  11 25.2558 85.7879   4
   7   0 -11 19.0261 64.2566   1
   7   0 -10 16712.0 576.935   1
   7   0 -10 18038.6 1258.16   2
   7   0  -9 318.898 256.368   2
   7   0  -8 16677.6 1183.01   2
   7   0  -7 92.1462 239.986   2
   7   0  -6 280180. 5606.43   2
   7   0  -5 275.227 294.312   2
   7   0  -4 211360. 4641.10   2
   7   0  -3 133.846 200.153   2
   7   0  -2 1462.53 367.330   2
  -7   0   2 1377.12 308.035   5
   7   0  -1-129.670 217.512   2
  -7   0   1 364.244 203.478   5
   7   0   0 1997.21 398.336   2
  -7   0   0 1466.22 295.081   5
   7   0   1 146.419 200.134   2
   7   0   2 185947. 4247.59   2
   7   0   3 746.603 343.026   2
   7   0   4 306439. 5836.44   2
   7   0   5-14.3434 190.370   2
   7   0   6 17276.0 1153.38   2
   7   0   7 347.328 232.654   2
  -7   0  -8 5227.17 591.335   1
   7   0   8 4427.01 586.589   2
  -7   0  -9-43.3319 178.110   1
   7   0   9-60.8968 198.045   2
   7   0  10 53834.9 2103.01   2
  -7   0 -10 50584.9 2042.53   1
  -7   0 -11 63.7340 212.203   3
  -7   0 -11 364.828 288.935   1
  -7   0 -12 43808.3 1759.82   3
  -7   0 -12 45652.8 2103.08   1
  -7   0 -13-75.6618 158.084   3
  -7   0 -13 364.221 263.834   1
  -7   0 -14 40482.2 2138.98   1
  -7   0 -14 42580.5 1734.70   3
  -7   0 -15 441.232 228.824   3
  -7   0 -15 1012.38 417.955   1
   7   1 -18 26157.9 1558.65   2
   7  -1 -18 28501.8 1776.79   2
   7  -1 -17 10128.1 1073.84   2
   7   1 -17 10195.1 969.572   2
   7  -1 -16 29085.4 1778.08   2
   7   1 -16 30564.2 1670.11   2
  -7   1  16 31832.8 1356.40   5
  -7   1  15 1097.17 270.551   5
   7  -1 -15 1063.65 345.533   2
   7   1 -15 1649.20 426.744   2
   7  -1 -14 41301.5 2071.68   2
   7   1 -14 38819.4 1881.51   2
  -7   1  14 42881.0 1532.24   5
   7  -1 -13 35840.3 1907.09   2
  -7   1  13 33448.9 1354.86   5
   7  -1 -12 60081.8 2469.47   2
   7   1 -12 60762.4 2344.95   2
   7   1 -11 6472.42 738.257   2
  -7  -1  11 6638.67 395.540   5
   7  -1 -11 6057.29 770.276   2
  -7  -1  10 34334.5 1103.99   4
   7   1 -10 34290.9 1705.51   2
  -7  -1  10 38193.3 977.319   5
   7  -1 -10 32258.4 1754.21   2
  -7   1   9 10499.9 742.351   4
   7   1  -9 10436.9 920.906   2
   7  -1  -9 9944.38 954.635   2
  -7   1   8 11204.1 783.062   4
   7   1  -8 11653.8 957.137   2
   7  -1  -8 10374.2 963.287   2
  -7   1   7 19965.7 1065.05   4
   7   1  -7 17938.2 1183.56   2
   7  -1  -7 19136.6 1288.82   2
  -7   1   6 86025.2 2341.74   4
  -7  -1   6 82461.8 1784.82   5
   7   1  -6 80381.0 2597.86   2
   7  -1  -6 84316.9 2779.14   2
   7   1  -5 50832.5 1966.80   2
  -7  -1   5 51801.3 1295.45   5
   7  -1  -5 51178.9 2071.27   2
   7   1  -4 120793. 3238.86   2
  -7  -1   4 125112. 2364.47   5
   7  -1  -4 123627. 3428.56   2
   7   1  -3 40433.5 1754.14   2
  -7  -1   3 40417.5 1201.00   5
   7  -1  -3 39313.0 1811.33   2
   7   1  -2 36325.0 1666.35   2
  -7  -1   2 37614.8 1185.03   5
   7  -1  -2 36807.3 1743.21   2
   7   1  -1 21872.4 1273.74   2
  -7  -1   1 21460.5 898.697   5
   7  -1  -1 21404.2 1307.36   2
   7   1   0 32175.9 1557.35   2
   7  -1   0 32384.3 1601.95   2
  -7  -1   0 32676.4 1173.16   5
   7   1   1 25047.3 1371.59   2
   7  -1   1 24670.2 1391.67   2
  -7  -1  -1 27544.2 1099.78   5
   7   1   2 62723.8 2246.17   2
   7  -1   2 69117.1 2370.36   2
  -7  -1  -2 63363.5 1822.92   5
   7   1   3 88228.8 2717.58   2
   7  -1   3 84914.5 2697.35   2
  -7   1  -4 71141.2 1732.24   1
   7  -1   4 67547.9 2377.01   2
   7   1   5 9095.51 835.138   2
   7  -1   5 10364.0 884.796   2
  -7   1  -5 9495.20 638.446   1
   7   1   6 32425.2 1615.19   2
  -7   1  -6 35816.2 1354.04   1
   7  -1   6 35573.6 1670.24   2
  -7   1  -7 9175.56 711.639   1
   7   1   7 10135.4 898.542   2
   7  -1   7 9442.60 851.140   2
  -7   1  -8 21950.1 1177.25   1
   7   1   8 18962.8 1243.07   2
   7  -1   8 22247.1 1311.60   2
  -7   1  -9-66.9968 189.843   1
   7  -1   9 6.56125 195.754   2
  -7  -1 -10 23538.2 1342.54   3
  -7   1 -10 26451.2 1426.38   1
   7  -1  10 26638.3 1427.48   2
  -7  -1 -11 32938.7 1610.79   3
  -7   1 -11 34665.5 1452.06   3
  -7   1 -11 33378.7 1701.93   1
   7  -1  11 36949.4 1681.84   2
  -7  -1 -12 17044.5 1148.55   3
  -7   1 -12 17481.0 1014.65   3
  -7   1 -12 19225.1 1336.56   1
  -7   1 -13 4148.98 501.051   3
  -7   1 -13 4956.38 723.384   1
  -7  -1 -13 5134.27 641.949   3
  -7   1 -14 43902.8 2200.33   1
  -7  -1 -14 43014.7 1865.21   3
  -7   1 -15 21534.9 1593.47   1
  -7  -1 -15 22082.6 1299.69   3
   7  -2 -17 52629.4 2548.02   2
   7   2 -17 53895.1 2148.19   2
  -7   2  17 52590.3 1979.48   5
   7  -2 -16 4936.81 789.645   2
   7   2 -16 5132.11 666.768   2
  -7   2  16 5197.82 605.471   5
  -7   2  15 371.959 199.009   5
   7  -2 -15 926.616 401.791   2
   7   2 -15 333.182 266.865   2
   7  -2 -14 5852.91 834.641   2
   7   2 -14 5039.20 640.899   2
  -7   2  14 5609.08 610.655   5
   7  -2 -13 94149.3 3315.99   2
   7   2 -13 94683.2 2905.03   2
   7  -2 -12 41528.6 2131.56   2
  -7   2  12 42093.0 1369.02   4
   7   2 -12 41131.5 1835.22   2
   7  -2 -11 12245.4 1137.84   2
  -7   2  11 15226.5 862.598   4
   7   2 -11 15024.5 1086.25   2
   7  -2 -10 3241.10 581.003   2
  -7   2  10 3047.16 427.553   4
   7   2 -10 2343.06 439.958   2
   7  -2  -9 36328.7 1898.06   2
  -7   2   9 34598.2 1507.26   4
   7   2  -9 33839.9 1622.15   2
   7  -2  -8 1273.46 406.767   2
  -7   2   8 1310.06 315.035   4
  -7  -2   8 1333.21 227.872   4
   7   2  -8 988.914 325.196   2
   7  -2  -7 19732.5 1361.21   2
  -7   2   7 21696.4 1191.11   4
   7   2  -7 21924.5 1293.21   2
   7  -2  -6 45064.8 2045.81   2
  -7   2   6 43016.2 1707.87   4
   7   2  -6 38427.4 1723.81   2
  -7   2   5 200869. 4182.95   4
   7   2  -5 203140. 4377.81   2
  -7  -2   5 194673. 2724.69   5
   7  -2  -5 201020. 4744.50   2
  -7   2   4 56682.4 2008.46   4
   7   2  -4 51438.5 1988.79   2
  -7  -2   4 50958.2 1103.70   5
   7  -2  -4 59741.4 2350.21   2
  -7   2   3 29003.2 1411.05   4
   7   2  -3 29911.5 1488.75   2
   7   2  -3 33099.0 1029.11   1
  -7  -2   3 31584.9 878.826   5
   7  -2  -3 30078.1 1628.76   2
  -7  -2   2 255.809 121.586   5
   7  -2  -2 151.582 213.625   2
   7   2  -2 189.996 104.007   1
   7   2  -2 78.8075 169.111   2
   7   2  -1 23008.6 1304.07   2
  -7  -2   1 23636.1 866.036   5
   7  -2  -1 24639.9 1450.11   2
   7   2  -1 24545.0 916.665   1
   7   2   0 5254.23 631.308   2
   7   2   0 5258.69 426.410   1
  -7  -2   0 5948.55 442.714   5
   7  -2   0 5656.14 691.428   2
   7   2   1 51976.2 2015.13   2
   7  -2   1 50051.8 2082.10   2
  -7  -2  -1 52280.6 1479.72   5
  -7   2  -2 87516.7 1651.01   1
   7   2   2 88781.6 2738.25   2
   7  -2   2 92143.0 2867.27   2
  -7  -2  -2 84872.3 2061.15   5
  -7   2  -3 183937. 3059.34   1
   7   2   3 188738. 4254.65   2
   7  -2   3 182215. 4294.01   2
   7   2   4 21377.8 1292.12   2
   7  -2   4 23007.6 1359.50   2
  -7   2  -4 23106.6 936.448   1
   7   2   5 21889.3 1322.43   2
   7  -2   5 21206.3 1307.73   2
  -7   2  -5 22479.5 999.752   1
  -7   2  -6 1753.81 315.568   1
   7   2   6 1842.20 404.943   2
   7  -2   6 2319.59 429.026   2
   7   2   7 27082.4 1490.21   2
   7  -2   7 24047.3 1364.01   2
  -7   2  -7 24537.6 1198.18   1
   7  -2   8 20611.1 1246.72   2
  -7   2  -8 19693.2 1131.90   1
  -7  -2  -9 1984.49 439.156   3
  -7   2  -9 2070.94 396.264   1
   7  -2   9 2802.80 466.962   2
  -7  -2 -10 23336.0 1410.21   3
   7  -2  10 27681.9 1421.41   2
  -7   2 -10 26454.3 1457.23   1
  -7  -2 -11 51971.3 2147.49   3
   7  -2  11 56215.7 2052.44   2
  -7   2 -11 54886.0 2222.33   1
  -7  -2 -12 7441.70 807.224   3
  -7   2 -12 7302.26 606.710   3
   7  -2  12 8322.21 762.948   2
  -7   2 -12 8040.73 867.718   1
  -7   2 -13 11393.7 1086.94   1
  -7  -2 -13 9815.72 932.914   3
  -7  -2 -14 557.724 321.622   3
  -7   2 -14 1071.51 381.773   1
  -7   2 -15 49535.5 2450.03   1
  -7  -2 -15 46019.6 2033.01   3
  -7   3  16 2521.90 481.694   5
   7  -3 -16 2021.41 533.818   2
  -7   3  15 1117.46 361.995   5
   7  -3 -15 1578.77 527.868   2
   7   3 -15 1133.58 321.540   2
   7  -3 -14 6411.49 907.684   2
   7   3 -14 6777.17 726.761   2
   7  -3 -13 95777.3 3426.51   2
   7   3 -13 91944.4 2786.60   2
   7  -3 -12 1698.01 517.751   2
  -7   3  12 2225.72 340.830   4
   7   3 -12 2598.02 469.269   2
   7  -3 -11 6690.75 868.269   2
  -7   3  11 7727.23 677.658   4
   7   3 -11 5922.71 673.952   2
   7  -3 -10 2726.13 563.942   2
  -7   3  10 3483.38 473.509   4
   7   3 -10 3393.70 536.480   2
   7  -3  -9 30258.9 1801.45   2
  -7   3   9 32535.4 1536.88   4
   7   3  -9 32300.3 1561.31   2
   7  -3  -8 9942.34 1024.88   2
  -7   3   8 10665.1 894.851   4
   7   3  -8 9690.78 844.509   2
   7  -3  -7 5459.39 763.723   2
  -7   3   7 6311.57 708.701   4
   7   3  -7 4627.26 592.615   2
   7  -3  -6 20118.6 1444.38   2
  -7   3   6 20325.8 1254.86   4
   7   3  -6 24073.0 1345.87   2
   7  -3  -5 315980. 6554.54   2
  -7   3   5 315120. 5948.67   4
   7   3  -5 314475. 5889.57   2
   7  -3  -4 11896.1 1078.60   2
  -7   3   4 12868.4 981.239   4
   7   3  -4 14174.6 1021.05   2
   7  -3  -3 10479.4 1004.50   2
  -7   3   3 11101.5 902.493   4
   7   3  -3 11114.4 900.738   2
  -7   3   2 10336.9 885.976   4
   7   3  -2 9469.73 842.125   2
  -7  -3   2 9089.79 415.235   5
   7  -3  -2 11123.0 1031.96   2
  -7   3   1 14389.6 1065.68   4
   7   3  -1 17983.6 1155.76   2
   7   3  -1 15655.5 863.681   1
  -7  -3   1 14684.8 605.292   5
   7  -3  -1 15335.3 1196.74   2
  -7   3   0 19945.8 1245.40   4
   7   3   0 17737.4 940.630   1
   7   3   0 18794.2 1192.42   2
  -7   3   0 16490.9 474.057   1
   7  -3   0 18661.2 1304.24   2
  -7  -3   0 17921.2 771.566   5
   7   3   1 4560.63 495.115   1
   7   3   1 5314.73 656.552   2
   7  -3   1 5452.35 714.078   2
  -7  -3  -1 4216.44 400.054   5
   7   3   2 56943.8 2166.37   2
   7  -3   2 53746.0 2234.13   2
  -7  -3  -2 59087.7 1587.30   5
   7   3   2 52678.7 1778.43   1
   7   3   3 317552. 6147.35   2
   7  -3   3 327363. 6423.72   2
   7   3   4 27079.8 1472.41   2
   7  -3   4 20752.6 1338.13   2
   7  -3   5 22557.8 1363.21   2
   7  -3   6 3770.12 551.469   2
   7  -3   7 55526.9 2143.15   2
  -7  -3  -8 2868.15 529.762   3
   7  -3   8 3571.91 524.319   2
   7   3   8 3356.24 534.982   5
  -7  -3  -9 801.484 318.006   3
   7  -3   9 1818.88 373.662   2
   7   3   9 1397.59 412.434   5
  -7  -3 -10 2265.76 477.179   3
   7  -3  10 1992.78 390.412   2
   7   3  10 2394.68 494.780   5
  -7  -3 -11 37692.9 1916.12   3
   7  -3  11 42249.2 1705.35   2
   7   3  11 38378.8 1971.86   5
  -7  -3 -12 325.402 210.166   3
   7   3  12 658.181 338.406   5
  -7  -3 -13 1880.36 500.043   3
   7   3  13 1382.54 430.090   5
  -7  -3 -14 1806.71 498.429   3
   7   3  14 807.467 365.896   5
   7  -4 -15 296.808 384.897   2
   7  -4 -14 3009.34 661.611   2
   7   4 -14 3526.87 533.838   2
   7  -4 -13 45420.5 2421.93   2
   7   4 -13 44464.7 1843.29   2
   7  -4 -12 32644.1 2024.55   2
  -7   4  12 37610.7 1607.78   4
   7   4 -12 37274.1 1683.89   2
   7  -4 -11 464.785 368.890   2
  -7   4  11-37.5935 191.931   4
   7   4 -11 331.714 267.876   2
   7  -4 -10 9106.44 1043.40   2
  -7   4  10 8202.98 780.585   4
   7   4 -10 9241.12 824.682   2
   7  -4  -9 36837.7 2102.05   2
  -7   4   9 36801.0 1708.50   4
   7   4  -9 33284.7 1605.70   2
   7  -4  -8 2962.79 610.654   2
  -7   4   8 3466.86 539.212   4
   7   4  -8 3863.29 536.426   2
   7  -4  -7 228.416 230.960   2
  -7   4   7 547.763 263.331   4
   7   4  -7 554.985 230.214   2
   7  -4  -6 25312.8 1706.29   2
  -7   4   6 26439.4 1526.66   4
   7   4  -6 27044.8 1420.43   2
   7  -4  -5 106249. 3586.12   2
  -7   4   5 103776. 3201.76   4
   7   4  -5 99440.1 2900.31   2
   7  -4  -4 60190.8 2634.02   2
  -7   4   4 57493.2 2301.50   4
   7   4  -4 61117.3 2209.43   2
   7  -4  -3 3569.52 648.919   2
  -7   4   3 3754.18 576.062   4
   7   4  -3 3720.85 543.127   2
   7  -4  -2 1692.41 481.474   2
  -7   4   2 2451.42 457.322   4
   7   4  -2 1585.50 381.341   2
   7  -4  -1 30080.7 1788.52   2
  -7   4   1 32979.1 1689.18   4
   7   4  -1 32152.3 1586.27   2
  -7   4   0 6473.32 753.350   4
   7   4   0 5971.69 682.285   2
   7  -4   0 5787.83 766.832   2
   7  -4   1 1914.90 444.828   2
  -7   4  -1 2177.66 463.038   4
   7   4   1 1625.78 373.279   2
  -7   4  -2 31141.4 1693.19   4
   7  -4   2 29634.9 1694.39   2
  -7   4  -3 118636. 3514.55   4
   7  -4   3 115161. 3476.05   2
  -7   4  -4 37813.9 1921.46   4
   7  -4   4 36257.8 1831.56   2
  -7   4  -5 5428.11 748.143   4
   7   4   5 4656.67 608.024   5
   7  -4   5 5072.77 676.544   2
  -7  -4  -6-326.383 252.321   3
  -7   4  -6 196.825 251.483   4
   7  -4   6 482.112 245.342   2
   7   4   6 67.2836 169.385   5
  -7   4  -7 32484.2 1828.76   4
  -7  -4  -7 28761.2 1658.13   3
   7  -4   7 33032.3 1641.44   2
   7   4   7 29366.0 1605.09   5
  -7  -4  -8 15679.1 1236.07   3
  -7   4  -8 16090.0 1315.52   4
   7  -4   8 15803.8 1100.70   2
   7   4   8 15720.0 1208.76   5
  -7  -4  -9 78.7445 245.993   3
  -7   4  -9 227.460 335.321   4
   7  -4   9 94.4224 167.950   2
   7   4   9 11.8865 201.838   5
  -7  -4 -10 10362.2 1035.67   3
  -7   4 -10 11012.6 1109.28   4
   7  -4  10 12380.0 917.737   2
   7   4  10 11720.8 1095.82   5
  -7   4 -11 28906.6 1830.65   4
   7   4  11 24810.7 1591.79   5
  -7  -4 -11 25119.6 1644.31   3
  -7  -4 -12 1851.40 475.383   3
  -7   4 -12 1786.87 475.682   4
   7   4  12 2792.07 574.795   5
  -7  -4 -13-1.54463 245.901   3
  -7   4 -13 592.113 496.882   4
   7   4  13-325.413 353.598   5
   7  -5 -13 5614.13 920.938   2
   7  -5 -12 64252.8 3089.96   2
  -7   5  12 62669.5 2319.27   4
  -7   5  11-240.468 282.189   4
   7   5 -11-66.0797 196.541   2
  -7   5  10 4825.84 639.376   4
   7  -5 -10 5696.02 903.754   2
   7   5 -10 5241.99 640.402   2
  -7   5   9 12482.1 1043.18   4
   7  -5  -9 13443.5 1345.48   2
   7   5  -9 12565.2 965.704   2
  -7   5   8-2.55729 212.206   4
   7   5  -8 359.937 230.456   2
   7  -5  -7 283.787 263.121   2
  -7   5   7 479.027 310.790   4
   7   5  -7 684.210 270.363   2
  -7   5   6 112109. 3452.63   4
   7  -5  -6 109919. 3906.31   2
   7   5  -6 121824. 3248.12   2
   7  -5  -5 1505.73 502.749   2
  -7   5   5 1471.79 395.498   4
   7   5  -5 980.974 390.085   2
   7  -5  -4 122983. 4087.16   2
  -7   5   4 119674. 3639.95   4
   7   5  -4 130064. 3412.80   2
   7  -5  -3 1057.85 439.595   2
  -7   5   3 960.130 312.654   4
   7  -5  -2-101.850 313.367   2
  -7   5   2 130.073 265.793   4
   7  -5  -1 12586.4 1220.06   2
  -7   5   1 12791.8 1122.39   4
   7  -5   0 277.033 216.387   2
  -7   5   0 348.149 229.640   4
   7  -5   1 2867.34 568.607   2
  -7   5  -1 3404.35 587.916   4
  -7   5  -2 202192. 4967.59   4
   7  -5   2 206233. 5092.23   2
   7  -5   3 1415.34 456.853   2
  -7   5  -3 2076.82 541.806   4
   7   5   3 509.181 254.768   5
  -7  -5  -4 102358. 3249.65   3
  -7   5  -4 105651. 3446.60   4
   7   5   4 105530. 2885.85   5
   7  -5   4 101051. 3277.88   2
  -7  -5  -5 398.654 312.831   3
  -7   5  -5 422.187 345.465   4
   7  -5   5-101.001 222.886   2
   7   5   5-122.912 191.964   5
  -7  -5  -6 432.061 280.443   3
  -7   5  -6 283.075 224.114   4
   7  -5   6 618.418 290.946   2
   7   5   6 104.969 223.660   5
  -7  -5  -7 4731.49 705.298   3
  -7   5  -7 6179.31 849.529   4
   7  -5   7 5218.63 673.340   2
   7   5   7 4011.54 608.718   5
  -7  -5  -8 15282.3 1260.20   3
  -7   5  -8 15850.6 1342.27   4
   7  -5   8 15887.0 1114.33   2
   7   5   8 15630.0 1199.62   5
  -7  -5  -9 10.9975 214.381   3
  -7   5  -9 600.916 311.928   4
   7   5   9 540.960 337.941   5
  -7   5 -10 44245.4 2336.72   4
   7   5  10 39529.4 2035.58   5
  -7  -5 -10 41006.1 2167.49   3
  -7   5 -11 9044.24 1090.70   4
  -7  -5 -11 6807.47 896.487   3
   7   5  11 6459.77 835.925   5
   7  -6 -11 2245.03 664.668   2
  -7   6  11 2708.07 529.952   4
  -7   6  10 6294.05 778.195   4
   7  -6 -10 7547.25 1141.44   2
   7  -6  -9 4389.76 869.369   2
  -7   6   9 5266.31 731.658   4
  -7   6   8 23046.8 1487.14   4
   7  -6  -8 21002.2 1796.25   2
  -7   6   7 9528.81 979.499   4
   7  -6  -7 7761.14 1100.54   2
  -7   6   6 38669.1 1964.75   4
   7  -6  -6 35133.0 2277.33   2
  -7   6   5 35198.7 1905.22   4
   7  -6  -5 28114.2 2013.03   2
   7  -6  -4 33924.7 2169.11   2
  -7   6   4 36053.5 1963.48   4
   7  -6  -3 3455.53 718.690   2
  -7   6   3 1846.48 473.194   4
   7  -6  -2 15393.9 1424.23   2
  -7   6   2 15879.7 1316.94   4
   7  -6  -1 2061.66 547.207   2
  -7   6   1 4908.79 761.418   4
   7  -6   0 13243.7 1276.50   2
  -7   6   0 13247.7 1242.02   4
   7  -6   1 6367.94 878.740   2
  -7   6  -1 6807.01 883.314   4
  -7  -6  -2 14500.0 1170.46   3
  -7   6  -2 18226.7 1435.30   4
   7  -6   2 16865.8 1369.29   2
  -7  -6  -3 13873.8 1165.52   3
  -7   6  -3 13160.9 1249.54   4
   7  -6   3 11899.5 1133.74   2
  -7  -6  -4 47056.3 2183.80   3
  -7   6  -4 43835.8 2296.10   4
   7  -6   4 45497.9 2172.67   2
  -7  -6  -5 5332.81 756.712   3
  -7   6  -5 5309.99 819.297   4
   7  -6   5 2825.36 527.613   2
  -7  -6  -6 30982.4 1811.93   3
  -7   6  -6 32228.6 1977.91   4
   7  -6   6 31697.8 1733.11   2
  -7  -6  -7-153.576 239.990   3
  -7   6  -7-478.241 329.974   4
  -7  -6  -8 5064.36 761.964   3
  -7   6  -8 6219.46 921.532   4
   7   6   8 4467.11 685.001   5
  -7  -6  -9 1817.51 505.504   3
  -7   6  -9 1609.85 498.870   4
   7   6   9 1487.93 384.769   5
  -7   7   7 11141.2 1089.62   4
   7  -7  -7 9578.45 1276.90   2
  -7   7   6 14474.4 1248.78   4
   7  -7  -6 12754.4 1433.40   2
   7  -7  -5 35775.7 2338.38   2
  -7   7   5 36973.2 2011.65   4
   7  -7  -4 13118.3 1406.16   2
  -7   7   4 16929.6 1363.28   4
   7  -7  -3 10267.7 1233.74   2
  -7   7   3 12694.6 1187.82   4
   7  -7  -2 728.081 413.962   2
  -7  -7   2 1037.60 404.522   3
  -7   7   2 1055.47 425.413   4
   7  -7  -1 4666.54 804.090   2
  -7  -7   1 5148.04 709.203   3
  -7   7   1 4522.31 756.476   4
  -7  -7   0 752.389 308.236   3
  -7   7   0 471.278 286.970   4
   7  -7   1 7532.30 984.286   2
  -7  -7  -1 6567.88 820.385   3
  -7   7  -1 7706.20 983.930   4
   7  -7   2 13073.4 1236.02   2
  -7  -7  -2 13117.3 1151.27   3
  -7   7  -2 11957.3 1224.40   4
  -7  -7  -3 41219.0 2073.84   3
  -7   7  -3 38907.3 2226.21   4
   7  -7   3 39741.3 2121.47   2
  -7  -7  -4 26621.8 1687.43   3
  -7   7  -4 26724.5 1868.39   4
   7  -7   4 23273.1 1574.49   2
  -7  -7  -5 6228.61 832.023   3
  -7   7  -5 5018.11 861.913   4
   8   0 -16 22241.2 1573.43   2
   8   0 -15-194.011 305.106   2
   8   0 -14 21051.8 1519.08   2
   8   0 -13 317.431 256.580   2
   8   0 -12 205719. 5105.68   2
   8   0 -11-152.203 322.209   2
  -8   0  10 22948.4 1075.27   4
   8   0 -10 23071.2 1527.41   2
  -8   0   9 29.9900 133.769   4
   8   0  -9-25.4934 240.644   2
  -8   0   8 49691.7 1725.61   4
   8   0  -8 48972.2 2215.21   2
   8   0  -7 399.740 294.883   2
   8   0  -6 29327.9 1673.22   2
   8   0  -5 573.863 331.317   2
   8   0  -4 229396. 5144.55   2
   8   0  -3-21.5263 230.321   2
   8   0  -2 844.757 294.570   2
   8   0  -1 18.7922 205.040   2
   8   0   0 57329.0 2302.90   2
   8   0   1 52.9012 165.264   2
   8   0   2 41727.9 1939.23   2
   8   0   3 487.876 305.574   2
   8   0   4 76666.4 2697.26   2
   8   0   5-184.964 247.535   2
   8   0   6 12681.9 1056.04   2
   8   0   7 118.325 293.943   2
   8   0   8 150742. 4009.22   2
   8   0   9 450.840 261.684   2
   8   0  10 8621.53 894.138   2
  -8   0 -11-122.637 190.692   3
  -8   0 -12 9531.19 841.033   3
  -8   0 -13 204.806 154.247   3
  -8   0 -13-223.010 329.343   1
   8  -1 -16 3722.69 701.993   2
   8   1 -16 4394.87 696.461   2
   8  -1 -15 5028.95 782.071   2
   8   1 -15 4026.64 655.697   2
   8   1 -14 47413.9 2230.53   2
   8  -1 -14 55613.0 2546.91   2
   8   1 -13 37426.0 1953.24   2
   8  -1 -13 37503.6 2061.81   2
  -8   1  13 34021.3 1371.95   5
   8   1 -12 95864.5 3195.13   2
   8  -1 -12 97799.2 3399.69   2
   8   1 -11 20267.2 1398.39   2
   8  -1 -11 18919.2 1431.31   2
   8  -1 -10 2748.45 554.682   2
  -8   1  10 3316.47 453.222   4
   8   1 -10 3513.88 589.412   2
  -8   1   9 9194.91 757.159   4
   8   1  -9 8923.59 909.306   2
   8  -1  -9 8315.13 944.563   2
  -8   1   8 6597.06 647.786   4
   8   1  -8 6292.60 759.806   2
   8  -1  -8 6636.37 837.468   2
   8  -1  -7 374.005 239.196   2
  -8   1   7 903.354 275.600   4
   8   1  -7 727.724 305.823   2
  -8   1   6 60673.8 2085.40   4
   8   1  -6 59010.0 2341.91   2
   8  -1  -6 60809.7 2505.90   2
   8   1  -5 96630.5 3030.26   2
   8  -1  -5 90900.2 3105.77   2
   8   1  -4 154674. 4003.54   2
   8  -1  -4 160549. 4243.30   2
   8   1  -3 11538.7 997.102   2
  -8  -1   3 12838.9 696.507   5
   8  -1  -3 10895.2 1017.44   2
   8   1  -2 449.673 265.160   2
   8  -1  -2 608.138 284.410   2
  -8  -1   2 436.101 112.106   5
   8   1  -1 7477.46 794.593   2
   8  -1  -1 7500.05 822.873   2
  -8  -1   1 9051.26 622.287   5
   8   1   0 29840.2 1599.83   2
   8  -1   0 29285.8 1640.68   2
   8   1   1 5610.21 695.883   2
   8  -1   1 5159.03 682.687   2
   8   1   2 21827.9 1377.31   2
   8  -1   2 22282.6 1418.75   2
   8   1   3 60777.5 2382.72   2
   8  -1   3 61087.5 2419.18   2
   8   1   4 52838.9 2218.77   2
   8  -1   4 58529.3 2341.57   2
   8   1   5 1229.43 361.961   2
   8  -1   5 1262.43 370.439   2
   8   1   6 22253.9 1422.96   2
   8  -1   6 23441.6 1462.51   2
  -8   1  -7 27700.1 1281.84   1
   8   1   7 29923.9 1673.57   2
   8  -1   7 30198.7 1662.99   2
   8   1   8 119015. 3534.68   2
   8  -1   8 122566. 3538.58   2
  -8   1  -8 122114. 3050.91   1
   8   1   9 20361.5 1393.95   2
   8  -1   9 19138.1 1303.55   2
  -8   1  -9 16716.6 1111.84   1
  -8  -1 -10 3676.42 553.662   3
  -8   1 -10 2932.44 524.926   1
   8  -1  10 3723.30 590.436   2
  -8   1 -11 3583.38 568.666   1
  -8  -1 -11 2940.49 511.314   3
   8  -1  11 4577.16 642.418   2
  -8   1 -12 1555.40 417.400   1
  -8  -1 -12 750.828 288.302   3
  -8   1 -12 1403.92 328.276   3
  -8   1 -13 116.004 218.531   1
  -8  -1 -13 553.453 272.982   3
  -8   2  15 1570.34 376.180   5
   8  -2 -15 999.127 350.822   2
   8   2 -15 1006.98 336.631   2
   8  -2 -14 276.656 345.860   2
   8   2 -14 957.075 361.907   2
   8  -2 -13 101647. 3634.29   2
   8   2 -13 108881. 3330.35   2
   8  -2 -12 5047.00 806.490   2
   8   2 -12 2756.72 534.155   2
   8   2 -11 60053.1 2387.04   2
   8  -2 -11 58685.3 2640.93   2
   8  -2 -10 697.613 400.291   2
  -8   2  10 991.792 293.777   4
   8   2 -10 574.658 276.178   2
  -8   2   9 14588.0 1030.63   4
   8   2  -9 14120.9 1133.53   2
   8  -2  -9 11776.5 1162.94   2
  -8   2   8 40648.4 1772.86   4
   8   2  -8 39640.1 1893.42   2
   8  -2  -8 40300.7 2113.68   2
   8  -2  -7 300.756 272.492   2
  -8   2   7 42.2822 179.711   4
   8   2  -7 121.144 258.714   2
   8  -2  -6 3233.43 628.026   2
  -8   2   6 3110.06 500.248   4
   8   2  -6 1996.17 433.897   2
  -8   2   5 175603. 4083.71   4
   8   2  -5 168623. 4201.10   2
   8  -2  -5 172343. 4589.41   2
  -8   2   4 6466.59 711.433   4
   8   2  -4 5174.05 694.815   2
   8  -2  -4 6277.59 831.917   2
  -8   2   3 50518.3 2023.11   4
   8   2  -3 48920.9 2085.89   2
   8  -2  -3 51524.5 2323.22   2
   8   2  -2 66.7586 215.131   2
   8  -2  -2-73.9181 191.841   2
   8   2  -1 16818.8 1203.11   2
   8  -2  -1 16420.4 1280.10   2
   8   2   0 6029.20 714.677   2
   8  -2   0 7611.96 875.000   2
   8   2   1 10335.0 933.860   2
   8  -2   1 11090.2 1027.63   2
   8   2   2 5253.61 683.600   2
   8  -2   2 5192.34 711.751   2
   8   2   3 57445.1 2304.85   2
   8  -2   3 53227.1 2288.88   2
   8  -2   4 23811.6 1504.94   2
  -8   2  -4 22127.7 868.479   1
   8   2   5 6616.44 774.625   2
  -8   2  -5 6766.47 523.747   1
   8  -2   5 6811.30 798.423   2
  -8   2  -6 9544.21 678.084   1
   8   2   6 7681.70 850.909   2
   8  -2   6 10673.6 988.112   2
  -8   2  -7 109021. 2702.82   1
   8   2   7 112944. 3433.99   2
   8  -2   7 109767. 3333.81   2
  -8   2  -8 1468.13 370.026   1
   8  -2   8 1270.15 370.011   2
  -8   2  -9 34555.1 1584.83   1
   8  -2   9 34913.6 1776.91   2
  -8   2 -10 462.975 260.754   1
  -8  -2 -10 683.365 289.522   3
  -8   2 -11 3744.86 594.159   1
  -8  -2 -11 4188.15 634.834   3
   8  -2  11 3435.73 545.574   2
  -8  -2 -12 20192.2 1386.05   3
  -8   2 -12 21922.1 1443.36   1
   8  -2  12 22464.2 1352.32   2
  -8   2 -13 186.713 288.730   1
  -8  -2 -13 485.448 299.846   3
   8  -3 -14 615.709 362.332   2
   8   3 -14 787.394 337.881   2
   8  -3 -13 133654. 4383.03   2
   8   3 -13 129047. 3629.28   2
   8  -3 -12 1007.68 423.475   2
   8   3 -12 1376.50 417.568   2
   8  -3 -11 36067.7 2131.85   2
  -8   3  11 34822.3 1554.41   4
   8   3 -11 36149.0 1799.91   2
   8  -3 -10-341.756 295.959   2
  -8   3  10 227.304 200.655   4
   8   3 -10 389.235 236.606   2
   8  -3  -9 14692.3 1319.08   2
  -8   3   9 13777.7 1062.54   4
   8   3  -9 14126.6 1107.68   2
   8  -3  -8 681.410 366.233   2
  -8   3   8 431.040 255.510   4
   8   3  -8 348.136 248.457   2
   8  -3  -7 1049.90 392.550   2
  -8   3   7 1685.15 430.021   4
   8   3  -7 1035.82 319.477   2
   8  -3  -6 208.990 275.194   2
  -8   3   6 444.502 207.055   4
   8   3  -6 69.7382 204.744   2
  -8   3   5 127906. 3553.15   4
   8   3  -5 127324. 3532.44   2
   8  -3  -5 129762. 4059.65   2
   8  -3  -4 4890.56 750.465   2
  -8   3   4 4843.54 658.526   4
   8   3  -4 6339.51 745.992   2
  -8   3   3 66491.8 2459.27   4
   8   3  -3 62257.4 2368.34   2
   8  -3  -3 61905.1 2679.94   2
   8  -3  -2 176.013 274.871   2
  -8   3   2 96.2629 221.715   4
   8   3  -2 24.5452 184.907   2
  -8   3   1 63701.8 2450.29   4
   8   3  -1 59578.0 2328.34   2
   8  -3  -1 64385.4 2694.23   2
  -8   3   0 323.846 258.857   4
   8   3   0 308.859 259.441   2
   8  -3   0 30.8779 242.428   2
  -8   3  -1 619.727 332.818   4
   8   3   1 544.143 299.985   2
   8  -3   1 458.320 274.828   2
   8   3   2 653.424 281.392   2
   8  -3   2 106.792 185.192   2
   8   3   3 54185.6 2254.35   2
   8  -3   3 56328.8 2426.59   2
   8   3   4 149.336 278.203   2
   8  -3   4 224.351 220.361   2
   8   3   5 1843.21 473.249   2
   8  -3   5 931.121 308.021   2
   8  -3   6 694.555 356.642   2
   8  -3   7 106891. 3302.02   2
  -8  -3  -8 2709.76 562.782   3
   8  -3   8 2493.29 495.201   2
  -8  -3  -9 23339.2 1537.03   3
   8  -3   9 24230.1 1455.54   2
  -8  -3 -10 1128.23 388.197   3
   8  -3  10 1303.58 374.128   2
  -8  -3 -11 25494.8 1626.88   3
  -8  -3 -12 1030.65 366.172   3
   8  -4 -13 44936.4 2566.98   2
   8   4 -13 48818.9 2086.67   2
   8  -4 -12 73599.2 3301.00   2
   8   4 -12 81335.9 2742.90   2
   8  -4 -11 19351.6 1641.75   2
  -8   4  11 18369.2 1196.24   4
   8   4 -11 19495.0 1300.42   2
   8  -4 -10 12952.3 1358.25   2
  -8   4  10 12628.7 1015.64   4
   8   4 -10 13174.4 1071.43   2
   8  -4  -9 10523.9 1204.54   2
  -8   4   9 8487.79 860.244   4
   8   4  -9 9258.83 903.017   2
   8  -4  -8 1960.55 543.697   2
  -8   4   8 2163.52 459.858   4
   8   4  -8 2235.54 480.986   2
   8  -4  -7 158.920 346.415   2
  -8   4   7 2.79563 297.514   4
   8   4  -7 596.981 287.653   2
   8  -4  -6 76903.5 3239.45   2
  -8   4   6 79345.8 2903.24   4
   8   4  -6 83670.5 2769.73   2
   8  -4  -5 53510.2 2630.13   2
  -8   4   5 54108.7 2342.34   4
   8   4  -5 51682.6 2149.36   2
   8  -4  -4 56177.3 2677.79   2
  -8   4   4 50596.0 2272.06   4
   8   4  -4 55634.2 2235.43   2
  -8   4   3 22641.0 1483.96   4
   8   4  -3 20970.0 1370.06   2
   8  -4  -3 22885.6 1686.85   2
   8  -4  -2 3434.93 681.923   2
  -8   4   2 3452.54 594.995   4
   8   4  -2 3831.26 611.896   2
  -8   4   1 41549.0 2032.18   4
   8   4  -1 38750.0 1867.99   2
   8  -4  -1 37360.1 2136.24   2
  -8   4   0 10348.6 1024.51   4
   8  -4   0 11463.9 1168.68   2
   8  -4   1 838.077 309.861   2
  -8   4  -1 1061.44 398.466   4
   8   4   1 683.236 317.354   2
  -8   4  -2 8613.61 940.345   4
   8   4   2 7369.06 833.774   2
   8  -4   2 8304.27 969.274   2
  -8   4  -3 22261.9 1538.94   4
   8  -4   3 20204.6 1483.84   2
  -8   4  -4 15785.9 1312.11   4
   8  -4   4 16559.6 1318.82   2
  -8   4  -5 1707.97 504.357   4
   8  -4   5 1335.17 411.744   2
  -8   4  -6 34981.7 1978.87   4
   8  -4   6 30136.6 1722.05   2
  -8   4  -7 63963.1 2740.52   4
   8  -4   7 58766.1 2407.68   2
  -8  -4  -8 33590.3 1907.60   3
  -8   4  -8 35743.5 2083.20   4
   8  -4   8 34415.1 1769.12   2
  -8  -4  -9 8675.16 987.040   3
  -8   4  -9 8852.02 1055.86   4
   8  -4   9 9074.20 901.277   2
  -8  -4 -10 7879.29 947.957   3
  -8   4 -10 8584.11 1061.14   4
   8  -5 -11 2045.08 628.253   2
  -8   5  11 2370.27 496.426   4
   8   5 -11 3239.98 556.717   2
   8  -5 -10 1029.35 499.369   2
  -8   5  10 154.547 252.991   4
   8   5 -10 362.666 265.680   2
   8  -5  -9 8227.04 1142.34   2
  -8   5   9 6244.04 770.841   4
   8   5  -9 7371.32 799.520   2
   8  -5  -8 17709.9 1656.14   2
  -8   5   8 17533.1 1315.80   4
   8   5  -8 20949.3 1349.93   2
   8  -5  -7 3784.71 769.481   2
  -8   5   7 4455.75 684.989   4
   8   5  -7 3772.06 599.012   2
   8  -5  -6 20060.4 1740.40   2
  -8   5   6 19810.5 1446.37   4
   8   5  -6 22208.2 1397.99   2
   8  -5  -5 11631.3 1298.21   2
  -8   5   5 10289.4 1059.03   4
   8   5  -5 10275.4 963.486   2
   8  -5  -4 67852.6 3144.49   2
  -8   5   4 67145.3 2773.23   4
   8   5  -4 70796.4 2575.45   2
   8   5  -3 30.9757 224.693   2
  -8   5   3 140.083 246.620   4
   8  -5  -2 311.457 323.588   2
  -8   5   2 621.064 344.158   4
   8  -5  -1 844.282 421.754   2
  -8   5   1 1227.51 380.039   4
  -8   5   0 10707.2 1082.77   4
   8  -5   0 8466.14 1058.93   2
  -8   5  -1 18168.1 1411.01   4
   8  -5   1 17323.9 1455.20   2
  -8   5  -2 9224.99 1023.01   4
   8  -5   2 8894.04 1033.71   2
  -8   5  -3 10284.0 1096.22   4
   8  -5   3 9291.64 1036.68   2
  -8   5  -4 32814.9 1958.09   4
   8  -5   4 31052.6 1855.15   2
  -8  -5  -5 1524.89 465.452   3
  -8   5  -5 1078.05 383.840   4
   8  -5   5 1264.16 425.507   2
  -8  -5  -6 24331.2 1620.71   3
  -8   5  -6 26514.0 1789.21   4
   8  -5   6 26216.6 1628.41   2
  -8  -5  -7 1493.00 464.550   3
  -8   5  -7 2107.67 585.375   4
   8  -5   7 1201.37 375.446   2
  -8  -5  -8 41556.7 2186.93   3
  -8   5  -8 37024.5 2214.89   4
   8  -6  -7 956.807 565.490   2
  -8   6   7 35.8930 237.836   4
   8  -6  -6 20878.2 1854.75   2
  -8   6   6 22800.9 1586.32   4
   8  -6  -5 6897.68 1072.31   2
  -8   6   5 5285.04 800.795   4
   8  -6  -4 85012.9 3757.89   2
  -8   6   4 93898.6 3400.79   4
   8  -6  -3 6974.66 1052.46   2
  -8   6   3 6762.30 897.155   4
   8  -6  -2 1020.18 396.779   2
  -8   6   2 1104.24 454.397   4
   8  -6  -1 2646.39 599.581   2
  -8   6   1 3392.86 705.064   4
  -8   6   0 24418.2 1766.21   4
   8  -6   0 27437.5 1927.94   2
   8  -6   1 1143.37 491.540   2
  -8   6  -1 1056.49 376.088   4
  -8  -6  -2 14145.5 1230.31   3
  -8   6  -2 12647.2 1266.91   4
   8  -6   2 11132.6 1173.43   2
   8  -6   3 1195.40 429.530   2
  -8  -6  -3 373.346 317.613   3
  -8   6  -3 1199.29 480.679   4
  -8  -6  -4 23631.6 1617.35   3
  -8   6  -4 22920.5 1729.40   4
   8  -6   4 22458.2 1615.11   2
  -8  -6  -5 1555.40 457.775   3
  -8   6  -5 919.875 406.000   4
   8  -6   5 1851.26 492.954   2
   9   0 -13 489.605 400.411   2
   9   0 -12 112912. 3815.28   2
   9   0 -11 348.757 384.022   2
   9   0 -10 2985.42 630.347   2
   9   0  -9 474.443 344.492   2
  -9   0   8 46562.6 1838.98   4
   9   0  -8 46409.5 2288.35   2
   9   0  -7 377.720 266.074   2
   9   0  -6 6495.28 836.959   2
   9   0  -5 174.823 291.043   2
   9   0  -4 48487.6 2268.26   2
   9   0  -3 55.8853 218.541   2
   9   0  -2 8359.14 922.085   2
   9   0  -1 1215.73 447.663   2
   9   0   0 227949. 5374.83   2
   9   0   1 977.076 421.049   2
   9   0   2 39487.8 2013.68   2
   9   0   3 52.9529 213.147   2
   9   0   4 4258.92 677.707   2
   9   0   5 32.8005 305.583   2
   9   0   6 56823.2 2478.98   2
   9   0   7 611.588 364.793   2
   9   0   8 138460. 4062.45   2
   9   0   9 182.629 309.819   2
   9   0  10 24601.6 1603.49   2
   9   1 -13 24686.0 1665.86   2
   9  -1 -13 22780.6 1694.94   2
   9   1 -12 77648.3 3016.10   2
   9  -1 -12 80830.1 3243.09   2
   9   1 -11 7695.90 930.696   2
   9  -1 -11 6636.62 918.097   2
   9   1 -10 16129.0 1315.02   2
   9  -1 -10 16878.8 1424.86   2
  -9   1   9 71.6916 156.414   4
   9   1  -9-103.991 262.073   2
   9  -1  -9 168.325 312.268   2
  -9   1   8 31510.6 1550.06   4
   9   1  -8 28776.3 1741.04   2
   9  -1  -8 29225.8 1852.08   2
  -9   1   7 7603.28 773.583   4
   9   1  -7 6762.05 841.952   2
   9  -1  -7 6479.32 881.513   2
  -9   1   6 10205.1 889.773   4
   9   1  -6 9325.31 975.101   2
   9  -1  -6 8497.68 987.201   2
  -9   1   5 8747.10 833.847   4
   9   1  -5 11824.6 1112.88   2
   9  -1  -5 11951.5 1163.70   2
   9   1  -4 64529.3 2609.05   2
   9  -1  -4 65777.7 2748.51   2
   9   1  -3 5432.78 735.025   2
   9  -1  -3 5024.88 751.833   2
   9   1  -2 785.282 348.416   2
   9  -1  -2-232.117 310.701   2
   9   1  -1 34451.6 1843.90   2
   9  -1  -1 33806.3 1905.11   2
   9   1   0 84809.2 3000.86   2
   9  -1   0 92022.7 3212.63   2
   9   1   1 7385.45 867.917   2
   9  -1   1 6994.32 869.351   2
   9   1   2 179.861 274.467   2
   9  -1   2 77.5769 241.714   2
   9   1   3 2391.45 483.714   2
   9  -1   3 3173.67 625.446   2
   9   1   4 23150.2 1533.81   2
   9  -1   4 21147.6 1494.77   2
   9   1   5 1899.10 473.654   2
   9  -1   5 1319.28 415.086   2
   9   1   6 9888.52 1021.32   2
   9  -1   6 11371.4 1101.84   2
   9   1   7 43882.4 2173.50   2
   9  -1   7 44651.4 2172.72   2
   9   1   8 81064.7 3027.11   2
   9  -1   8 80131.2 2975.55   2
   9   1   9 13883.2 1226.73   2
   9  -1   9 12133.7 1132.27   2
   9  -1  10 283.291 285.384   2
   9   2 -12 21984.4 1533.92   2
   9  -2 -12 23951.7 1796.03   2
   9   2 -11 60755.1 2566.20   2
   9  -2 -11 57544.9 2765.16   2
   9  -2 -10 515.617 381.436   2
   9   2 -10 561.465 306.503   2
  -9   2   9 21497.7 1356.11   4
   9   2  -9 20010.6 1435.24   2
   9  -2  -9 20695.1 1609.13   2
  -9   2   8 6825.42 773.761   4
   9   2  -8 5892.58 779.434   2
   9  -2  -8 6759.12 926.885   2
  -9   2   7 10261.0 937.123   4
   9   2  -7 11585.6 1075.74   2
   9  -2  -7 10539.3 1138.85   2
  -9   2   6 1990.07 431.333   4
   9   2  -6 2454.05 501.489   2
   9  -2  -6 2620.83 595.641   2
  -9   2   5 47404.9 2079.19   4
   9   2  -5 44500.0 2119.45   2
   9  -2  -5 46460.5 2381.85   2
  -9   2   4 39245.4 1896.33   4
   9   2  -4 35043.7 1867.63   2
   9  -2  -4 37261.9 2114.17   2
  -9   2   3 22161.7 1415.48   4
   9   2  -3 25004.1 1554.51   2
   9  -2  -3 24436.7 1690.39   2
  -9   2   2 12143.8 1040.67   4
   9   2  -2 12288.1 1085.05   2
   9  -2  -2 13082.8 1236.22   2
   9   2  -1 78667.5 2857.42   2
   9  -2  -1 77673.0 3067.63   2
   9   2   0 34356.9 1855.77   2
   9  -2   0 38115.2 2088.32   2
   9   2   1 85288.8 3017.99   2
   9  -2   1 81495.3 3107.71   2
   9   2   2 19512.1 1388.63   2
   9  -2   2 21577.1 1536.09   2
   9   2   3 9901.31 998.808   2
   9  -2   3 10257.6 1069.78   2
   9   2   4 763.073 323.370   2
   9  -2   4 1377.06 457.599   2
   9   2   5 971.951 353.140   2
   9  -2   5 887.793 314.126   2
   9   2   6 3584.38 637.262   2
   9  -2   6 3853.62 632.235   2
   9   2   7 100209. 3396.62   2
   9  -2   7 92035.4 3242.10   2
   9  -2   8 39837.7 2048.89   2
   9  -2   9 50330.2 2288.36   2
  -9  -2 -10 638.768 344.323   3
   9  -2  10 833.049 341.906   2
   9   3 -11 52367.2 2323.84   2
   9  -3 -11 50541.5 2689.99   2
   9  -3 -10-77.4979 370.152   2
   9   3 -10 415.920 332.973   2
  -9   3   9 22864.8 1467.19   4
   9   3  -9 22665.5 1495.22   2
   9  -3  -9 20224.3 1666.39   2
   9  -3  -8 1430.14 494.378   2
  -9   3   8 926.294 371.988   4
  -9   3   7 16293.7 1260.61   4
   9   3  -7 16737.4 1271.51   2
   9  -3  -7 16115.2 1457.10   2
   9  -3  -6 645.264 399.634   2
  -9   3   6 421.862 258.976   4
   9   3  -6 351.442 270.921   2
  -9   3   5 37397.1 1924.16   4
   9   3  -5 38178.1 1940.32   2
   9  -3  -5 39311.0 2273.75   2
   9  -3  -4 517.945 417.734   2
  -9   3   4 603.946 338.167   4
   9   3  -4 428.328 323.632   2
  -9   3   3 16636.3 1270.34   4
   9   3  -3 18209.6 1336.39   2
   9  -3  -3 14826.3 1391.18   2
  -9   3   2 6343.10 800.442   4
   9   3  -2 5497.94 740.781   2
   9  -3  -2 4673.73 756.206   2
  -9   3   1 62538.3 2582.20   4
   9   3  -1 59796.2 2477.64   2
   9  -3  -1 64566.7 2869.99   2
  -9   3   0 11567.3 1101.80   4
   9   3   0 12044.8 1112.42   2
   9  -3   0 11188.3 1199.13   2
  -9   3  -1 86084.5 3089.93   4
   9   3   1 84813.1 3016.18   2
   9  -3   1 84999.3 3294.69   2
  -9   3  -2 6974.43 883.980   4
   9   3   2 7259.65 862.890   2
   9  -3   2 8364.77 999.533   2
   9   3   3 9051.44 963.403   2
   9  -3   3 8237.58 989.913   2
   9   3   4 5070.99 751.137   2
   9  -3   4 5898.81 840.393   2
   9   3   5 728.009 393.575   2
   9  -3   5 98.0348 274.672   2
   9  -3   6 10999.9 1097.16   2
   9  -3   7 56384.2 2489.21   2
   9  -3   8 4985.48 759.136   2
   9  -4  -9 11379.6 1309.19   2
  -9   4   9 12916.6 1137.12   4
   9   4  -9 11557.5 1078.21   2
   9  -4  -8 2791.97 715.446   2
  -9   4   8 2585.75 549.743   4
   9   4  -8 3346.04 605.166   2
  -9   4   7 12845.3 1188.82   4
   9   4  -7 13175.1 1140.02   2
   9  -4  -7 12447.8 1358.64   2
   9  -4  -6 1444.59 528.282   2
  -9   4   6 730.269 319.717   4
   9   4  -6 779.419 316.846   2
  -9   4   5 25411.1 1672.40   4
   9   4  -5 25160.4 1567.85   2
   9  -4  -5 25732.0 1948.94   2
  -9   4   4 34133.0 1956.73   4
   9  -4  -4 36646.6 2298.58   2
  -9   4   3 14729.6 1263.35   4
   9   4  -3 13056.8 1144.66   2
   9  -4  -3 15549.3 1465.85   2
   9  -4  -2 1277.48 435.498   2
  -9   4   2 2182.78 507.580   4
   9   4  -2 1789.39 450.086   2
  -9   4   1 23957.4 1624.26   4
   9   4  -1 21518.1 1481.70   2
   9  -4  -1 21744.0 1725.82   2
  -9   4   0 23873.7 1633.32   4
   9   4   0 24572.4 1586.67   2
   9  -4   0 22899.4 1752.55   2
  -9   4  -1 32807.4 1938.71   4
   9   4   1 32655.8 1847.77   2
   9  -4   1 31437.8 2035.21   2
   9   4   2 2212.58 509.598   2
  -9   4  -2 1604.19 466.925   4
   9  -4   2 1158.39 405.892   2
  -9   4  -3 16479.3 1397.46   4
   9  -4   3 12901.2 1257.30   2
  -9   4  -4 8925.22 1040.90   4
   9  -4   4 8084.56 983.859   2
  -9   4  -5 6449.02 915.752   4
   9  -4   5 4469.93 718.337   2
  -9   4  -6 1305.74 552.803   4
   9  -4   6 1220.80 413.038   2
   9  -5  -6 215.505 313.000   2
  -9   5   6 32.3989 299.937   4
   9   5  -6 439.344 321.645   2
   9  -5  -5 1157.06 483.699   2
  -9   5   5 1671.49 518.164   4
   9   5  -5 885.886 358.097   2
  -9   5   4 42695.0 2315.31   4
   9   5  -4 44023.6 2123.12   2
   9  -5  -4 43032.5 2627.49   2
   9  -5  -3 3062.33 732.773   2
   9   5  -3 3985.74 652.103   2
  -9   5   3 3678.88 724.459   4
  -9   5   2 11111.9 1180.98   4
   9  -5  -2 10016.9 1250.94   2
   9  -5  -1 4412.50 836.447   2
  -9   5   1 5729.72 890.601   4
  -9   5   0 108693. 3811.87   4
   9  -5   0 109498. 4090.13   2
  -9   5  -1 929.026 493.235   4
   9  -5   1 728.645 407.337   2
  -9   5  -2 20537.8 1607.89   4
   9  -5   2 19627.6 1625.76   2
  -9   5  -3 5029.08 822.967   4
   9  -5   3 5080.11 838.227   2
  10   0 -10 4394.70 794.412   2
  10   0  -9 504.379 423.063   2
  10   0  -8 81478.4 3253.88   2
 -10   0   7 70.3146 192.413   4
  10   0  -7 46.2567 279.413   2
  10   0  -6 30090.3 1906.12   2
  10   0  -5-202.442 288.201   2
  10   0  -4 40857.4 2222.36   2
  10   0  -3 70.5508 294.952   2
  10   0  -2 6826.70 910.770   2
  10   0  -1-90.9158 291.397   2
  10   0   0 125987. 4001.81   2
  10   0   1 332.944 299.822   2
  10   0   2 41791.4 2219.00   2
  10   0   3-62.8780 247.091   2
  10   0   4 52264.7 2503.53   2
  10   0   5-42.7663 222.846   2
  10   0   6 611.690 340.849   2
  10   1  -9 17871.9 1475.55   2
  10  -1  -9 15548.7 1470.84   2
  10   1  -8 94554.8 3501.27   2
  10  -1  -8 106965. 3866.85   2
 -10   1   7 29086.2 1637.24   4
  10  -1  -7 28945.9 1962.73   2
 -10   1   6 45506.4 2090.60   4
  10   1  -6 45384.6 2329.05   2
  10  -1  -6 50715.6 2573.89   2
 -10   1   5 177.672 284.868   4
  10   1  -5 662.250 317.075   2
  10  -1  -5 1254.00 454.102   2
  10   1  -4 3951.49 702.306   2
  10  -1  -4 4561.48 761.984   2
  10   1  -3 3221.15 618.261   2
  10  -1  -3 3276.69 672.236   2
  10   1  -2 3905.42 698.238   2
  10  -1  -2 6030.64 862.300   2
  10   1  -1 19333.8 1481.44   2
  10  -1  -1 16809.8 1435.43   2
  10   1   0 90121.6 3294.46   2
  10  -1   0 95203.0 3526.68   2
  10   1   1 56687.9 2579.97   2
  10  -1   1 55801.4 2648.34   2
  10   1   2 23238.4 1643.35   2
  10  -1   2 24491.0 1710.60   2
  10   1   3-332.046 278.961   2
  10  -1   3 290.246 248.055   2
  10   1   4 7858.91 970.167   2
  10  -1   4 7644.46 966.186   2
  10   1   5 1657.97 453.749   2
  10  -1   5 1478.84 460.079   2
  10   1   6 319.177 290.612   2
  10  -1   6 505.676 316.951   2
  10   2  -8 6066.13 886.809   2
  10  -2  -8 6652.44 1005.69   2
 -10   2   7 54125.6 2352.48   4
  10   2  -7 54297.5 2516.87   2
  10  -2  -7 55648.6 2819.73   2
 -10   2   6 66.7613 278.777   4
  10   2  -6-87.7673 246.225   2
  10  -2  -6-235.829 404.294   2
 -10   2   5 298.849 238.734   4
  10   2  -5 509.038 291.965   2
  10  -2  -5 95.2169 337.699   2
 -10   2   4 2924.76 536.865   4
  10   2  -4 2769.13 620.894   2
  10  -2  -4 1806.54 529.584   2
 -10   2   3 3752.10 616.066   4
  10   2  -3 4194.04 688.311   2
  10  -2  -3 3717.82 732.050   2
 -10   2   2 2223.40 472.945   4
  10   2  -2 2194.31 530.578   2
  10  -2  -2 2326.33 579.463   2
  10   2  -1 69209.4 2834.49   2
  10  -2  -1 69072.7 3046.50   2
  10   2   0 15093.3 1322.68   2
  10  -2   0 20141.4 1610.78   2
  10   2   1 93603.5 3354.76   2
  10  -2   1 93405.1 3550.51   2
  10   2   2 697.575 328.528   2
  10  -2   2 422.092 374.872   2
  10   2   3 193.080 314.048   2
  10  -2   3 162.875 295.505   2
  10   2   4 6372.57 875.324   2
  10  -2   4 8130.21 994.036   2
  10   2   5 2831.55 614.394   2
  10  -2   5 2699.11 597.365   2
 -10   3   6 143.571 267.941   4
  10   3  -6 346.860 294.405   2
  10  -3  -6 206.628 285.166   2
 -10   3   5 602.255 319.394   4
  10   3  -5 312.745 280.080   2
  10  -3  -5 1114.79 460.843   2
 -10   3   4 692.945 404.872   4
  10   3  -4 538.158 307.441   2
  10  -3  -4 423.795 370.359   2
 -10   3   3 4448.55 715.781   4
  10   3  -3 4350.54 702.918   2
  10  -3  -3 3317.75 710.365   2
 -10   3   2 2457.03 589.588   4
  10   3  -2 3224.47 643.646   2
  10  -3  -2 3263.42 694.200   2
 -10   3   1 49996.7 2425.41   4
  10   3  -1 47273.7 2313.34   2
  10  -3  -1 48905.3 2656.49   2
 -10   3   0 2103.30 620.293   4
  10   3   0 3075.48 648.224   2
  10  -3   0 2533.53 673.996   2
 -10   3  -1 89301.7 3333.12   4
  10   3   1 88415.2 3258.39   2
  10  -3   1 89141.2 3589.15   2
 -10   3  -2 2964.58 654.157   4
  10   3   2 3408.74 649.467   2
  10  -3   2 1974.90 536.765   2
  10   3   3 451.375 316.647   2
  10  -3   3 48.6485 355.667   2
   0   0   0    0.00    0.00   0
;
_shelx_hkl_checksum              76182
#END Tags that were not found in dictionaries
loop_
_space_group_symop_operation_xyz
'x, y, z'
'-x, y, -z+1/2'
'-x, -y, -z'
'x, -y, z-1/2'
loop_
_atom_site_label
_atom_site_type_symbol
_atom_site_fract_x
_atom_site_fract_y
_atom_site_fract_z
_atom_site_U_iso_or_equiv
_atom_site_adp_type
_atom_site_occupancy
_atom_site_site_symmetry_order
_atom_site_calc_flag
_atom_site_refinement_flags_posn
_atom_site_refinement_flags_adp
Cu1 Cu 0.35093(3) 0.10599(3) 0.23133(2) 0.01446(7) Uani 1 1 d . .
C1 C 0.0157(3) -0.0400(3) 0.20731(11) 0.0147(4) Uani 1 1 d . .
H1A H 0.0678 -0.1527 0.1942 0.018 Uiso 1 1 calc R U
H1B H -0.0889 -0.0308 0.1752 0.018 Uiso 1 1 calc R U
C2 C 0.0620(3) 0.2235(3) 0.14123(11) 0.0150(4) Uani 1 1 d . .
H2 H -0.0485 0.2137 0.1217 0.018 Uiso 1 1 calc R U
C3 C 0.1602(3) 0.3731(3) 0.11531(12) 0.0153(4) Uani 1 1 d . .
C4 C 0.2380(3) 0.4984(3) 0.16509(12) 0.0165(4) Uani 1 1 d . .
C5 C 0.3324(3) 0.6313(3) 0.13750(13) 0.0205(5) Uani 1 1 d . .
H5 H 0.3835 0.7150 0.1725 0.025 Uiso 1 1 calc R U
C6 C 0.3519(3) 0.6416(3) 0.05866(13) 0.0247(5) Uani 1 1 d . .
H6 H 0.4169 0.7328 0.0394 0.030 Uiso 1 1 calc R U
C7 C 0.2776(3) 0.5203(3) 0.00719(13) 0.0231(5) Uani 1 1 d . .
H7 H 0.2914 0.5273 -0.0471 0.028 Uiso 1 1 calc R U
C8 C 0.1838(3) 0.3896(3) 0.03605(12) 0.0185(4) Uani 1 1 d . .
N1 N 0.1216(2) 0.1082(2) 0.18878(9) 0.0125(3) Uani 1 1 d . .
Cl1 Cl 0.21615(7) 0.49467(7) 0.26544(3) 0.02157(12) Uani 1 1 d . .
Cl2 Cl 0.09594(7) 0.23319(8) -0.02831(3) 0.02517(12) Uani 1 1 d . .
I1 I 0.55427(2) 0.08867(2) 0.12470(2) 0.01755(5) Uani 1 1 d . .
loop_
_atom_site_aniso_label
_atom_site_aniso_U_11
_atom_site_aniso_U_22
_atom_site_aniso_U_33
_atom_site_aniso_U_23
_atom_site_aniso_U_13
_atom_site_aniso_U_12
Cu1 0.00870(13) 0.01716(13) 0.01731(12) 0.00196(10) -0.00025(10) -0.00002(9)
C1 0.0124(10) 0.0132(9) 0.0183(10) -0.0037(8) 0.0003(8) 0.0007(8)
C2 0.0120(10) 0.0177(10) 0.0150(9) -0.0031(8) 0.0002(8) 0.0023(8)
C3 0.0122(10) 0.0158(10) 0.0178(10) 0.0012(8) 0.0005(8) 0.0039(8)
C4 0.0155(11) 0.0164(10) 0.0174(10) 0.0026(8) 0.0001(8) 0.0046(8)
C5 0.0195(12) 0.0176(10) 0.0246(11) 0.0014(9) 0.0026(9) 0.0004(9)
C6 0.0224(13) 0.0235(11) 0.0290(12) 0.0055(10) 0.0078(10) -0.0005(10)
C7 0.0255(13) 0.0267(12) 0.0180(10) 0.0036(9) 0.0069(9) 0.0052(10)
C8 0.0179(11) 0.0199(10) 0.0176(10) -0.0013(8) 0.0007(8) 0.0065(9)
N1 0.0105(9) 0.0144(8) 0.0130(8) -0.0034(6) 0.0027(7) -0.0001(7)
Cl1 0.0282(3) 0.0209(3) 0.0153(2) 0.0019(2) 0.0000(2) -0.0054(2)
Cl2 0.0319(3) 0.0268(3) 0.0164(2) -0.0070(2) -0.0009(2) 0.0030(2)
I1 0.01225(8) 0.02657(8) 0.01396(7) 0.00074(5) 0.00193(5) -0.00110(5)
loop_
_atom_type_symbol
_atom_type_description
_atom_type_scat_dispersion_real
_atom_type_scat_dispersion_imag
_atom_type_scat_source
C C 0.0033 0.0016 'International Tables Vol C Tables 4.2.6.8 and 6.1.1.4'
H H 0.0000 0.0000 'International Tables Vol C Tables 4.2.6.8 and 6.1.1.4'
Cl Cl 0.1484 0.1585 'International Tables Vol C Tables 4.2.6.8 and 6.1.1.4'
Cu Cu 0.3201 1.2651 'International Tables Vol C Tables 4.2.6.8 and 6.1.1.4'
I I -0.4742 1.8119 'International Tables Vol C Tables 4.2.6.8 and 6.1.1.4'
N N 0.0061 0.0033 'International Tables Vol C Tables 4.2.6.8 and 6.1.1.4'
loop_
_geom_angle_atom_site_label_1
_geom_angle_atom_site_label_2
_geom_angle_atom_site_label_3
_geom_angle
_geom_angle_site_symmetry_1
_geom_angle_site_symmetry_3
N1 Cu1 Cu1 173.18(5) . 2_655
N1 Cu1 I1 125.08(5) . 2_655
Cu1 Cu1 I1 61.739(11) 2_655 2_655
N1 Cu1 I1 113.24(5) . .
Cu1 Cu1 I1 59.999(11) 2_655 .
I1 Cu1 I1 121.384(10) 2_655 .
N1 C1 C1 111.10(15) . 2
N1 C1 H1A 109.4 . .
C1 C1 H1A 109.4 2 .
N1 C1 H1B 109.4 . .
C1 C1 H1B 109.4 2 .
H1A C1 H1B 108.0 . .
N1 C2 C3 121.80(19) . .
N1 C2 H2 119.1 . .
C3 C2 H2 119.1 . .
C8 C3 C4 116.3(2) . .
C8 C3 C2 118.85(19) . .
C4 C3 C2 124.80(18) . .
C5 C4 C3 121.97(19) . .
C5 C4 Cl1 117.09(17) . .
C3 C4 Cl1 120.93(16) . .
C6 C5 C4 119.4(2) . .
C6 C5 H5 120.3 . .
C4 C5 H5 120.3 . .
C5 C6 C7 120.7(2) . .
C5 C6 H6 119.7 . .
C7 C6 H6 119.7 . .
C8 C7 C6 118.8(2) . .
C8 C7 H7 120.6 . .
C6 C7 H7 120.6 . .
C7 C8 C3 122.8(2) . .
C7 C8 Cl2 118.71(17) . .
C3 C8 Cl2 118.44(17) . .
C2 N1 C1 117.24(17) . .
C2 N1 Cu1 123.78(15) . .
C1 N1 Cu1 118.75(13) . .
Cu1 I1 Cu1 58.262(10) 2_655 .
loop_
_geom_bond_atom_site_label_1
_geom_bond_atom_site_label_2
_geom_bond_distance
_geom_bond_site_symmetry_2
Cu1 N1 1.9754(17) .
Cu1 Cu1 2.4941(5) 2_655
Cu1 I1 2.5397(3) 2_655
Cu1 I1 2.5830(3) .
C1 N1 1.473(3) .
C1 C1 1.510(4) 2
C1 H1A 0.9900 .
C1 H1B 0.9900 .
C2 N1 1.269(3) .
C2 C3 1.482(3) .
C2 H2 0.9500 .
C3 C8 1.397(3) .
C3 C4 1.400(3) .
C4 C5 1.380(3) .
C4 Cl1 1.748(2) .
C5 C6 1.379(3) .
C5 H5 0.9500 .
C6 C7 1.385(3) .
C6 H6 0.9500 .
C7 C8 1.374(3) .
C7 H7 0.9500 .
C8 Cl2 1.740(2) .
I1 Cu1 2.5397(3) 2_655
loop_
_geom_torsion_atom_site_label_1
_geom_torsion_atom_site_label_2
_geom_torsion_atom_site_label_3
_geom_torsion_atom_site_label_4
_geom_torsion
_geom_torsion_site_symmetry_1
N1 C2 C3 C8 118.8(2) .
N1 C2 C3 C4 -58.6(3) .
C8 C3 C4 C5 0.2(3) .
C2 C3 C4 C5 177.7(2) .
C8 C3 C4 Cl1 179.07(16) .
C2 C3 C4 Cl1 -3.5(3) .
C3 C4 C5 C6 -0.3(3) .
Cl1 C4 C5 C6 -179.16(18) .
C4 C5 C6 C7 0.1(4) .
C5 C6 C7 C8 0.2(4) .
C6 C7 C8 C3 -0.2(3) .
C6 C7 C8 Cl2 -177.98(18) .
C4 C3 C8 C7 0.0(3) .
C2 C3 C8 C7 -177.6(2) .
C4 C3 C8 Cl2 177.78(16) .
C2 C3 C8 Cl2 0.1(3) .
C3 C2 N1 C1 -176.81(17) .
C3 C2 N1 Cu1 -2.3(3) .
C1 C1 N1 C2 -116.8(2) 2
C1 C1 N1 Cu1 68.4(2) 2
