#------------------------------------------------------------------------------
#$Date: 2016-03-22 21:53:30 +0200 (Tue, 22 Mar 2016) $
#$Revision: 179027 $
#$URL: svn://www.crystallography.net/cod/cif/4/12/25/4122566.cif $
#------------------------------------------------------------------------------
#
# This file is available in the Crystallography Open Database (COD),
# http://www.crystallography.net/
#
# All data on this site have been placed in the public domain by the
# contributors.
#
data_4122566
loop_
_publ_author_name
'Meng, Fanke'
'Haeffner, Fredrik'
'Hoveyda, Amir H.'
_publ_section_title
;
 Diastereo- and Enantioselective Reactions of Bis(pinacolato)diboron,
 1,3-Enynes, and Aldehydes Catalyzed by an Easily Accessible
 Bisphosphine-Cu Complex.
;
_journal_issue                   32
_journal_name_full               'Journal of the American Chemical Society'
_journal_page_first              11304
_journal_page_last               11307
_journal_paper_doi               10.1021/ja5071202
_journal_volume                  136
_journal_year                    2014
_chemical_absolute_configuration ad
_chemical_formula_moiety         'C17 H16 O2'
_chemical_formula_sum            'C17 H16 O2'
_chemical_formula_weight         252.30
_chemical_name_systematic
;
 ?
;
_space_group_crystal_system      monoclinic
_space_group_IT_number           4
_space_group_name_Hall           'P 2yb'
_space_group_name_H-M_alt        'P 1 21 1'
_symmetry_space_group_name_Hall  'P 2yb'
_symmetry_space_group_name_H-M   'P 1 21 1'
_atom_sites_solution_hydrogens   mixed
_atom_sites_solution_primary     direct
_atom_sites_solution_secondary   difmap
_audit_creation_method           SHELXL-2013
_cell_angle_alpha                90
_cell_angle_beta                 106.364(3)
_cell_angle_gamma                90
_cell_formula_units_Z            2
_cell_length_a                   8.3545(6)
_cell_length_b                   6.0819(4)
_cell_length_c                   13.8786(10)
_cell_measurement_reflns_used    6959
_cell_measurement_temperature    100(2)
_cell_measurement_theta_max      66.58
_cell_measurement_theta_min      5.52
_cell_volume                     676.62(8)
_computing_cell_refinement       'SAINT (Bruker, 2013)'
_computing_data_collection       'APEX2 (Bruker, 2013)'
_computing_data_reduction        'SAINT (Bruker, 2013)'
_computing_molecular_graphics    'Bruker SHELXTL'
_computing_publication_material  'Bruker SHELXTL'
_computing_structure_refinement  'SHELXL-2013 (Sheldrick, 2013)'
_computing_structure_solution    'SHELXL-2013 (Sheldrick, 2013)'
_diffrn_ambient_temperature      100(2)
_diffrn_measured_fraction_theta_full 0.991
_diffrn_measured_fraction_theta_max 0.987
_diffrn_measurement_device_type  'Bruker Kappa DUO CCD diffractometer'
_diffrn_measurement_method       '\f and \w scans'
_diffrn_radiation_monochromator  mirrors
_diffrn_radiation_type           CuK\a
_diffrn_radiation_wavelength     1.54178
_diffrn_reflns_av_R_equivalents  0.0368
_diffrn_reflns_av_unetI/netI     0.0342
_diffrn_reflns_Laue_measured_fraction_full 0.991
_diffrn_reflns_Laue_measured_fraction_max 0.987
_diffrn_reflns_limit_h_max       9
_diffrn_reflns_limit_h_min       -9
_diffrn_reflns_limit_k_max       6
_diffrn_reflns_limit_k_min       -7
_diffrn_reflns_limit_l_max       16
_diffrn_reflns_limit_l_min       -16
_diffrn_reflns_number            7525
_diffrn_reflns_point_group_measured_fraction_full 0.966
_diffrn_reflns_point_group_measured_fraction_max 0.961
_diffrn_reflns_theta_full        66.250
_diffrn_reflns_theta_max         66.573
_diffrn_reflns_theta_min         3.319
_diffrn_source                   'microfocus sealed tube'
_diffrn_source_type              'Incoatec I\uS'
_exptl_absorpt_coefficient_mu    0.635
_exptl_absorpt_correction_T_max  0.7457
_exptl_absorpt_correction_T_min  0.5842
_exptl_absorpt_correction_type   multi-scan
_exptl_absorpt_process_details
;
Sheldrick, G.M. (2013). SADABS. Bruker AXS Inc. Madison, WI USA.
;
_exptl_crystal_colour            colorless
_exptl_crystal_density_diffrn    1.238
_exptl_crystal_density_meas      ?
_exptl_crystal_density_method    none
_exptl_crystal_description       needle
_exptl_crystal_F_000             268
_exptl_crystal_size_max          0.600
_exptl_crystal_size_mid          0.100
_exptl_crystal_size_min          0.080
_refine_diff_density_max         0.163
_refine_diff_density_min         -0.184
_refine_diff_density_rms         0.035
_refine_ls_abs_structure_details
;
 Flack x determined using 984 quotients [(I+)-(I-)]/[(I+)+(I-)]
 (Parsons and Flack (2004), Acta Cryst. A60, s61).
;
_refine_ls_abs_structure_Flack   -0.03(6)
_refine_ls_extinction_coef       na
_refine_ls_extinction_method     none
_refine_ls_goodness_of_fit_ref   1.046
_refine_ls_hydrogen_treatment    mixed
_refine_ls_matrix_type           full
_refine_ls_number_parameters     180
_refine_ls_number_reflns         2298
_refine_ls_number_restraints     3
_refine_ls_restrained_S_all      1.046
_refine_ls_R_factor_all          0.0285
_refine_ls_R_factor_gt           0.0283
_refine_ls_shift/su_max          0.000
_refine_ls_shift/su_mean         0.000
_refine_ls_structure_factor_coef Fsqd
_refine_ls_weighting_details
'w=1/[\s^2^(Fo^2^)+(0.0431P)^2^+0.1016P] where P=(Fo^2^+2Fc^2^)/3'
_refine_ls_weighting_scheme      calc
_refine_ls_wR_factor_gt          0.0730
_refine_ls_wR_factor_ref         0.0731
_reflns_Friedel_coverage         0.766
_reflns_Friedel_fraction_full    0.936
_reflns_Friedel_fraction_max     0.928
_reflns_number_gt                2277
_reflns_number_total             2298
_reflns_threshold_expression     'I > 2\s(I)'
_cod_data_source_file            ja5071202_si_001.cif
_cod_data_source_block           C17H16O2
_cod_depositor_comments
;
The following automatic conversions were performed:

'_exptl_crystal_density_meas' value 'not measured' was changed to '?'
- the value is perceived as not measured.

Automatic conversion script
Id: cif_fix_values 3008 2015-01-20 13:52:24Z robertas 
;
_cod_database_code               4122566
#BEGIN Tags that were not found in dictionaries:
_shelx_space_group_comment
;
The symmetry employed for this shelxl refinement is uniquely defined
by the following loop, which should always be used as a source of
symmetry information in preference to the above space-group names.
They are only intended as comments.
;
_shelx_estimated_absorpt_t_min   0.702
_shelx_estimated_absorpt_t_max   0.951
_shelxl_version_number           2013-4
_shelx_res_file
;
TITL sad in P2(1)
CELL 1.54178   8.35450   6.08190  13.87860  90.0000 106.3639  90.0000
ZERR    2.00   0.00060   0.00040   0.00100   0.0000   0.0028   0.0000
LATT -1
SYMM -X, 1/2+Y, -Z
SFAC C  H  O
UNIT 34  32  4

L.S. 10
BOND $H
FMAP 2
PLAN 20
DFIX 0.84 O1 H1O O2 H2O
TEMP -173
SIZE 0.60 0.10 0.08
CONF
EQIV $1 -x, y+1/2, -z+1
HTAB O1 O2_$1
EQIV $2 x, y-1, z
HTAB O2 O1_$2
ACTA
WGHT    0.043100    0.101600
FVAR       0.46865
O1    3    0.092483    1.067588    0.612403    11.00000    0.01865    0.00997 =
         0.01901    0.00042    0.00155    0.00039
H1O   2    0.024413    1.030850    0.557916    11.00000    0.03751
O2    3    0.116817    0.501289    0.573014    11.00000    0.01657    0.01172 =
         0.01925    0.00183    0.00209    0.00058
H2O   2    0.131866    0.374564    0.599711    11.00000    0.02580
C1    1    0.096497    0.909687    0.688662    11.00000    0.01683    0.01339 =
         0.01773   -0.00003    0.00609    0.00006
AFIX  23
H1A   2   -0.005978    0.819036    0.668620    11.00000   -1.20000
H1B   2    0.098141    0.986819    0.751750    11.00000   -1.20000
AFIX   0
C2    1    0.249867    0.759143    0.707394    11.00000    0.01556    0.01263 =
         0.01679    0.00041    0.00459   -0.00068
AFIX  13
H2    2    0.351407    0.853730    0.730444    11.00000   -1.20000
AFIX   0
C3    1    0.258813    0.639830    0.610456    11.00000    0.01534    0.00845 =
         0.01629    0.00165    0.00451   -0.00057
AFIX  13
H3    2    0.251665    0.756715    0.558736    11.00000   -1.20000
AFIX   0
C4    1    0.424090    0.523840    0.623188    11.00000    0.01540    0.01227 =
         0.01399   -0.00218    0.00328   -0.00019
C5    1    0.547149    0.625062    0.588329    11.00000    0.02104    0.01501 =
         0.01528   -0.00385    0.00524   -0.00251
AFIX  43
H5    2    0.525690    0.764187    0.556144    11.00000   -1.20000
AFIX   0
C6    1    0.700512    0.524162    0.600300    11.00000    0.01864    0.02669 =
         0.01830   -0.00772    0.00774   -0.00441
AFIX  43
H6    2    0.783169    0.594398    0.576123    11.00000   -1.20000
AFIX   0
C7    1    0.733737    0.321366    0.647364    11.00000    0.01481    0.02530 =
         0.02262   -0.01051    0.00273    0.00425
AFIX  43
H7    2    0.838921    0.252645    0.655841    11.00000   -1.20000
AFIX   0
C8    1    0.611557    0.219635    0.682019    11.00000    0.02239    0.01444 =
         0.02092   -0.00279    0.00068    0.00440
AFIX  43
H8    2    0.633304    0.080243    0.713927    11.00000   -1.20000
AFIX   0
C9    1    0.458802    0.319528    0.670448    11.00000    0.01735    0.01423 =
         0.02127   -0.00004    0.00416    0.00040
AFIX  43
H9    2    0.376641    0.248661    0.694842    11.00000   -1.20000
AFIX   0
C10   1    0.248341    0.608233    0.789715    11.00000    0.01740    0.01450 =
         0.01795   -0.00125    0.00503    0.00156
C11   1    0.241909    0.496426    0.859540    11.00000    0.02002    0.01781 =
         0.01821    0.00081    0.00492    0.00186
C12   1    0.241876    0.369525    0.947076    11.00000    0.01800    0.01755 =
         0.01686    0.00360    0.00211   -0.00236
C13   1    0.316405    0.162719    0.963763    11.00000    0.02270    0.02202 =
         0.02702    0.00242    0.00573    0.00000
AFIX  43
H13   2    0.365032    0.101092    0.915731    11.00000   -1.20000
AFIX   0
C14   1    0.319748    0.046795    1.050237    11.00000    0.02500    0.02206 =
         0.03743    0.01264    0.00034    0.00111
AFIX  43
H14   2    0.371298   -0.093743    1.061441    11.00000   -1.20000
AFIX   0
C15   1    0.248416    0.134580    1.120373    11.00000    0.02796    0.03975 =
         0.02423    0.01548    0.00152   -0.00904
AFIX  43
H15   2    0.251352    0.054665    1.179661    11.00000   -1.20000
AFIX   0
C16   1    0.173070    0.338212    1.104084    11.00000    0.02669    0.03829 =
         0.01959    0.00070    0.00741   -0.00773
AFIX  43
H16   2    0.123881    0.397734    1.152292    11.00000   -1.20000
AFIX   0
C17   1    0.168361    0.456976    1.018080    11.00000    0.02266    0.02055 =
         0.02088    0.00050    0.00528   -0.00106
AFIX  43
H17   2    0.115669    0.596820    1.007225    11.00000   -1.20000

AFIX   0
HKLF 4

REM  sad in P2(1)
REM R1 =  0.0283 for    2277 Fo > 4sig(Fo)  and  0.0285 for all    2298 data
REM    180 parameters refined using      3 restraints

END

WGHT      0.0427      0.1027

REM Highest difference peak  0.163,  deepest hole -0.184,  1-sigma level  0.035
Q1    1   0.1878  0.5015  0.7944  11.00000  0.05    0.16
Q2    1   0.6513  0.6253  0.6229  11.00000  0.05    0.15
Q3    1   0.1974  0.8768  0.7068  11.00000  0.05    0.14
Q4    1   0.3345  0.5390  0.6052  11.00000  0.05    0.14
Q5    1   0.6036  0.5088  0.5701  11.00000  0.05    0.14
Q6    1   0.3022  0.6117  0.8524  11.00000  0.05    0.14
Q7    1   0.0445  1.1946  0.6350  11.00000  0.05    0.13
Q8    1   0.4710  0.5756  0.6041  11.00000  0.05    0.13
Q9    1  -0.0002  0.5304  0.5631  11.00000  0.05    0.13
Q10   1   0.2253  0.2145  0.9437  11.00000  0.05    0.13
Q11   1   0.7032  0.4555  0.6414  11.00000  0.05    0.12
Q12   1   0.1761  0.3744  0.5563  11.00000  0.05    0.12
Q13   1   0.3305  0.8567  0.7046  11.00000  0.05    0.12
Q14   1   0.0232  0.5986  0.5758  11.00000  0.05    0.12
Q15   1   0.4503  0.4595  0.6644  11.00000  0.05    0.12
Q16   1   0.0137  0.8045  0.6938  11.00000  0.05    0.11
Q17   1   0.3570  0.1990  0.6594  11.00000  0.05    0.11
Q18   1   0.3985  0.3859  0.6216  11.00000  0.05    0.11
Q19   1   0.1126  1.2000  0.6131  11.00000  0.05    0.11
Q20   1   0.1790  0.6263  0.5573  11.00000  0.05    0.11
;
_shelx_res_checksum              98074
_shelx_hkl_file
;
  -1   0   0    6.38    0.53
  -1   0   0    7.10    0.39
  -1   0   0    7.18    0.33
   1   0   0    7.74    0.53
  -2   0   0  769.20   51.13
  -2   0   0  886.76   38.31
   2   0   0  799.46   46.43
  -2   0   0  829.85   39.09
   3   0   0   20.94    1.28
  -3   0   0   22.39    1.08
  -3   0   0   23.55    1.06
   3   0   0   21.62    1.50
  -4   0   0   21.66    1.04
  -4   0   0   21.26    1.03
   4   0   0   21.13    1.45
  -5   0   0   67.38    3.24
   5   0   0   67.98    4.54
  -6   0   0  125.25    4.97
   6   0   0  118.66    5.14
   6   0   0  123.09    8.19
  -7   0   0   12.25    0.49
  -7   0   0   12.07    0.50
   7   0   0   11.52    0.53
  -8   0   0   14.93    0.59
   8   0   0   14.89    0.65
  -8   0   0   14.43    0.61
  -9   0   0    6.90    0.29
  -9   0   0    6.56    0.38
   9   0   0    7.23    0.32
  -1  -1   0   14.85    1.13
  -1   1   0   15.35    0.64
  -1   1   0   17.79    0.76
   2  -1   0   64.46    4.66
  -2  -1   0   64.83    4.85
   2  -1   0   67.74    3.34
  -2   1   0   76.96    3.26
   2   1   0   73.21    4.41
  -2   1   0   73.45    3.34
  -2   1   0   67.48    2.72
   3  -1   0   36.38    1.91
  -3  -1   0   37.98    2.76
   3  -1   0   36.37    2.65
  -3   1   0   40.96    1.86
   3   1   0   40.92    2.24
   3   1   0   42.87    2.24
  -3   1   0   40.33    1.57
   3   1   0   38.94    2.53
  -3   1   0   40.81    1.91
   4  -1   0  229.03   11.57
   4  -1   0  235.91   16.19
  -4   1   0  259.63   11.56
   4   1   0  237.15   16.16
  -4   1   0  241.14   11.32
   4   1   0  252.48   13.75
   5  -1   0    5.47    0.41
  -5   1   0    5.72    0.30
   5   1   0    4.95    0.38
  -5   1   0    5.13    0.29
  -6  -1   0   14.32    0.54
   6  -1   0   12.99    0.58
   6  -1   0   13.24    0.95
  -6   1   0   13.39    0.53
  -6   1   0   12.94    0.67
  -6   1   0   12.38    0.56
   6   1   0   12.04    0.92
  -7  -1   0   76.71    4.08
  -7  -1   0   76.06    2.90
   7  -1   0   81.25    3.24
  -7   1   0   78.87    2.91
  -7   1   0   77.53    3.13
   7   1   0   72.27    3.23
  -7   1   0   74.84    2.60
  -8  -1   0   18.16    1.02
   8  -1   0   20.19    0.83
  -8  -1   0   18.71    0.74
  -8   1   0   19.21    0.75
   8   1   0   18.53    0.82
  -8   1   0   19.31    0.79
  -9  -1   0   23.67    0.93
   9  -1   0   24.49    1.04
  -9   1   0   24.70    0.93
   0  -2   0  234.97   12.27
   0  -2   0  222.50   10.96
   0  -2   0  208.90   15.91
   0   2   0  240.10   14.37
   0   2   0  231.96    8.85
   0   2   0  240.10   13.04
   0   2   0  227.50   13.02
   0   2   0  233.48   10.76
   1  -2   0  157.52    7.42
   1  -2   0  139.86   10.78
   1  -2   0  162.18    8.34
   1   2   0  161.82    9.77
  -1   2   0  149.74   10.37
  -1   2   0  158.18    7.26
   1   2   0  156.62    7.27
  -1   2   0  162.56    6.02
  -1   2   0  153.50    9.74
   2  -2   0   14.47    0.77
   2  -2   0   12.72    0.63
  -2  -2   0   11.52    0.90
  -2   2   0   12.71    0.60
  -2   2   0   11.25    0.85
  -2   2   0   12.41    0.54
  -2   2   0   12.13    0.62
   3  -2   0   66.67    3.31
  -3  -2   0   67.70    4.80
  -3   2   0   70.70    3.22
  -3   2   0   66.56    3.30
  -3   2   0   71.93    2.71
   4  -2   0   59.14    2.95
   4   2   0   61.85    3.44
  -4   2   0   59.26    2.86
  -4   2   0   60.54    2.93
   4   2   0   62.76    3.44
   5  -2   0   44.41    2.10
   5  -2   0   41.77    1.80
   5   2   0   42.24    2.44
  -5   2   0   43.54    2.08
  -5   2   0   40.74    2.02
   6  -2   0   11.28    0.52
  -6  -2   0   12.81    0.63
  -6  -2   0   13.01    0.64
   6  -2   0   11.13    0.52
  -6   2   0   11.82    0.51
   6   2   0   10.03    0.82
  -6   2   0   11.95    0.48
  -6   2   0   11.87    0.43
  -6   2   0   11.39    0.62
   7  -2   0    1.89    0.15
   7  -2   0    2.16    0.14
  -7   2   0    1.96    0.13
  -7   2   0    2.06    0.12
  -7   2   0    1.96    0.14
   8  -2   0    4.01    0.21
   8  -2   0    3.74    0.20
  -8   2   0    3.77    0.18
  -8   2   0    3.98    0.17
  -8   2   0    3.71    0.19
  -9  -2   0   10.76    0.56
   9  -2   0   12.49    0.50
  -9   2   0   11.36    0.46
   0  -3   0   -0.05    0.09
   0  -3   0   -0.01    0.07
   0   3   0    0.04    0.04
   0   3   0   -0.02    0.03
   0   3   0   -0.01    0.04
   0   3   0    0.01    0.03
   1  -3   0  105.37    5.10
   1  -3   0  101.61    7.43
  -1  -3   0  106.41    7.44
   1  -3   0  108.27    5.79
  -1   3   0   99.90    7.13
   1   3   0  111.89    6.04
   1   3   0  108.73    5.01
  -1   3   0  106.98    5.00
  -1   3   0  104.19    4.16
   1   3   0  114.58    6.04
  -2  -3   0    2.76    0.28
   2  -3   0    3.05    0.19
   2  -3   0    3.02    0.29
  -2   3   0    2.40    0.19
   2   3   0    2.92    0.18
  -2   3   0    2.84    0.17
  -2   3   0    2.82    0.24
   3  -3   0    6.94    0.38
  -3  -3   0    6.67    0.55
  -3   3   0    6.95    0.36
  -3   3   0    6.84    0.35
   3   3   0    6.74    0.37
  -3   3   0    6.22    0.69
  -3   3   0    6.88    0.49
   4  -3   0    1.51    0.16
  -4  -3   0    1.79    0.22
  -4   3   0    1.73    0.16
  -4   3   0    1.61    0.27
  -4   3   0    1.35    0.12
   5  -3   0    0.05    0.08
   5  -3   0    0.03    0.06
   5  -3   0    0.11    0.08
  -5  -3   0    0.09    0.11
  -5   3   0    0.12    0.05
   5   3   0    0.09    0.03
  -5   3   0    0.05    0.08
  -5   3   0    0.17    0.06
  -5   3   0    0.08    0.13
  -6  -3   0    3.22    0.17
   6  -3   0    2.86    0.18
  -6  -3   0    3.07    0.23
  -6  -3   0    3.09    0.23
  -6   3   0    3.00    0.15
  -6   3   0    2.88    0.17
   7  -3   0    3.39    0.20
  -7  -3   0    3.35    0.19
  -7  -3   0    3.39    0.25
  -7   3   0    3.51    0.16
  -7   3   0    3.50    0.18
  -7   3   0    3.89    0.34
  -8  -3   0    0.08    0.03
  -8  -3   0    0.11    0.03
   8  -3   0    0.21    0.06
  -8   3   0    0.12    0.05
   0  -4   0   50.54    3.52
   0   4   0   48.84    3.33
  -1  -4   0    1.47    0.21
  -1   4   0    1.20    0.15
   1   4   0    1.66    0.12
  -1   4   0    1.34    0.27
   2  -4   0    3.07    0.16
  -2  -4   0    3.50    0.34
   2  -4   0    3.26    0.20
  -2   4   0    2.51    0.40
   2   4   0    3.47    0.21
   2   4   0    3.46    0.21
  -2   4   0    2.96    0.17
  -2   4   0    3.27    0.27
   3  -4   0    0.54    0.07
  -3  -4   0    0.56    0.15
   3  -4   0    0.62    0.10
  -3  -4   0    0.38    0.11
  -3   4   0    0.55    0.06
  -3   4   0    0.45    0.19
  -3   4   0    0.35    0.09
   4  -4   0   31.24    1.54
   4  -4   0   28.78    2.02
  -4  -4   0   35.44    2.71
   4  -4   0   28.44    1.28
  -4   4   0   30.60    1.07
  -4   4   0   29.88    1.29
  -4   4   0   30.39    1.31
  -4   4   0   32.02    2.90
  -5  -4   0    7.79    0.48
  -5  -4   0    9.16    0.76
   5  -4   0    7.73    0.37
   5  -4   0    7.17    0.58
  -5   4   0    7.59    0.37
  -5   4   0    8.35    0.31
  -5   4   0    8.03    0.36
  -5   4   0    8.36    0.85
  -6  -4   0    4.41    0.29
  -6  -4   0    4.42    0.30
  -6  -4   0    3.66    0.29
   6  -4   0    4.36    0.22
  -6   4   0    4.32    0.19
  -6   4   0    4.51    0.22
   7  -4   0    3.72    0.19
  -7  -4   0    3.08    0.26
  -7  -4   0    3.59    0.26
  -7   4   0    4.01    0.19
  -7   4   0    3.91    0.34
   0  -5   0    0.00    0.06
   0  -5   0    0.00    0.03
   0  -5   0    0.05    0.10
   0   5   0   -0.03    0.06
   0   5   0    0.02    0.17
  -1  -5   0    3.07    0.20
   1  -5   0    2.96    0.19
   1  -5   0    2.37    0.33
   1  -5   0    3.17    0.14
  -1  -5   0    2.78    0.32
  -1   5   0    2.65    0.43
  -1   5   0    2.78    0.26
  -1   5   0    2.90    0.16
   2  -5   0   14.31    0.58
  -2  -5   0   13.47    1.23
  -2  -5   0   13.83    0.65
   2  -5   0   12.12    1.24
  -2  -5   0   14.89    0.90
  -2   5   0   12.07    1.35
  -2   5   0   13.60    0.59
   3  -5   0   81.35    8.11
  -3  -5   0   93.35    8.10
  -3  -5   0   96.20    6.12
   3  -5   0   98.03    3.81
  -3  -5   0   92.80    6.12
  -3  -5   0   98.54    4.42
  -3  -5   0   91.84    4.42
  -3  -5   0   93.45    4.88
  -3   5   0   93.25    3.93
  -3   5   0   95.78    8.59
   4  -5   0   27.12    2.83
  -4  -5   0   33.45    1.71
   4  -5   0   31.45    1.33
  -4  -5   0   34.47    2.81
  -4   5   0   32.84    1.34
  -4   5   0   31.48    3.01
  -4   5   0   33.10    1.36
  -5  -5   0    5.00    0.44
  -5  -5   0    4.18    0.30
   5  -5   0    4.45    0.23
   5  -5   0    3.57    0.47
  -5   5   0    4.10    0.22
  -5   5   0    4.64    0.52
  -5   5   0    4.65    0.21
   6  -5   0    2.55    0.15
   6  -5   0    2.02    0.29
  -6  -5   0    2.42    0.24
  -6   5   0    2.81    0.15
   0  -6   0   11.53    1.02
   0   6   0   10.41    1.12
   1  -6   0    5.04    0.53
  -1  -6   0    5.05    0.52
   1  -6   0    5.69    0.30
  -1  -6   0    5.63    0.27
  -1   6   0    4.80    0.61
  -1   6   0    5.26    0.25
  -2  -6   0    7.19    0.34
   2  -6   0    6.26    0.67
  -2  -6   0    7.12    0.34
  -2  -6   0    6.87    0.65
  -2  -6   0    7.47    0.47
   2  -6   0    6.97    0.40
  -2   6   0    6.20    0.75
  -2   6   0    6.71    0.32
  -3  -6   0    8.67    0.80
   3  -6   0    7.79    0.82
  -3  -6   0    9.41    0.59
  -3  -6   0    9.09    0.59
  -3   6   0    8.78    0.39
  -3   6   0    8.58    0.91
   4  -6   0   28.18    1.14
  -4  -6   0   29.28    2.44
  -4   6   0   26.25    1.18
  -5   6   0    0.10    0.05
   0  -7   0    0.01    0.03
  -1  -7   0   37.43    1.68
  -1  -7   0   33.61    1.68
  -2  -7   0   26.95    1.77
   9   0  -1   10.32    0.43
  -9   0   1    9.47    0.39
  -9   0   1    9.05    0.53
  -8   0   1   11.25    0.47
  -8   0   1   11.24    0.46
   8   0  -1   10.98    0.50
   7   0  -1   10.99    0.51
  -7   0   1   11.67    0.49
  -7   0   1   11.84    0.47
   6   0  -1  109.50    7.16
   6   0  -1  101.95    4.49
  -6   0   1  109.09    4.34
  -5   0   1    2.23    0.14
  -5   0   1    2.05    0.15
   5   0  -1    2.08    0.19
  -4   0   1    5.50    0.30
  -4   0   1    5.81    0.30
   4   0  -1    5.67    0.41
  -3   0   1    0.50    0.06
  -3   0   1    0.37    0.09
   3   0  -1    0.56    0.06
  -3   0   1    0.46    0.05
  -2   0   1  973.33   46.95
  -2   0   1 1000.00   61.45
  -1   0   1   72.71    3.42
   0   0  -1   84.33    4.49
  -1   0  -1  146.69    6.64
  -1   0  -1  136.47    5.47
   2   0   1   95.30    6.70
  -2   0  -1  100.73    3.87
  -2   0  -1   99.95    4.78
   2   0   1  104.82    6.27
  -2   0  -1  101.05    4.69
  -3   0  -1   40.38    1.88
  -3   0  -1   39.52    1.84
   3   0   1   37.23    2.62
  -4   0  -1   34.01    1.60
   4   0   1   32.19    2.23
  -5   0  -1  179.79    8.50
   5   0   1  177.23   11.91
   6   0   1   20.27    0.92
  -6   0  -1   21.81    0.89
   6   0   1   21.09    1.49
  -6   0  -1   22.52    0.83
   7   0   1   71.19    3.08
  -7   0  -1   74.00    2.76
  -7   0  -1   73.81    2.97
   8   0   1   38.39    1.63
  -8   0  -1   38.33    1.47
   9   0   1    0.06    0.04
  -9   0  -1    0.06    0.04
  -9   0  -1    0.08    0.03
  -9  -1   1    0.75    0.06
   9  -1  -1    0.71    0.07
   9   1  -1    0.86    0.08
  -9   1   1    0.74    0.07
  -9   1   1    0.71    0.05
  -8  -1   1    3.79    0.19
   8  -1  -1    4.04    0.21
  -8  -1   1    3.84    0.23
  -8   1   1    4.05    0.19
   8   1  -1    3.71    0.20
  -8   1   1    4.08    0.19
  -7  -1   1   19.63    1.09
  -7  -1   1   19.91    0.79
   7  -1  -1   21.43    0.88
  -7   1   1   20.29    0.84
  -7   1   1   20.60    0.79
   7   1  -1   19.06    0.87
  -7   1   1   20.19    0.71
   6  -1  -1   13.45    0.96
  -6  -1   1   14.56    0.56
   6  -1  -1   13.38    0.59
  -6   1   1   12.94    0.57
   6   1  -1   12.83    0.94
  -6   1   1   13.42    0.69
   5  -1  -1   13.74    1.00
   5   1  -1   14.03    0.98
  -5   1   1   15.25    0.73
  -5   1   1   14.59    0.71
   4  -1  -1   89.67    6.13
   4  -1  -1   83.03    4.40
   4   1  -1   99.56    5.20
   4   1  -1   95.34    6.11
  -4   1   1   92.82    4.30
   4   1  -1   85.14    5.20
  -4   1   1   96.41    4.40
   3  -1  -1   97.05    6.80
   3  -1  -1   91.86    4.88
  -3  -1   1   92.44    7.08
  -3   1   1  109.32    4.77
   3   1  -1  111.53    5.78
   3   1  -1  104.57    6.42
   3   1  -1  104.15    5.77
  -3   1   1  105.23    4.88
   2  -1  -1   61.10    2.99
   2  -1  -1   57.80    4.17
  -2  -1   1   61.08    3.95
  -2  -1   1   59.52    4.34
  -2   1   1   65.97    2.99
  -2   1   1   56.20    4.17
   2   1  -1   68.05    3.95
  -2   1   1   70.54    2.93
  -1  -1   1  172.74   11.30
  -1   1   1  180.77    6.96
  -1   1   1  189.16    8.47
   0  -1   1  241.15   15.45
   0  -1   1  255.96   13.19
   0  -1  -1  262.85   13.18
   0   1   1  253.11   11.60
   0   1   1  241.59   14.01
   0   1  -1  231.99   11.57
   0   1  -1  244.68   15.46
   0   1   1  249.00    9.53
   1  -1   1  797.47   39.81
  -1  -1  -1  828.45   57.84
  -1   1  -1  880.41   38.94
  -2  -1  -1  553.79   37.75
   2  -1   1  537.80   25.96
   2  -1   1  484.49   36.32
  -2   1  -1  552.95   20.95
   2   1   1  529.09   33.96
  -2   1  -1  587.96   25.44
  -2   1  -1  567.93   26.00
   3  -1   1  181.26   12.77
  -3  -1  -1  206.39   13.26
   3  -1   1  180.42    9.13
  -3   1  -1  202.37    9.13
  -3   1  -1  191.83    7.40
  -3   1  -1  192.57    8.93
   3   1   1  185.40   11.99
   4  -1   1  209.09   13.68
   4  -1   1  199.02    9.80
  -4   1  -1  217.56    9.78
   4   1   1  193.83   13.66
  -4   1  -1  206.34    9.58
   5  -1   1    4.67    0.36
  -5   1  -1    4.92    0.27
   5   1   1    4.22    0.34
  -5   1  -1    4.63    0.26
  -6  -1  -1   24.08    0.94
  -6  -1  -1   25.38    1.00
   6  -1   1   24.22    1.05
  -6   1  -1   24.91    1.02
  -6   1  -1   24.29    0.85
  -6   1  -1   24.03    1.20
   6   1   1   23.03    1.67
  -6   1  -1   25.29    0.95
   7  -1   1   12.76    0.54
   7  -1   1   11.36    0.54
  -7  -1  -1   12.13    0.67
  -7  -1  -1   12.49    0.49
  -7   1  -1   11.75    0.44
  -7   1  -1   12.75    0.50
  -7   1  -1   12.13    0.52
   7   1   1   11.60    0.54
  -8  -1  -1   14.46    0.58
  -8  -1  -1   13.98    0.78
   8  -1   1   14.82    0.64
   8   1   1   13.56    0.63
  -8   1  -1   15.36    0.61
  -8   1  -1   14.94    0.58
  -9  -1  -1    2.79    0.14
  -9   1  -1    3.19    0.14
  -9  -2   1    1.90    0.13
   9  -2  -1    2.08    0.12
  -9   2   1    1.84    0.11
   8  -2  -1    8.64    0.39
   8  -2  -1    8.43    0.39
  -8   2   1    8.34    0.37
  -8   2   1    8.65    0.36
  -8   2   1    8.50    0.32
   7  -2  -1   10.69    0.51
   7  -2  -1   11.09    0.51
  -7   2   1   11.14    0.49
  -7   2   1   11.12    0.42
  -7   2   1   12.75    0.93
  -7   2   1   11.17    0.46
   6  -2  -1    2.20    0.14
   6  -2  -1    2.00    0.15
  -6   2   1    2.23    0.12
   6   2  -1    2.01    0.19
  -6   2   1    2.34    0.14
  -6   2   1    2.28    0.13
  -6   2   1    2.10    0.18
   5  -2  -1   30.80    1.56
   5   2  -1   30.80    1.80
  -5   2   1   29.93    1.54
  -5   2   1   34.63    2.91
  -5   2   1   29.97    1.50
   4  -2  -1   57.93    2.86
  -4   2   1   58.36    2.78
   4   2  -1   61.46    3.34
  -4   2   1   58.47    2.85
   4   2  -1   58.26    3.34
   3  -2  -1  201.42    9.43
  -3  -2   1  191.79   13.70
  -3   2   1  204.60    9.22
  -3   2   1  187.45   13.16
  -3   2   1  202.79    9.43
  -2  -2   1  153.84   10.99
   2  -2  -1  167.24    8.52
   2  -2  -1  166.06    7.56
  -2   2   1  146.01   10.56
  -2   2   1  160.68    6.13
  -2   2   1  159.80    7.40
  -2   2   1  156.08    7.56
   1  -2  -1  138.94    7.19
   1  -2  -1  134.68    6.38
   1  -2  -1  123.52    9.26
   1   2  -1  142.04    8.40
  -1   2   1  130.88    5.17
  -1   2   1  126.62    8.91
  -1   2   1  139.94    6.25
   1   2  -1  133.74    6.24
   0  -2   1   37.67    1.80
   0  -2  -1   36.30    1.80
   0  -2   1   39.30    2.07
   0  -2  -1   39.91    2.09
   0  -2   1   35.84    2.64
   0  -2  -1   35.61    2.63
   0   2  -1   33.56    2.40
   0   2  -1   37.98    1.77
   0   2   1   39.51    2.14
   0   2   1   40.41    1.78
   0   2  -1   40.09    2.14
   0   2  -1   34.83    2.51
   0   2   1   38.56    1.47
   0   2   1   37.50    2.14
  -1  -2  -1    1.10    0.15
   1  -2   1    1.55    0.11
   1  -2   1    1.75    0.16
  -1  -2  -1    1.64    0.18
   1  -2   1    1.41    0.16
  -1   2  -1    1.46    0.13
  -1   2  -1    1.68    0.09
   1   2   1    1.64    0.11
  -1   2  -1    1.47    0.11
  -1   2  -1    1.66    0.12
  -2  -2  -1    5.28    0.42
   2  -2   1    5.63    0.30
   2  -2   1    5.59    0.37
  -2   2  -1    5.30    0.39
  -2   2  -1    5.33    0.28
  -2   2  -1    5.56    0.27
  -2   2  -1    5.19    0.29
   3  -2   1   61.09    3.08
  -3  -2  -1   65.33    4.47
  -3   2  -1   66.81    3.00
  -3   2  -1   64.36    2.53
  -3   2  -1   62.09    3.08
   4  -2   1   27.96    1.36
  -4   2  -1   27.84    1.35
   4   2   1   27.07    1.57
  -4   2  -1   27.43    1.31
  -4   2  -1   26.28    1.14
   5  -2   1   22.99    0.97
   5  -2   1   21.89    1.15
  -5   2  -1   23.53    1.13
  -5   2  -1   22.00    1.10
  -6  -2  -1   12.35    0.61
  -6  -2  -1   12.27    0.61
   6  -2   1   11.50    0.51
   6  -2   1   10.63    0.51
  -6   2  -1   11.27    0.49
  -6   2  -1   11.66    0.46
  -6   2  -1   11.47    0.42
  -6   2  -1   11.16    0.50
   6   2   1    9.75    0.80
   7  -2   1   31.06    1.31
   7  -2   1   29.99    1.29
  -7   2  -1   30.17    1.06
  -7   2  -1   30.69    1.18
  -7   2  -1   30.68    1.27
   8  -2   1    5.84    0.27
   8  -2   1    5.88    0.28
  -8   2  -1    5.66    0.23
  -8   2  -1    5.54    0.25
  -8   2  -1    5.72    0.26
  -8  -3   1    1.55    0.14
  -8  -3   1    1.62    0.10
   8  -3  -1    1.63    0.12
  -8   3   1    1.43    0.11
  -7  -3   1    2.80    0.22
  -7  -3   1    2.53    0.16
   7  -3  -1    2.67    0.18
  -7   3   1    2.88    0.14
  -7   3   1    3.14    0.30
  -7   3   1    2.90    0.16
   6  -3  -1   12.53    0.58
  -6  -3   1   14.86    1.20
  -6  -3   1   13.17    0.65
  -6  -3   1   13.41    0.75
  -6  -3   1   13.45    0.88
  -6   3   1   12.21    0.57
  -6   3   1   13.05    0.49
   5  -3  -1    6.80    0.42
   5  -3  -1    6.31    0.49
   5  -3  -1    6.86    0.32
  -5   3   1    6.96    0.40
  -5   3   1    6.39    0.31
  -5   3   1    7.57    0.72
  -5   3   1    7.06    0.27
   5   3  -1    6.30    0.41
   5   3  -1    6.93    0.41
   4  -3  -1    8.53    0.48
  -4  -3   1    7.68    0.67
  -4   3   1    8.18    0.43
  -4   3   1    9.17    0.86
  -4   3   1    8.35    0.47
  -3  -3   1   26.42    1.87
   3  -3  -1   27.84    1.29
  -3   3   1   23.60    2.41
  -3   3   1   25.14    1.76
  -3   3   1   26.73    1.24
   2  -3  -1   10.86    0.73
  -2  -3   1   10.05    0.81
   2  -3  -1   11.38    0.55
  -2   3   1   10.59    0.53
  -2   3   1   10.33    0.75
  -2   3   1   10.41    0.49
   1  -3  -1   44.63    2.39
  -1  -3   1   40.63    2.99
   1  -3  -1   42.37    2.04
   1  -3  -1   41.61    2.97
  -1   3   1   39.22    2.84
  -1   3   1   43.22    2.01
  -1   3   1   42.04    1.69
   1   3  -1   43.51    2.41
   1   3  -1   44.07    2.41
   0  -3  -1   49.29    3.68
   0  -3   1   48.45    3.69
   0  -3   1   51.90    2.90
   0  -3  -1   52.42    2.92
   0   3   1   51.91    3.51
   0   3  -1   57.31    2.99
   0   3   1   53.84    2.99
   0   3   1   56.90    2.99
   0   3   1   55.54    2.49
   0   3  -1   47.87    3.51
   1  -3   1    2.76    0.27
  -1  -3  -1    2.51    0.28
  -1  -3  -1    3.10    0.29
   1  -3   1    3.03    0.28
   1  -3   1    2.85    0.18
   1   3   1    3.13    0.19
   1   3   1    3.15    0.19
  -1   3  -1    2.75    0.23
  -1   3  -1    3.22    0.20
   1   3   1    3.03    0.19
   2  -3   1   14.65    0.72
  -2  -3  -1   14.18    1.06
   2   3   1   14.21    0.71
  -2   3  -1   13.97    0.98
  -2   3  -1   14.16    0.64
  -3  -3  -1   48.20    3.27
   3  -3   1   48.53    2.25
  -3   3  -1   48.76    1.89
   3   3   1   44.23    2.21
  -3   3  -1   39.83    4.25
  -3   3  -1   47.88    3.11
   4  -3   1   69.94    3.44
  -4  -3  -1   73.39    4.97
   4   3   1   73.98    4.01
   4   3   1   70.08    3.37
  -4   3  -1   68.85    3.42
  -4   3  -1   69.60    6.50
  -4   3  -1   69.53    2.98
  -5  -3  -1    1.82    0.21
  -5  -3  -1    1.58    0.12
   5  -3   1    1.14    0.15
   5  -3   1    1.56    0.12
  -5   3  -1    1.05    0.10
  -5   3  -1    1.20    0.14
  -5   3  -1    1.44    0.11
  -6  -3  -1    0.95    0.12
  -6  -3  -1    1.25    0.13
  -6  -3  -1    1.15    0.09
   6  -3   1    1.15    0.11
  -6   3  -1    1.18    0.10
  -6   3  -1    1.19    0.09
  -7  -3  -1    5.00    0.32
   7  -3   1    5.35    0.26
  -7  -3  -1    5.15    0.27
  -7   3  -1    5.27    0.22
  -7   3  -1    5.06    0.24
   8  -3   1    3.93    0.19
  -8  -3  -1    3.78    0.19
  -8   3  -1    3.64    0.19
  -8   3  -1    3.68    0.16
  -8  -4   1    5.58    0.41
  -8  -4   1    6.45    0.36
  -8  -4   1    6.21    0.41
   7  -4  -1    0.70    0.07
  -7  -4   1    0.72    0.09
  -7  -4   1    0.64    0.09
  -7  -4   1    0.69    0.08
  -7   4   1    0.97    0.15
  -7   4   1    1.12    0.08
   6  -4  -1    2.78    0.16
  -6  -4   1    3.13    0.31
  -6  -4   1    2.69    0.19
  -6  -4   1    2.35    0.19
  -6  -4   1    2.61    0.22
  -6   4   1    2.63    0.16
  -6   4   1    2.87    0.39
   5  -4  -1    0.91    0.10
   5  -4  -1    0.90    0.09
  -5  -4   1    0.72    0.15
  -5  -4   1    0.62    0.11
  -5   4   1    0.78    0.21
  -5   4   1    0.72    0.07
  -5   4   1    0.98    0.09
   4  -4  -1   31.76    1.56
   4  -4  -1   28.98    1.30
  -4  -4   1   35.34    2.74
   4  -4  -1   29.25    2.04
  -4   4   1   31.97    2.93
  -4   4   1   30.58    1.32
  -4   4   1   31.51    1.08
  -4   4   1   29.86    1.30
   3  -4  -1   10.11    0.46
   3  -4  -1   11.27    0.57
  -3  -4   1   11.36    0.98
  -3  -4   1   10.03    0.84
   3   4  -1   10.79    0.61
  -3   4   1   10.28    0.47
   3   4  -1   11.32    0.61
  -3   4   1    9.88    0.76
  -3   4   1   10.25    1.07
  -2  -4   1    1.15    0.20
   2  -4  -1    1.19    0.11
   2  -4  -1    1.22    0.09
   2   4  -1    1.37    0.10
  -2   4   1    1.30    0.16
   2   4  -1    1.43    0.11
  -2   4   1    1.23    0.25
  -1  -4   1    2.84    0.29
  -1   4   1    2.12    0.36
  -1   4   1    2.79    0.23
   1   4  -1    2.95    0.19
   0  -4  -1   55.37    3.85
   0  -4   1   54.27    3.85
   0   4   1   56.66    3.66
   0   4  -1   51.69    3.65
  -1  -4  -1    1.52    0.22
   1   4   1    1.66    0.13
  -1   4  -1    1.50    0.16
   1   4   1    1.69    0.13
  -2  -4  -1   17.00    1.18
   2  -4   1   15.64    0.79
   2  -4   1   14.54    0.66
   2   4   1   16.47    0.90
  -2   4  -1   12.98    1.51
  -2   4  -1   15.25    1.09
   2   4   1   17.35    0.91
  -2   4  -1   15.65    0.68
   3  -4   1   25.39    1.21
   3  -4   1   22.08    1.59
  -3  -4  -1   25.77    2.12
   3  -4   1   22.22    1.00
  -3  -4  -1   24.53    1.77
  -3   4  -1   22.76    2.28
   3   4   1   25.12    1.37
  -3   4  -1   24.49    1.03
   4  -4   1    7.09    0.36
   4  -4   1    7.91    0.47
  -4  -4  -1    7.70    0.46
  -4   4  -1    8.05    0.36
  -4   4  -1    7.89    0.30
  -4   4  -1    7.72    0.36
  -4   4  -1    8.12    0.83
   5  -4   1   11.53    0.89
  -5  -4  -1   12.51    0.73
   5  -4   1   12.70    0.57
  -5  -4  -1   13.16    0.86
  -5  -4  -1   14.64    1.18
  -5   4  -1   12.54    0.57
  -5   4  -1   13.36    0.48
  -5   4  -1   13.69    1.29
  -6  -4  -1    2.03    0.16
   6  -4   1    2.35    0.15
  -6  -4  -1    2.20    0.17
  -6  -4  -1    1.98    0.20
  -6   4  -1    2.35    0.12
  -6   4  -1    2.38    0.14
  -7  -4  -1    2.66    0.26
   7  -4   1    3.19    0.17
  -7  -4  -1    2.98    0.23
  -7   4  -1    3.35    0.16
  -7  -5   1    4.85    0.33
   6  -5  -1    0.80    0.08
  -6  -5   1    0.50    0.10
  -6   5   1    0.79    0.07
   5  -5  -1   12.44    0.58
  -5  -5   1   12.82    0.76
  -5  -5   1   15.05    1.22
  -5   5   1   14.18    1.34
  -5   5   1   13.48    0.59
  -5   5   1   13.38    0.59
  -4  -5   1   30.31    2.56
   4  -5  -1   28.08    1.21
  -4  -5   1   28.68    1.56
  -4   5   1   28.66    1.22
  -4   5   1   29.99    2.75
  -4   5   1   28.88    1.24
  -3  -5   1   64.23    3.02
  -3  -5   1   64.68    5.53
  -3  -5   1   62.37    4.17
  -3  -5   1   64.68    3.01
  -3  -5   1   62.06    4.17
   3  -5  -1   63.64    2.60
  -3   5   1   65.01    5.88
  -3   5   1   62.55    2.68
   2  -5  -1    1.05    0.19
  -2  -5   1    1.01    0.07
  -2  -5   1    0.85    0.17
  -2  -5   1    1.11    0.09
  -2  -5   1    0.90    0.10
   2  -5  -1    1.05    0.09
  -2   5   1    0.79    0.24
  -2   5   1    0.90    0.08
  -1  -5   1    0.88    0.10
   1  -5  -1    0.96    0.09
   1  -5  -1    0.83    0.17
  -1  -5   1    0.98    0.18
  -1   5   1    1.01    0.26
  -1   5   1    0.89    0.14
   0  -5   1    6.10    0.33
   0  -5   1    5.60    0.58
   0  -5  -1    5.55    0.57
   0  -5   1    6.43    0.34
   0  -5  -1    6.07    0.33
   0   5  -1    5.32    0.67
   0   5   1    5.36    0.66
   0   5  -1    5.98    0.44
   0   5   1    5.71    0.45
   1  -5   1   26.59    0.97
  -1  -5  -1   25.58    1.14
  -1  -5  -1   23.17    2.09
   1  -5   1   23.01    1.18
   1  -5   1   21.76    2.10
  -1   5  -1   22.97    1.63
  -1   5  -1   21.48    2.25
  -1   5  -1   23.77    1.01
   2  -5   1   14.53    1.49
   2  -5   1   17.42    0.70
  -2  -5  -1   18.07    1.10
   2  -5   1   16.49    1.11
  -2  -5  -1   16.73    1.47
  -2  -5  -1   16.68    0.79
  -2   5  -1   16.56    0.72
  -2   5  -1   14.73    1.61
   3  -5   1   36.84    1.50
  -3  -5  -1   38.08    2.37
  -3  -5  -1   40.81    3.17
  -3  -5  -1   36.56    1.92
  -3  -5  -1   37.22    2.37
  -3  -5  -1   36.44    1.71
   3  -5   1   30.41    3.18
   3  -5   1   35.91    2.36
  -3  -5  -1   32.79    1.71
  -3   5  -1   35.54    3.39
  -3   5  -1   36.65    1.54
  -4  -5  -1    9.99    0.61
   4  -5   1   10.13    0.73
   4  -5   1    8.67    0.97
   4  -5   1   10.09    0.46
  -4  -5  -1   12.00    0.95
  -4   5  -1   10.17    1.05
  -4   5  -1   10.39    0.46
  -4   5  -1   10.81    0.46
   5  -5   1   14.34    0.65
  -5  -5  -1   15.20    0.86
  -5  -5  -1   16.94    1.36
  -5   5  -1   14.78    1.47
  -5   5  -1   15.20    0.65
  -5   5  -1   15.03    0.66
   6  -5   1    8.15    0.38
  -6   5  -1    9.00    0.38
  -5  -6   1    2.58    0.25
  -5   6   1    2.21    0.13
   4  -6  -1   15.98    0.65
  -4  -6   1   14.86    1.03
  -4  -6   1   16.97    1.39
  -4   6   1   14.83    0.67
  -3  -6   1    4.21    0.44
  -3  -6   1    4.74    0.31
  -3   6   1    4.53    0.53
  -3   6   1    4.26    0.22
  -2  -6   1    8.91    0.41
  -2  -6   1    8.55    0.79
   2  -6  -1    8.07    0.47
  -2   6   1    8.28    0.38
  -2   6   1    8.34    0.88
   1  -6  -1    6.01    0.33
  -1  -6   1    6.04    0.30
   1  -6  -1    6.50    0.34
  -1  -6   1    5.82    0.58
  -1   6   1    5.82    0.27
  -1   6   1    5.13    0.65
   0  -6   1    0.18    0.11
   0  -6  -1    0.06    0.09
   0   6  -1    0.18    0.17
  -1  -6  -1    9.95    0.46
  -1  -6  -1    8.59    0.85
   1  -6   1    9.62    0.51
   1  -6   1    9.11    0.87
  -1   6  -1    9.14    0.41
  -1   6  -1    8.73    0.97
   2  -6   1   14.33    0.80
  -2  -6  -1   15.27    0.70
  -2  -6  -1   16.16    0.98
   2  -6   1   13.38    1.33
  -2  -6  -1   15.17    0.70
  -2  -6  -1   15.09    1.31
  -2   6  -1   13.96    0.64
  -2   6  -1   13.59    1.44
  -3  -6  -1   11.14    0.69
  -3  -6  -1   11.30    0.94
  -3  -6  -1   10.66    0.69
   3  -6   1    8.60    0.96
  -3   6  -1   10.49    0.46
  -3   6  -1    9.65    1.04
   4  -6   1   11.63    0.48
  -4  -6  -1   12.15    1.03
  -4   6  -1   10.68    0.50
  -4   6  -1   11.52    0.50
  -2  -7   1   20.92    1.38
  -1  -7   1    3.35    0.18
  -1  -7   1    3.71    0.18
   0  -7  -1   52.53    2.41
   0  -7   1   52.46    2.41
   0  -7   1   47.25    4.41
  -1  -7  -1    5.83    0.28
  -2  -7  -1    2.68    0.19
   9   0  -2    0.30    0.05
  -9   0   2    0.29    0.05
  -9   0   2    0.28    0.05
  -8   0   2   41.88    1.67
  -8   0   2   40.90    1.57
   8   0  -2   40.28    1.75
   7   0  -2    0.08    0.04
  -7   0   2    0.03    0.04
  -7   0   2    0.09    0.12
  -7   0   2    0.08    0.05
   6   0  -2    9.12    0.65
  -6   0   2    9.19    0.38
   6   0  -2    8.49    0.40
   5   0  -2   25.83    1.73
  -5   0   2   25.93    1.24
  -5   0   2   24.73    1.23
   4   0  -2   25.36    1.78
  -4   0   2   27.40    1.26
   3   0  -2  218.69   13.33
   3   0  -2  192.48   11.28
  -3   0   2  189.78    9.49
  -3   0   2  215.48    9.30
  -3   0   2  179.51   12.45
  -2   0   2  247.83   11.68
  -2   0   2  223.30   11.89
   2   0  -2  279.03   16.67
  -1   0   2  130.33    6.09
   0   0  -2   72.39    3.90
  -2   0  -2  423.53   20.30
   2   0   2  396.58   28.39
   2   0   2  452.18   26.54
  -2   0  -2  431.27   16.37
  -3   0  -2  223.92   10.20
   3   0   2  208.41   14.29
  -3   0  -2  209.40    8.24
   4   0   2    9.37    0.69
  -4   0  -2   10.16    0.49
   5   0   2    3.33    0.28
  -5   0  -2    3.55    0.20
   6   0   2   77.78    3.37
   6   0   2   78.70    5.38
  -6   0  -2   83.32    3.02
  -6   0  -2   80.03    3.25
   7   0   2   13.62    0.61
  -7   0  -2   13.60    0.55
  -7   0  -2   14.12    0.58
  -8   0  -2    2.04    0.13
   8   0   2    2.04    0.13
  -9   0  -2    6.72    0.36
  -9   0  -2    6.57    0.36
  -9   0  -2    6.88    0.28
  -9  -1   2    8.48    0.35
   9  -1  -2    8.79    0.39
  -9   1   2    8.52    0.37
  -9   1   2    9.18    0.36
   9   1  -2    8.80    0.39
   8  -1  -2   13.51    0.57
  -8  -1   2   12.23    0.70
  -8  -1   2   12.43    0.51
   8  -1  -2   12.79    0.57
  -8   1   2   12.23    1.05
  -8   1   2   13.48    0.52
   8   1  -2   12.57    0.56
  -8   1   2   13.24    0.54
   7  -1  -2   93.73    3.83
   7  -1  -2   88.47    3.75
  -7  -1   2   90.51    3.42
  -7  -1   2   86.43    4.82
   7   1  -2   84.36    3.82
  -7   1   2   90.68    3.70
  -7   1   2   93.86    3.43
  -7   1   2   98.48    7.01
  -6  -1   2   18.07    0.70
   6  -1  -2   16.55    0.74
  -6  -1   2   20.20    1.40
   6  -1  -2   15.65    1.20
  -6   1   2   16.08    0.72
  -6   1   2   16.75    0.86
   6   1  -2   16.47    1.18
   5  -1  -2    7.93    0.61
  -5   1   2    8.58    0.45
  -5   1   2    7.98    0.43
   5   1  -2    8.28    0.59
  -5   1   2    9.38    0.84
   4  -1  -2   27.18    1.50
   4  -1  -2   28.89    2.07
  -4   1   2   31.32    1.50
   4   1  -2   32.31    1.75
   4   1  -2   32.49    2.05
  -4   1   2   31.13    1.46
  -3  -1   2   65.61    5.06
   3  -1  -2   72.18    4.86
   3  -1  -2   66.84    3.49
   3   1  -2   70.07    4.12
   3   1  -2   81.01    4.12
  -3   1   2   75.61    3.49
  -3   1   2   77.65    3.41
   2  -1  -2  125.01    8.43
   2  -1  -2  128.36    6.04
  -2   1   2  110.84    8.43
  -2   1   2  134.48    6.04
   2   1  -2  122.79    7.16
  -2   1   2  138.25    5.91
   1  -1  -2  367.50   18.48
  -1  -1   2  392.03   24.14
   1   1  -2  366.11   21.90
  -1   1   2  406.38   18.09
  -1   1   2  354.25   25.80
   1   1  -2  437.86   24.16
   0  -1   2   70.14    4.54
   0  -1  -2   76.88    3.89
   0  -1  -2   73.70    5.02
   0   1   2   68.01    4.09
   0   1  -2   73.79    3.86
   0   1   2   71.26    3.38
   1  -1   2  413.34   21.88
  -1  -1  -2  436.94   28.51
   1  -1   2  394.39   25.63
  -1  -1  -2  433.96   21.89
   1  -1   2  400.67   19.63
  -1   1  -2  407.02   19.20
   1   1   2  430.91   23.27
  -1   1  -2  407.77   19.62
  -1   1  -2  403.22   27.43
   1   1   2  388.63   23.27
   2  -1   2  301.98   21.52
  -2  -1  -2  368.57   22.34
  -2  -1  -2  329.55   15.35
   2  -1   2  312.10   15.35
   2   1   2  318.44   20.13
  -2   1  -2  327.92   12.42
  -2   1  -2  330.21   15.04
  -2   1  -2  325.58   15.38
   2   1   2  288.19   18.25
   3  -1   2   42.42    2.13
   3  -1   2   42.96    2.95
  -3   1  -2   46.68    1.75
  -3   1  -2   47.34    2.12
  -3   1  -2   45.08    2.07
   3   1   2   39.14    2.94
   3   1   2   44.10    2.51
   4  -1   2   30.26    2.06
  -4   1  -2   32.82    1.48
  -4   1  -2   31.36    1.25
  -4   1  -2   30.24    1.45
   4   1   2   27.67    2.05
   5  -1   2    9.56    0.71
   5  -1   2    9.50    0.43
   5   1   2    9.72    0.69
  -5   1  -2   10.14    0.51
   6  -1   2    9.79    0.47
   6  -1   2   10.62    0.47
  -6  -1  -2   11.15    0.43
  -6  -1  -2   10.86    0.44
  -6   1  -2   10.65    0.54
  -6   1  -2   10.15    0.39
  -6   1  -2   10.80    0.46
  -6   1  -2   11.47    0.43
   6   1   2    9.60    0.76
   6   1   2   10.12    0.47
   7  -1   2   19.45    0.87
   7  -1   2   20.68    0.88
  -7  -1  -2   19.88    0.79
  -7  -1  -2   19.83    1.09
   7   1   2   20.01    0.87
  -7   1  -2   21.02    0.79
  -7   1  -2   20.76    0.85
  -7   1  -2   19.89    0.71
  -8  -1  -2    5.25    0.30
   8  -1   2    5.49    0.26
  -8  -1  -2    5.26    0.24
  -8  -1  -2    5.37    0.30
   8  -1   2    5.27    0.27
  -8   1  -2    5.29    0.24
   8   1   2    5.34    0.26
  -8   1  -2    5.37    0.24
   9  -2  -2   21.11    0.86
  -9   2   2   20.05    0.78
  -9   2   2   19.67    0.83
   8  -2  -2    3.67    0.20
   8  -2  -2    3.84    0.21
  -8   2   2    3.82    0.19
  -8   2   2    3.93    0.36
  -8   2   2    3.83    0.19
   7  -2  -2   30.71    1.35
  -7  -2   2   31.31    1.71
   7  -2  -2   32.43    1.37
  -7   2   2   31.13    1.33
  -7   2   2   32.02    1.24
  -7   2   2   35.17    2.51
  -7   2   2   31.40    1.11
   6  -2  -2    7.41    0.35
   6  -2  -2    7.59    0.35
  -6   2   2    7.58    0.34
  -6   2   2    7.63    0.29
  -6   2   2    7.32    0.43
   6   2  -2    7.16    0.53
  -6   2   2    7.65    0.32
   5  -2  -2   16.31    0.86
  -5   2   2   18.11    1.56
   5   2  -2   16.20    0.96
  -5   2   2   15.01    0.81
  -5   2   2   16.42    0.84
   4  -2  -2   13.50    0.72
  -4   2   2   14.37    1.32
   4   2  -2   12.66    0.79
  -4   2   2   14.30    0.71
  -4   2   2   13.78    0.68
   4   2  -2   14.18    0.79
  -3  -2   2  200.12   14.16
   3  -2  -2  208.09    9.75
  -3   2   2  213.88    9.74
  -3   2   2  209.20    9.53
  -3   2   2  189.99   13.60
   2  -2  -2   55.77    2.95
   2  -2  -2   55.44    2.57
  -2  -2   2   50.75    3.73
  -2   2   2   50.04    3.57
  -2   2   2   53.19    2.56
  -2   2   2   54.43    2.51
   1  -2  -2    6.26    0.42
   1  -2  -2    5.56    0.30
   1  -2  -2    5.74    0.44
  -1   2   2    6.05    0.31
  -1   2   2    5.72    0.41
   1   2  -2    6.16    0.35
  -1   2   2    5.75    0.36
   1   2  -2    5.81    0.34
   1   2  -2    6.18    0.45
   0  -2   2  183.27    8.93
   0  -2  -2  171.39    8.96
   0  -2  -2  164.61    7.95
   0  -2   2  165.80    7.96
   0  -2  -2  160.48   11.58
   0   2   2  174.97    7.81
   0   2  -2  153.35   11.16
   0   2  -2  173.26    9.46
   0   2  -2  166.99   10.45
   0   2   2  173.76    9.45
   0   2   2  170.58   11.12
   0   2   2  147.13    9.45
  -1  -2  -2   32.67    2.28
  -1  -2  -2   33.97    1.82
   1  -2   2   32.44    1.78
   1  -2   2   32.47    1.57
  -1   2  -2   32.20    2.17
   1   2   2   32.34    1.83
  -1   2  -2   31.42    1.52
   1   2   2   32.40    1.84
   1   2   2   33.88    1.54
  -1   2  -2   30.23    1.56
   2  -2   2   38.58    1.88
  -2  -2  -2   39.69    2.73
  -2   2  -2   36.81    1.87
  -2   2  -2   38.50    1.82
   2   2   2   40.65    2.19
  -2   2  -2   39.86    1.56
   2   2   2   38.71    2.20
  -2   2  -2   37.49    2.60
   3  -2   2  288.61   14.08
  -3  -2  -2  325.13   20.46
  -3   2  -2  294.86   11.41
  -3   2  -2  286.34   14.07
   3   2   2  284.06   16.71
  -3   2  -2  293.31   13.77
   4  -2   2   64.34    3.05
   4   2   2   60.81    3.57
  -4   2  -2   62.27    2.51
  -4   2  -2   65.78    3.03
  -4   2  -2   60.49    2.95
   5  -2   2   88.08    3.50
  -5   2  -2   86.34    4.00
   5   2   2   74.86    5.55
  -6  -2  -2    3.21    0.18
  -6  -2  -2    3.52    0.19
   6  -2   2    2.92    0.19
   6  -2   2    3.15    0.18
  -6  -2  -2    2.78    0.16
  -6   2  -2    3.08    0.18
  -6   2  -2    3.15    0.17
  -6   2  -2    3.19    0.17
  -6   2  -2    2.97    0.16
   7  -2   2   52.91    2.23
  -7  -2  -2   51.16    1.99
   7  -2   2   52.23    2.19
  -7   2  -2   54.01    1.80
  -7   2  -2   51.34    2.16
  -7   2  -2   53.80    2.00
  -8  -2  -2   11.57    0.48
   8  -2   2   12.64    0.53
   8  -2   2   12.04    0.53
  -8   2  -2   12.35    0.51
  -8   2  -2   12.20    0.43
  -8   2  -2   11.56    0.48
   8  -3  -2    7.52    0.33
  -8  -3   2    7.05    0.41
  -8  -3   2    7.25    0.35
  -8   3   2    6.85    0.59
  -8   3   2    6.66    0.29
  -8   3   2    6.73    0.31
  -7  -3   2    6.72    0.42
   7  -3  -2    6.79    0.33
  -7  -3   2    6.67    0.35
  -7   3   2    7.94    0.61
  -7   3   2    7.12    0.32
  -7   3   2    6.70    0.30
  -6  -3   2    3.07    0.23
  -6  -3   2    2.95    0.21
  -6  -3   2    2.94    0.17
  -6  -3   2    3.58    0.34
   6  -3  -2    2.76    0.18
  -6   3   2    2.62    0.17
  -6   3   2    2.90    0.41
  -6   3   2    2.73    0.15
  -6   3   2    2.73    0.15
   5  -3  -2   12.97    0.56
   5  -3  -2   12.76    0.70
  -5   3   2   11.97    0.55
   5   3  -2   11.55    0.74
  -5   3   2   14.29    1.25
  -5   3   2   12.83    0.46
   5   3  -2   13.22    0.74
  -5   3   2   12.34    0.68
  -4  -3   2    9.34    0.80
   4  -3  -2   10.93    0.57
  -4   3   2   10.69    1.02
   4   3  -2   10.34    0.60
  -4   3   2   10.79    0.57
  -4   3   2   10.02    0.53
  -3  -3   2   12.58    0.96
   3  -3  -2   13.27    0.66
  -3   3   2   12.18    1.21
  -3   3   2   11.96    0.88
  -3   3   2   13.15    0.63
   2  -3  -2   24.21    1.44
  -2  -3   2   23.28    1.72
   2  -3  -2   25.15    1.18
  -2   3   2   22.74    1.15
   2   3  -2   25.55    1.36
  -2   3   2   22.30    1.62
   2   3  -2   23.29    1.35
  -1  -3   2    2.28    0.27
   1  -3  -2    2.46    0.28
   1  -3  -2    2.37    0.15
   1  -3  -2    2.51    0.24
  -1   3   2    2.27    0.21
  -1   3   2    2.39    0.17
   1   3  -2    2.45    0.16
   1   3  -2    2.50    0.17
   0  -3   2    8.61    0.73
   0  -3  -2    9.75    0.72
   0  -3  -2   10.25    0.66
   0   3  -2    8.39    0.66
   0   3   2   10.29    0.57
   0   3   2   10.05    0.66
   0   3   2    9.95    0.57
   0   3   2    9.71    0.49
  -1  -3  -2  148.26   10.13
   1  -3   2  132.49   10.13
   1  -3   2  148.01    6.96
  -1  -3  -2  135.64    7.87
   1   3   2  150.06    8.25
  -1   3  -2  145.91    9.72
   1   3   2  155.52    8.25
   1   3   2  148.70    6.83
  -1   3  -2  147.33    5.68
   2  -3   2    9.03    0.47
  -2  -3  -2    9.17    0.69
   2   3   2    9.54    0.52
   2   3   2    8.27    0.51
   2   3   2    8.83    0.47
  -2   3  -2    8.79    0.63
  -2   3  -2    8.26    0.44
   3  -3   2   35.23    1.67
  -3  -3  -2   36.92    2.42
  -3   3  -2   32.40    1.66
   3   3   2   33.50    1.64
   3   3   2   36.33    1.93
  -3   3  -2   28.46    3.13
   4  -3   2   41.60    1.98
  -4  -3  -2   42.24    2.86
   4   3   2   40.14    2.29
  -4   3  -2   37.82    1.96
  -4   3  -2   38.41    1.69
   5  -3   2    3.63    0.28
  -5  -3  -2    4.05    0.21
   5  -3   2    3.77    0.22
  -5  -3  -2    4.79    0.41
  -5  -3  -2    4.18    0.29
  -5  -3  -2    4.04    0.27
   5  -3   2    3.44    0.32
  -5   3  -2    3.53    0.26
  -5   3  -2    3.91    0.18
  -5   3  -2    3.80    0.21
   6  -3   2    9.40    0.44
  -6  -3  -2    9.44    0.55
  -6  -3  -2    9.74    0.48
  -6   3  -2    9.90    0.43
  -6   3  -2    9.37    0.36
   7  -3   2    3.54    0.19
  -7  -3  -2    3.28    0.19
  -7   3  -2    3.47    0.16
  -8  -3  -2    0.67    0.05
  -8  -3  -2    0.59    0.05
   8  -3   2    0.65    0.07
  -8   3  -2    0.97    0.07
  -8  -4   2    4.51    0.31
  -8  -4   2    4.67    0.27
  -8  -4   2    4.35    0.31
  -7  -4   2    2.77    0.22
   7  -4  -2    2.96    0.16
  -7  -4   2    2.76    0.22
  -7   4   2    3.36    0.31
  -7   4   2    3.28    0.17
  -6  -4   2    2.38    0.26
  -6  -4   2    1.75    0.15
  -6  -4   2    2.09    0.19
  -6  -4   2    2.00    0.15
   6  -4  -2    1.88    0.14
  -6   4   2    2.05    0.34
  -6   4   2    1.74    0.13
   5  -4  -2    6.37    0.31
  -5  -4   2    6.47    0.42
  -5  -4   2    7.95    0.65
   5  -4  -2    5.98    0.32
  -5   4   2    6.60    0.32
  -5   4   2    6.63    0.31
  -5   4   2    7.10    0.74
  -4  -4   2   43.44    3.51
   4  -4  -2   40.98    1.98
   4  -4  -2   38.33    1.66
  -4  -4   2   36.10    2.88
  -4   4   2   42.79    3.74
  -4   4   2   39.65    1.70
  -4   4   2   39.03    1.67
   3  -4  -2   66.12    2.74
   3  -4  -2   69.63    3.25
  -3  -4   2   64.18    4.74
  -3  -4   2   68.02    5.82
   3   4  -2   67.95    3.81
   3   4  -2   70.54    3.80
  -3   4   2   62.69    4.51
  -3   4   2   67.20    2.82
  -3   4   2   66.65    6.17
   2  -4  -2    3.66    0.18
  -2  -4   2    3.58    0.37
  -2   4   2    3.84    0.18
  -2   4   2    3.37    0.45
  -2   4   2    3.64    0.31
  -2   4   2    3.58    0.23
   2   4  -2    3.78    0.24
   2   4  -2    3.72    0.23
  -1  -4   2    7.05    0.59
   1   4  -2    7.04    0.42
  -1   4   2    6.91    0.51
  -1   4   2    6.26    0.72
   1   4  -2    7.08    0.50
  -1   4   2    7.34    0.38
   0  -4   2    0.98    0.17
   0  -4  -2    1.21    0.18
   0   4   2    1.22    0.12
   0   4  -2    1.05    0.12
   0   4   2    1.21    0.13
   1  -4   2   19.65    0.85
  -1  -4  -2   21.74    1.51
   1   4   2   20.58    1.02
   1   4   2   21.46    1.20
  -1   4  -2   19.52    1.41
   2  -4   2    6.83    0.32
   2  -4   2    7.23    0.39
  -2  -4  -2    7.34    0.59
  -2   4  -2    7.02    0.33
  -2   4  -2    6.94    0.52
   2   4   2    7.28    0.42
   2   4   2    8.02    0.43
  -2   4  -2    5.71    0.74
  -3  -4  -2   47.99    3.65
  -3  -4  -2   45.39    3.00
   3  -4   2   42.83    2.05
   3  -4   2   39.58    1.72
   3  -4   2   39.14    2.71
  -3   4  -2   39.82    3.89
   3   4   2   39.13    2.37
  -3   4  -2   40.39    1.74
  -3   4  -2   42.08    1.77
  -4  -4  -2    0.88    0.07
  -4  -4  -2    0.82    0.06
   4  -4   2    1.06    0.10
  -4  -4  -2    0.90    0.12
  -4  -4  -2    1.12    0.18
   4  -4   2    1.16    0.16
  -4   4  -2    1.26    0.09
  -4   4  -2    1.01    0.09
  -4   4  -2    1.23    0.09
  -5  -4  -2    4.87    0.26
  -5  -4  -2    5.23    0.27
   5  -4   2    4.85    0.42
  -5  -4  -2    5.21    0.35
   5  -4   2    5.41    0.27
  -5  -4  -2    6.15    0.53
  -5  -4  -2    5.62    0.37
  -5   4  -2    5.51    0.22
  -5   4  -2    5.48    0.27
   6  -4   2    9.44    0.40
  -6  -4  -2    7.98    0.53
   6  -4   2    8.30    0.62
  -6  -4  -2    8.78    0.60
  -6   4  -2    8.62    0.33
  -6   4  -2    9.23    0.39
   7  -4   2    7.65    0.34
  -7  -4  -2    7.64    0.52
  -7   4  -2    7.76    0.34
  -7  -5   2    7.88    0.45
  -7   5   2    7.68    0.34
   6  -5  -2    1.69    0.12
  -6  -5   2    1.29    0.16
  -6  -5   2    1.79    0.22
  -6   5   2    1.98    0.12
  -5  -5   2   19.15    1.07
   5  -5  -2   18.67    0.83
  -5  -5   2   20.98    1.75
  -5   5   2   20.40    1.89
  -5   5   2   19.29    0.84
  -5   5   2   19.49    0.83
  -4  -5   2    3.24    0.24
  -4  -5   2    3.17    0.25
  -4  -5   2    3.76    0.37
   4  -5  -2    3.25    0.19
  -4  -5   2    3.17    0.23
  -4   5   2    3.39    0.18
  -4   5   2    3.38    0.19
  -4   5   2    3.62    0.46
  -3  -5   2    0.52    0.09
  -3  -5   2    0.89    0.07
   3  -5  -2    1.04    0.09
  -3  -5   2    0.84    0.08
  -3  -5   2    0.86    0.06
  -3  -5   2    0.78    0.10
  -3  -5   2    0.68    0.15
  -3   5   2    1.08    0.08
  -3   5   2    1.07    0.24
  -2  -5   2    3.87    0.44
  -2  -5   2    4.07    0.26
  -2  -5   2    4.51    0.30
   2  -5  -2    4.41    0.20
  -2  -5   2    4.21    0.22
  -2   5   2    4.14    0.53
  -2   5   2    4.20    0.21
   1  -5  -2    2.86    0.19
  -1  -5   2    3.18    0.17
  -1  -5   2    2.92    0.35
  -1  -5   2    3.00    0.21
  -1  -5   2    3.53    0.18
   1   5  -2    2.75    0.25
  -1   5   2    2.90    0.28
  -1   5   2    3.22    0.44
   0  -5   2   32.50    1.57
   0  -5   2   29.55    2.78
   0  -5   2   32.25    1.69
   0  -5  -2   33.80    1.68
   0   5   2   30.46    2.16
   0   5  -2   30.84    2.15
   1  -5   2   13.31    1.27
   1  -5   2   13.47    0.71
  -1  -5  -2   14.73    0.68
   1  -5   2   15.51    0.58
  -1   5  -2   13.62    0.61
  -1   5  -2   11.81    1.37
  -2  -5  -2    6.37    0.41
   2  -5   2    6.04    0.27
  -2  -5  -2    6.29    0.30
   2  -5   2    5.34    0.60
   2  -5   2    5.66    0.45
  -2   5  -2    5.78    0.28
  -2   5  -2    4.90    0.67
  -3  -5  -2    9.44    0.44
   3  -5   2    7.74    0.88
   3  -5   2    9.16    0.41
  -3  -5  -2    8.47    0.60
   3  -5   2    8.43    0.65
  -3  -5  -2    9.30    0.61
  -3  -5  -2    8.80    0.44
  -3  -5  -2   10.44    0.84
  -3  -5  -2    9.82    0.61
  -3   5  -2    8.92    0.41
  -3   5  -2    8.81    0.95
  -4  -5  -2    6.29    0.45
  -4  -5  -2    8.03    0.49
   4  -5   2    6.62    0.50
   4  -5   2    6.54    0.31
  -4   5  -2    6.14    0.71
  -4   5  -2    6.51    0.31
  -4   5  -2    6.74    0.31
   5  -5   2   17.29    0.76
  -5  -5  -2   17.54    1.19
  -5  -5  -2   19.21    1.18
  -5   5  -2   17.72    0.76
   6  -5   2    5.57    0.60
  -6   5  -2    7.14    0.29
  -5  -6   2   11.99    1.03
  -5   6   2   11.02    0.49
  -4  -6   2   34.31    2.87
   4  -6  -2   33.08    1.34
  -4  -6   2   31.87    2.16
  -4   6   2   32.21    1.39
  -3  -6   2   39.16    2.51
  -3  -6   2   38.05    3.34
  -3   6   2   38.50    3.56
  -3   6   2   37.27    1.62
   2  -6  -2   10.99    0.63
  -2  -6   2   11.82    0.55
  -2  -6   2   11.81    1.05
  -2   6   2   11.00    0.50
  -2   6   2   11.45    1.14
  -1  -6   2    0.67    0.15
   1  -6  -2    0.58    0.06
   1  -6  -2    0.59    0.07
  -1  -6   2    0.72    0.10
   1   6  -2    0.60    0.20
   0  -6   2   14.42    1.29
   0  -6   2   15.75    0.73
   0   6  -2   12.09    1.40
   1  -6   2    7.69    0.42
   1  -6   2    6.98    0.72
  -1  -6  -2    7.81    0.37
  -1   6  -2    6.89    0.81
  -1   6  -2    7.30    0.34
  -2  -6  -2   11.25    0.70
   2  -6   2    9.86    0.57
  -2  -6  -2   10.40    0.49
  -2  -6  -2   10.54    0.49
   2  -6   2    9.36    0.96
  -2   6  -2    9.88    1.05
  -2   6  -2   10.08    0.45
  -3  -6  -2    9.17    0.57
   3  -6   2    7.43    0.80
  -3   6  -2    8.47    0.38
   4  -6   2   18.64    0.75
  -4   6  -2   17.68    0.77
  -4   6  -2   17.89    0.76
  -1  -7   2    1.18    0.07
  -1  -7   2    1.18    0.17
   0  -7   2   35.46    3.27
   0  -7  -2   39.46    1.78
  -9   0   3    0.07    0.04
  -9   0   3    0.10    0.05
   9   0  -3    0.11    0.05
   8   0  -3    0.32    0.05
  -8   0   3    0.29    0.04
  -8   0   3    0.44    0.07
  -8   0   3    0.25    0.12
  -7   0   3   78.39    5.84
  -7   0   3   76.50    3.07
   7   0  -3   73.69    5.08
  -7   0   3   75.58    2.85
   7   0  -3   72.84    3.18
  -6   0   3    3.74    0.18
  -6   0   3    3.66    0.23
   6   0  -3    3.84    0.31
   6   0  -3    3.58    0.18
  -5   0   3   12.73    0.65
   5   0  -3   13.22    0.91
  -5   0   3   13.44    0.66
   4   0  -3   83.17    5.55
  -4   0   3   82.35    3.98
  -4   0   3   83.83    3.90
   3   0  -3   40.86    2.19
   3   0  -3   49.55    3.05
  -3   0   3   47.36    2.14
  -3   0   3   44.63    2.19
   2   0  -3   28.89    1.87
  -2   0   3   27.03    1.32
  -1   0   3    9.19    0.44
  -1   0  -3  115.21    5.18
   1   0   3  102.46    7.25
   2   0   3   49.40    3.47
  -2   0  -3   52.30    2.03
   2   0   3   49.87    2.49
  -2   0  -3   56.05    2.48
   3   0   3  127.77    8.91
  -3   0  -3  139.39    6.37
  -4   0  -3    2.28    0.14
   4   0   3    2.05    0.19
  -5   0  -3   14.80    0.61
   5   0   3   14.00    0.63
   5   0   3   14.53    1.02
  -6   0  -3    1.09    0.09
   6   0   3    1.16    0.10
  -6   0  -3    1.24    0.10
   6   0   3    1.15    0.18
  -7   0  -3   14.16    0.57
  -7   0  -3   14.31    0.59
   7   0   3   14.19    0.63
  -8   0  -3    9.64    0.56
   8   0   3   10.54    0.45
  -8   0  -3    9.93    0.41
   9  -1  -3   12.74    0.54
   9  -1  -3   11.92    0.54
   9   1  -3   12.11    0.54
  -9   1   3   13.05    0.49
  -9   1   3   11.82    0.51
  -8  -1   3   18.23    0.77
   8  -1  -3   19.86    0.85
   8  -1  -3   21.10    0.86
  -8  -1   3   19.24    1.07
  -8   1   3   19.39    1.58
  -8   1   3   20.48    0.83
   8   1  -3   19.84    0.86
  -8   1   3   20.69    0.78
   7  -1  -3   46.50    2.02
  -7  -1   3   46.52    2.60
   7  -1  -3   50.17    2.07
  -7  -1   3   47.14    3.80
  -7   1   3   54.48    3.79
  -7   1   3   49.88    2.00
   7   1  -3   44.31    2.06
  -7   1   3   50.75    1.86
  -6  -1   3   24.52    1.01
   6  -1  -3   23.82    1.71
   6  -1  -3   23.37    1.06
  -6  -1   3   25.03    1.95
  -6   1   3   28.29    1.94
   6   1  -3   23.88    1.68
  -6   1   3   25.07    1.22
  -6   1   3   23.07    1.02
   5  -1  -3   26.52    1.93
  -5   1   3   28.28    1.40
  -5   1   3   31.67    2.65
   5   1  -3   27.74    1.91
  -5   1   3   27.88    1.36
   4  -1  -3   60.32    3.09
   4  -1  -3   61.47    4.29
  -4   1   3   64.65    3.08
  -4   1   3   63.52    3.01
   4   1  -3   69.81    4.27
  -3  -1   3   61.42    2.93
   3  -1  -3   61.43    4.11
  -3  -1   3   62.75    2.88
   3  -1  -3   56.66    2.95
   3   1  -3   68.75    4.09
  -3   1   3   62.66    2.95
  -3   1   3   63.14    2.88
   3   1  -3   54.39    3.48
   2  -1  -3  115.99    7.93
   2  -1  -3  125.65    5.69
  -2   1   3  124.56    5.68
  -2   1   3  131.54    5.56
  -2   1   3  101.27    7.93
   2   1  -3  115.17    7.93
   1  -1  -3  216.37    9.84
  -1  -1   3  218.18   12.92
   1  -1  -3  209.10   11.03
  -1   1   3  210.66    9.66
   1   1  -3  194.36   13.77
  -1   1   3  191.99   13.78
   0  -1   3  404.19   24.44
   0  -1  -3  399.01   18.71
   0  -1   3  371.47   18.70
   0  -1  -3  399.04   20.86
   0   1  -3  394.85   26.14
   0   1   3  392.95   26.13
   0   1   3  382.66   18.31
  -1  -1  -3  137.36    6.70
  -1  -1  -3  134.41    5.96
   1  -1   3  121.82    7.81
   1  -1   3  123.29    5.97
  -1   1  -3  128.25    8.33
  -1   1  -3  122.05    5.96
   1   1   3  108.88    8.32
   2  -1   3    6.00    0.44
   2  -1   3    6.17    0.34
  -2  -1  -3    6.67    0.31
   2   1   3    6.08    0.38
   2   1   3    5.82    0.43
  -2   1  -3    6.98    0.31
  -2   1  -3    6.62    0.33
   3  -1   3    0.81    0.10
   3  -1   3    0.94    0.11
   3   1   3    1.18    0.10
  -3   1  -3    1.00    0.09
  -3   1  -3    0.76    0.10
   4  -1   3   90.81    5.94
  -4   1  -3   92.51    4.25
   4   1   3   82.62    5.92
  -5  -1  -3    8.96    0.38
   5  -1   3    8.96    0.41
   5   1   3    8.76    0.65
  -5   1  -3    9.27    0.40
  -5   1  -3    9.42    0.48
   6  -1   3   21.27    0.96
  -6  -1  -3   23.30    0.88
   6  -1   3   22.57    0.98
  -6  -1  -3   21.49    1.24
  -6  -1  -3   23.22    0.93
   6   1   3   22.16    0.97
  -6   1  -3   23.73    0.95
  -6   1  -3   23.79    0.88
  -6   1  -3   22.19    0.79
  -7  -1  -3   40.40    1.51
  -7  -1  -3   40.14    2.12
   7  -1   3   39.69    1.69
   7  -1   3   38.42    1.66
  -7   1  -3   39.97    1.51
   7   1   3   39.51    1.68
  -7   1  -3   39.92    1.63
  -7   1  -3   38.61    1.36
   8  -1   3   17.54    0.74
   8  -1   3   17.96    0.75
  -8  -1  -3   18.00    0.68
  -8   1  -3   16.32    0.61
  -8   1  -3   16.78    0.71
   8   1   3   17.86    0.75
  -8   1  -3   16.81    0.68
   9  -2  -3    5.94    0.26
  -9   2   3    5.91    0.24
  -9   2   3    5.77    0.25
  -9   2   3    4.68    0.47
   8  -2  -3   23.02    1.00
   8  -2  -3   23.52    0.98
  -8   2   3   23.45    0.90
  -8   2   3   22.76    0.96
  -8   2   3   23.12    1.83
   7  -2  -3   25.70    1.13
   7  -2  -3   25.66    1.11
  -7  -2   3   26.35    1.39
  -7  -2   3   25.49    1.41
  -7  -2   3   25.96    1.39
  -7   2   3   26.37    1.02
  -7   2   3   25.70    0.91
  -7   2   3   25.36    1.09
  -7   2   3   28.91    2.06
   6  -2  -3   23.84    1.04
  -6  -2   3   22.18    1.93
   6  -2  -3   22.71    1.25
   6  -2  -3   23.26    1.03
  -6   2   3   24.42    0.85
  -6   2   3   29.20    2.30
  -6   2   3   24.63    0.94
   6   2  -3   23.21    1.65
  -6   2   3   25.16    1.02
  -6   2   3   24.13    1.22
   5  -2  -3   31.50    1.60
  -5   2   3   30.92    1.58
  -5   2   3   29.95    1.53
   5   2  -3   30.64    1.83
  -5   2   3   36.78    2.98
   4  -2  -3   90.41    4.36
  -4   2   3   87.93    4.25
   4   2  -3   84.45    5.13
  -4   2   3   98.76    8.27
  -4   2   3   90.93    4.35
  -3  -2   3   71.76    5.31
   3  -2  -3   81.13    3.66
   3   2  -3   75.69    4.31
  -3   2   3   79.70    3.66
  -3   2   3   79.73    3.57
  -3   2   3   68.72    5.09
   2  -2  -3   18.74    0.89
   2  -2  -3   18.10    1.08
   2   2  -3   17.71    1.03
  -2   2   3   17.32    0.89
  -2   2   3   16.68    1.23
  -2   2   3   17.91    0.87
   2   2  -3   18.94    1.03
   1  -2  -3    9.51    0.63
   1  -2  -3    9.85    0.50
   1  -2  -3   10.33    0.72
  -1   2   3    9.98    0.49
  -1   2   3    9.53    0.68
   1   2  -3    9.73    0.57
   0  -2   3   53.93    2.54
   0  -2  -3   54.33    2.92
   0  -2  -3   54.43    3.70
   0  -2  -3   51.56    2.54
   0   2   3   55.55    2.50
   0   2   3   52.35    3.02
   0   2   3   50.07    3.01
   0   2   3   54.09    3.54
   0   2  -3   51.20    3.54
   1  -2   3   45.84    2.24
  -1  -2  -3   49.78    3.25
  -1  -2  -3   45.08    2.57
   1   2   3   47.38    2.63
  -1   2  -3   46.55    3.11
   1   2   3   49.29    2.20
   1   2   3   44.96    2.64
  -1   2  -3   42.06    2.23
  -2  -2  -3  204.43   12.56
   2  -2   3  175.50    8.64
  -2   2  -3  179.94    7.02
  -2   2  -3  168.19    8.63
   2   2   3  174.17   10.24
  -2   2  -3  184.25   12.06
   3  -2   3   85.33    4.04
   3   2   3   81.76    4.76
  -3   2  -3   86.31    3.32
  -3   2  -3   82.34    4.02
   4  -2   3   64.75    2.96
  -4   2  -3   63.76    2.93
   4   2   3   54.18    4.06
   5  -2   3   15.93    0.70
   5  -2   3   16.22    0.70
  -5  -2  -3   16.05    0.63
   5  -2   3   15.89    0.85
  -5   2  -3   16.43    0.58
  -5   2  -3   16.76    0.69
   5   2   3   14.70    1.11
  -5   2  -3   16.47    0.82
  -6  -2  -3   12.06    0.52
   6  -2   3   12.96    0.58
  -6  -2  -3   13.38    0.70
   6  -2   3   12.46    0.58
  -6  -2  -3   14.24    0.70
  -6   2  -3   13.02    0.48
  -6   2  -3   12.61    0.57
   7  -2   3   12.71    0.57
  -7  -2  -3   12.47    0.51
   7  -2   3   12.94    0.57
  -7   2  -3   12.59    0.51
  -7   2  -3   13.06    0.55
  -7   2  -3   12.93    0.47
  -8  -2  -3   27.58    1.11
   8  -2   3   30.96    1.23
  -8   2  -3   29.32    1.20
  -8   2  -3   29.17    1.00
  -8  -3   3    7.54    0.43
   8  -3  -3    7.51    0.33
  -8  -3   3    7.38    0.36
  -8   3   3    6.92    0.61
  -8   3   3    6.77    0.33
   7  -3  -3   34.08    1.43
  -7  -3   3   33.31    1.63
  -7  -3   3   32.35    1.82
  -7   3   3   34.86    3.19
  -7   3   3   33.07    1.31
  -7   3   3   36.86    2.67
  -7   3   3   34.40    1.42
  -6  -3   3   11.86    0.72
  -6  -3   3   14.43    1.16
  -6  -3   3   13.03    0.85
  -6  -3   3   12.76    0.62
   6  -3  -3   12.00    0.56
  -6   3   3   11.16    0.51
  -6   3   3   14.88    1.27
  -6   3   3   11.74    0.55
   5  -3  -3   32.61    1.37
   5  -3  -3   32.55    1.64
   5   3  -3   28.62    1.87
  -5   3   3   31.34    1.36
  -5   3   3   37.55    3.06
  -5   3   3   33.11    1.38
  -5   3   3   33.04    1.63
  -5   3   3   33.21    1.13
   5   3  -3   32.21    1.87
  -4  -3   3   39.09    2.98
   4  -3  -3   42.89    2.06
  -4   3   3   44.58    3.87
   4   3  -3   41.40    2.38
  -4   3   3   40.83    1.99
  -4   3   3   41.99    2.06
  -3  -3   3   14.44    1.08
   3  -3  -3   15.23    0.74
  -3   3   3   13.72    1.35
  -3   3   3   13.03    0.99
  -3   3   3   14.02    0.71
   3   3  -3   14.78    0.82
   2  -3  -3    4.68    0.27
  -2  -3   3    4.45    0.41
  -2   3   3    4.55    0.26
   2   3  -3    4.67    0.29
  -2   3   3    4.40    0.35
   2   3  -3    4.56    0.28
  -1  -3   3  113.48    8.13
   1  -3  -3  116.22    6.35
   1  -3  -3  126.69    8.11
   1  -3  -3  121.48    5.57
  -1   3   3  118.16    5.47
   1   3  -3  104.45    7.77
  -1   3   3  116.27    7.79
   0  -3   3   19.32    0.90
   0  -3  -3   18.25    1.32
   0  -3   3   16.42    1.34
   0  -3  -3   18.84    1.14
   0   3   3   19.26    1.25
   0   3   3   18.94    0.91
   0   3  -3   17.48    1.24
  -1  -3  -3    5.82    0.45
   1  -3   3    4.84    0.45
   1  -3   3    5.45    0.30
   1   3   3    5.66    0.31
  -1   3  -3    5.39    0.39
   1   3   3    5.40    0.33
  -1   3  -3    5.11    0.29
   1   3   3    5.44    0.33
  -2  -3  -3   11.94    0.83
   2  -3   3   10.58    0.57
  -2   3  -3   10.13    0.52
  -2   3  -3   10.63    0.76
   2   3   3   10.63    0.57
   2   3   3   10.90    0.64
   2   3   3   11.00    0.63
   3  -3   3    3.10    0.21
  -3  -3  -3    3.31    0.31
  -3   3  -3    2.71    0.19
   3   3   3    3.05    0.22
  -3   3  -3    2.22    0.36
   3   3   3    2.94    0.20
   4  -3   3   29.11    1.18
   4  -3   3   29.46    1.41
   4  -3   3   24.14    1.83
  -4   3  -3   28.31    1.19
  -4   3  -3   29.15    0.97
   4   3   3   28.01    1.62
  -4   3  -3   27.68    1.39
  -4   3  -3   28.44    1.18
  -5  -3  -3    1.39    0.15
  -5  -3  -3    0.98    0.09
  -5  -3  -3    0.88    0.12
   5  -3   3    0.91    0.10
   5  -3   3    1.13    0.15
  -5   3  -3    0.90    0.08
  -5   3  -3    0.71    0.08
  -6  -3  -3   16.27    0.94
   6  -3   3   17.25    0.74
  -6  -3  -3   16.90    0.83
  -6   3  -3   17.18    0.61
  -6   3  -3   17.18    0.72
  -7  -3  -3    4.17    0.22
   7  -3   3    4.19    0.21
  -7   3  -3    3.96    0.17
  -7   3  -3    3.86    0.21
  -8  -3  -3   16.46    0.82
  -8  -3  -3   17.86    0.82
   8  -4  -3    2.58    0.14
  -8  -4   3    2.52    0.19
  -8  -4   3    2.73    0.18
  -7  -4   3   14.20    0.80
  -7  -4   3   14.05    0.96
   7  -4  -3   13.65    0.62
  -7   4   3   14.71    0.62
  -7   4   3   15.91    1.16
   6  -4  -3   10.15    0.47
  -6  -4   3   10.39    0.51
  -6  -4   3   11.81    0.97
  -6  -4   3   10.90    0.70
  -6  -4   3    9.40    0.51
  -6  -4   3   10.20    0.61
  -6   4   3   10.31    0.46
  -6   4   3   11.31    1.07
  -5  -4   3   11.97    0.90
  -5  -4   3   13.39    0.66
  -5  -4   3   13.97    0.65
  -5  -4   3   13.32    0.77
   5  -4  -3   13.10    0.59
  -5  -4   3   15.64    1.23
   5  -4  -3   13.20    0.59
  -5   4   3   13.34    0.59
  -5   4   3   15.05    1.35
  -5   4   3   13.21    0.59
   4  -4  -3   21.78    0.97
  -4  -4   3   24.36    2.05
   4  -4  -3   23.10    1.18
  -4   4   3   22.32    0.97
  -4   4   3   22.40    0.99
  -4   4   3   24.58    2.20
  -3  -4   3   53.27    4.02
  -3  -4   3   57.67    4.92
   3  -4  -3   57.87    2.32
   3  -4  -3   59.40    2.75
  -3   4   3   57.43    5.21
  -3   4   3   57.91    2.38
  -3   4   3   51.97    3.81
   3   4  -3   56.29    3.22
   2  -4  -3   17.87    0.71
  -2  -4   3   16.24    1.28
  -2   4   3   16.99    0.73
  -2   4   3   16.95    0.85
  -2   4   3   15.98    1.18
   2   4  -3   18.29    0.99
  -2   4   3   16.24    1.63
   1  -4  -3   11.35    0.81
  -1  -4   3   10.72    0.84
  -1   4   3    9.81    1.03
  -1   4   3   11.00    0.55
  -1   4   3   10.33    0.74
   1   4  -3    9.69    0.72
   0  -4   3    2.61    0.29
   0  -4  -3    2.63    0.27
   0   4   3    2.59    0.22
   0   4   3    2.52    0.19
   0   4  -3    2.44    0.21
  -1  -4  -3   26.00    1.72
   1  -4   3   22.33    0.97
   1   4   3   23.00    1.16
  -1   4  -3   23.13    1.00
  -1   4  -3   23.04    1.60
   2  -4   3   31.09    1.31
   2  -4   3   32.72    1.56
   2  -4   3   28.53    2.80
  -2  -4  -3   36.11    2.30
   2   4   3   32.78    1.83
   2   4   3   33.71    1.81
  -2   4  -3   32.64    2.15
  -2   4  -3   31.40    1.35
  -2   4  -3   26.41    2.96
   3  -4   3   62.17    2.58
   3  -4   3   63.93    3.05
   3  -4   3   57.25    4.05
  -3  -4  -3   67.31    4.12
  -3  -4  -3   68.70    4.12
  -3   4  -3   61.39    2.60
  -3   4  -3   63.63    2.65
  -3   4  -3   58.07    5.80
   4  -4   3   20.87    1.49
  -4  -4  -3   23.79    1.22
  -4  -4  -3   21.11    1.07
   4  -4   3   21.87    0.95
  -4  -4  -3   23.56    1.48
  -4  -4  -3   22.38    1.07
  -4   4  -3   22.55    0.95
  -4   4  -3   22.79    0.96
  -5  -4  -3    9.45    0.63
  -5  -4  -3    8.44    0.45
   5  -4   3    9.45    0.42
  -5  -4  -3    9.57    0.45
  -5  -4  -3    9.71    0.58
   5  -4   3    8.09    0.65
  -5   4  -3    9.91    0.35
  -5   4  -3    9.33    0.41
   6  -4   3    1.69    0.21
   6  -4   3    2.09    0.13
  -6  -4  -3    1.98    0.17
  -6   4  -3    1.93    0.11
  -6   4  -3    1.94    0.13
   7  -4   3    1.20    0.09
  -7  -4  -3    0.91    0.10
  -7  -5   3    1.51    0.14
  -7   5   3    1.55    0.10
  -6  -5   3   11.42    0.83
   6  -5  -3   11.94    0.54
  -6  -5   3   12.51    0.70
  -6  -5   3   13.82    1.12
  -6   5   3   13.05    0.54
   5  -5  -3    6.79    0.33
  -5  -5   3    7.89    0.68
  -5  -5   3    7.48    0.44
  -5  -5   3    7.17    0.49
  -5   5   3    7.12    0.33
  -5   5   3    7.05    0.33
  -5   5   3    7.30    0.78
  -4  -5   3   17.98    1.30
  -4  -5   3   19.68    1.75
  -4  -5   3   19.15    0.94
  -4  -5   3   20.23    1.29
   4  -5  -3   19.20    0.83
  -4  -5   3   19.77    0.93
  -4   5   3   19.05    0.83
  -4   5   3   22.01    1.90
  -4   5   3   20.26    0.85
  -3  -5   3   65.46    3.15
  -3  -5   3   60.21    3.25
   3  -5  -3   68.93    2.72
  -3  -5   3   66.97    4.36
  -3  -5   3   66.64    5.78
  -3   5   3   69.92    6.14
  -3   5   3   67.69    2.80
  -2  -5   3   20.17    1.09
  -2  -5   3   22.11    1.03
  -2  -5   3   20.41    1.92
   2  -5  -3   23.11    0.89
  -2   5   3   21.14    2.06
  -2   5   3   22.01    0.92
  -1  -5   3   11.08    0.58
   1  -5  -3   10.22    0.60
  -1  -5   3   11.52    0.59
  -1  -5   3   10.34    1.00
   0  -5  -3   10.64    0.54
   0  -5   3    9.10    0.93
   0  -5   3    9.94    0.56
   0  -5   3    9.82    0.53
   1  -5   3   11.53    1.14
   1  -5   3   12.28    0.64
   1  -5   3   13.34    0.52
  -1  -5  -3   13.58    0.61
   1  -5   3   12.31    0.85
  -1   5  -3   12.43    0.55
  -1   5  -3   10.19    1.24
   2  -5   3    2.70    0.37
  -2  -5  -3    3.07    0.16
   2  -5   3    3.01    0.16
   2  -5   3    3.06    0.28
  -2  -5  -3    3.06    0.23
  -2   5  -3    2.95    0.17
  -2   5  -3    2.53    0.43
  -3  -5  -3   34.86    2.27
   3  -5   3   34.34    2.26
  -3  -5  -3   33.96    1.64
  -3  -5  -3   35.91    1.64
   3  -5   3   32.94    3.05
   3  -5   3   35.54    1.43
  -3   5  -3   31.52    3.23
  -3   5  -3   36.35    1.47
  -4  -5  -3    0.04    0.05
  -4  -5  -3    0.04    0.03
   4  -5   3    0.02    0.09
   4  -5   3   -0.02    0.06
   4  -5   3   -0.06    0.15
  -4   5  -3   -0.01    0.05
  -4   5  -3    0.00    0.05
  -4   5  -3    0.09    0.12
  -5  -5  -3    4.29    0.27
  -5  -5  -3    4.10    0.28
   5  -5   3    3.30    0.43
   5  -5   3    3.67    0.20
   5  -5   3    4.21    0.34
  -5   5  -3    4.07    0.20
  -6   5  -3    9.05    0.39
  -5  -6   3   10.25    0.87
  -5   6   3    9.15    0.42
  -4  -6   3   10.86    0.90
   4  -6  -3    9.52    0.41
  -4  -6   3    9.48    0.66
  -4   6   3    9.62    0.43
   3  -6  -3    3.86    0.27
  -3  -6   3    4.52    0.23
  -3  -6   3    4.27    0.46
  -3  -6   3    4.68    0.22
  -3  -6   3    5.00    0.32
  -3   6   3    4.03    0.52
  -3   6   3    5.42    0.22
  -2  -6   3    1.36    0.08
  -2  -6   3    1.39    0.22
   2  -6  -3    1.40    0.11
  -2  -6   3    1.36    0.14
  -2   6   3    1.44    0.10
   1  -6  -3   50.27    2.48
  -1  -6   3   46.75    2.31
  -1  -6   3   43.44    4.09
   0  -6   3    4.03    0.44
   0  -6   3    4.41    0.25
   0   6  -3    3.48    0.52
   1  -6   3    1.43    0.13
   1  -6   3    1.34    0.11
   1  -6   3    1.31    0.24
  -1  -6  -3    1.42    0.09
  -1   6  -3    1.20    0.27
  -1   6  -3    1.26    0.10
   2  -6   3    0.32    0.06
  -2  -6  -3    0.43    0.07
  -2  -6  -3    0.31    0.03
  -2  -6  -3    0.26    0.03
   2  -6   3    0.37    0.14
  -2   6  -3    0.31    0.16
  -3  -6  -3   13.57    0.82
   3  -6   3   11.03    1.12
  -3   6  -3   12.03    0.53
   4  -6   3   16.49    1.52
  -4   6  -3   17.61    0.72
  -1  -7   3    2.99    0.15
   0  -7  -3   31.56    1.50
   9   0  -4   -0.02    0.04
  -9   0   4   -0.04    0.04
  -9   0   4    0.03    0.04
  -9   0   4    0.08    0.09
  -8   0   4    7.15    0.31
  -8   0   4    6.83    0.62
   8   0  -4    7.39    0.34
  -8   0   4    7.23    0.31
  -7   0   4   43.44    1.74
  -7   0   4   43.52    3.32
   7   0  -4   41.48    2.90
  -7   0   4   43.43    1.63
   7   0  -4   41.04    1.81
  -6   0   4  134.38    9.09
  -6   0   4  117.86    4.78
  -6   0   4  112.98    5.53
   6   0  -4  113.11    7.88
  -6   0   4  121.41   10.78
   6   0  -4  109.44    4.95
  -6   0   4  115.79    5.64
   5   0  -4   15.92    1.08
  -5   0   4   16.51    1.51
  -5   0   4   14.68    0.77
  -5   0   4   15.76    0.79
   4   0  -4    8.28    0.57
  -4   0   4    8.02    0.43
  -4   0   4    8.30    0.41
   3   0  -4   33.26    2.04
  -3   0   4   31.13    1.43
   3   0  -4   27.67    1.47
  -3   0   4   29.14    1.47
   2   0  -4   87.80    5.63
  -2   0   4   83.85    3.95
   2   0  -4   81.98    4.04
   1   0  -4   58.42    2.87
   1   0  -4   67.80    4.01
  -1   0   4   53.76    2.81
   0   0   4  574.00   27.93
   0   0  -4  618.64   31.80
   0   0   4  598.78   28.54
   0   0  -4  619.48   28.54
   0   0   4  582.26   39.88
  -1   0  -4   20.78    0.94
   1   0   4   19.21    0.95
   1   0   4   18.24    1.31
   2   0   4   18.77    1.35
  -2   0  -4   21.70    0.97
  -2   0  -4   19.27    0.82
   3   0   4    3.49    0.28
  -3   0  -4    3.69    0.20
  -4   0  -4   14.82    0.71
   4   0   4   13.58    0.99
   5   0   4   55.25    2.40
   5   0   4   55.87    3.83
  -5   0  -4   58.16    2.32
  -5   0  -4   57.68    2.15
   6   0   4   23.27    1.04
  -6   0  -4   24.48    0.94
  -6   0  -4   24.38    1.00
  -7   0  -4    0.80    0.08
   7   0   4    1.03    0.10
  -7   0  -4    1.10    0.08
  -8   0  -4   14.73    0.58
  -8   0  -4   14.32    0.81
   8   0   4   15.50    0.65
   9  -1  -4    1.54    0.11
   9  -1  -4    1.56    0.11
  -9   1   4    1.52    0.10
   9   1  -4    1.50    0.10
  -9   1   4    1.42    0.09
  -9   1   4    1.30    0.19
   8  -1  -4   13.58    0.57
  -8  -1   4   11.13    1.04
  -8  -1   4   12.46    0.70
   8  -1  -4   12.85    0.56
  -8   1   4   13.51    0.52
   8   1  -4   12.73    0.56
  -8   1   4   13.13    0.54
  -8   1   4   12.74    1.04
   7  -1  -4    3.31    0.19
  -7  -1   4    3.23    0.35
   7  -1  -4    3.32    0.18
  -7  -1   4    3.24    0.15
  -7   1   4    3.47    0.34
  -7   1   4    3.23    0.17
  -7   1   4    3.13    0.17
   7   1  -4    2.95    0.17
  -6  -1   4    4.05    0.19
   6  -1  -4    3.98    0.21
  -6  -1   4    4.30    0.40
  -6   1   4    4.52    0.50
  -6   1   4    4.91    0.40
   6   1  -4    4.43    0.33
  -6   1   4    4.12    0.27
  -6   1   4    3.71    0.20
  -5  -1   4    6.54    0.75
   5  -1  -4    6.67    0.52
   5   1  -4    7.63    0.50
  -5   1   4    7.16    0.39
  -5   1   4    7.24    0.37
  -4  -1   4  103.02    4.94
   4  -1  -4   99.00    4.97
   4  -1  -4  101.37    6.92
   4   1  -4  114.04    6.90
  -4   1   4  100.03    4.85
  -4   1   4  103.77    4.96
   3  -1  -4   18.56    0.94
  -3  -1   4   18.19    0.92
   3  -1  -4   17.97    1.29
  -3   1   4   19.21    0.94
   3   1  -4   20.02    1.28
  -3   1   4   19.79    0.91
   2  -1  -4  100.92    4.55
   2  -1  -4   86.79    6.34
  -2   1   4   80.77    6.34
   2   1  -4  109.54    6.33
  -2   1   4   97.56    4.45
   1  -1  -4  262.06   12.06
   1  -1  -4  246.23   13.43
  -1   1   4  228.65   16.78
   1   1  -4  275.35   16.80
  -1   1   4  247.27   11.74
   0  -1  -4  360.00   16.69
   0  -1   4  381.84   21.79
   0  -1  -4  335.79   18.59
   0  -1   4  346.98   16.64
   0   1   4  310.85   19.74
   0   1  -4  317.12   16.64
   0   1  -4  376.06   23.29
   0   1   4  345.23   23.28
   0   1   4  370.66   16.33
  -1  -1  -4  142.67    6.46
   1  -1   4  133.42    9.03
   1  -1   4  133.82    6.47
  -1   1  -4  131.20    6.46
  -1   1  -4  148.89    9.02
   1   1   4  122.93    9.02
   2  -1   4   14.77    0.75
   2  -1   4   14.84    1.02
  -2  -1  -4   16.08    0.73
   2   1   4   13.87    1.01
  -2   1  -4   15.05    0.74
   3  -1   4   34.57    2.37
   3  -1   4   35.23    1.71
   3   1   4   31.57    2.35
  -3   1  -4   37.60    1.70
  -3   1  -4   36.10    1.43
  -4   1  -4    0.11    0.05
   4   1   4    0.15    0.06
   5  -1   4    5.36    0.28
   5  -1   4    5.71    0.27
  -5  -1  -4    5.80    0.25
  -5  -1  -4    5.94    0.25
  -5   1  -4    5.84    0.23
  -5   1  -4    6.01    0.25
  -5   1  -4    5.71    0.27
  -5   1  -4    5.41    0.32
   5   1   4    5.34    0.43
   5   1   4    5.40    0.26
  -6  -1  -4    5.78    0.35
   6  -1   4    5.66    0.29
   6  -1   4    5.80    0.28
  -6  -1  -4    6.06    0.26
  -6   1  -4    5.84    0.26
  -6   1  -4    5.85    0.28
   6   1   4    5.99    0.28
  -6   1  -4    5.82    0.24
   7  -1   4    3.50    0.20
  -7  -1  -4    3.54    0.17
   7  -1   4    3.72    0.19
  -7  -1  -4    3.30    0.22
   7   1   4    3.47    0.19
  -7   1  -4    3.63    0.18
  -7   1  -4    3.56    0.16
  -7   1  -4    3.58    0.17
   8  -1   4    2.40    0.15
   8  -1   4    2.54    0.14
  -8  -1  -4    2.54    0.13
  -8   1  -4    2.43    0.11
  -8   1  -4    2.38    0.12
   8   1   4    2.44    0.14
  -8   1  -4    2.36    0.12
   9  -2  -4    0.67    0.07
  -9   2   4    0.53    0.06
  -9   2   4    0.44    0.11
  -9   2   4    0.58    0.06
  -8  -2   4   17.95    0.99
   8  -2  -4   18.74    0.78
   8  -2  -4   17.57    0.79
  -8   2   4   17.63    0.76
  -8   2   4   17.94    1.44
  -8   2   4   19.01    0.72
  -7  -2   4   20.30    1.17
   7  -2  -4   20.74    0.92
  -7  -2   4   21.41    1.15
  -7  -2   4   21.35    1.15
   7  -2  -4   21.30    0.93
  -7   2   4   22.76    0.91
  -7   2   4   23.11    2.06
  -7   2   4   21.03    0.84
  -7   2   4   22.96    1.71
  -7   2   4   20.68    0.90
  -6  -2   4   22.72    2.07
   6  -2  -4   24.65    1.12
   6  -2  -4   24.90    1.34
   6  -2  -4   25.13    1.10
  -6   2   4   26.46    1.09
  -6   2   4   30.18    2.47
  -6   2   4   25.95    1.32
   6   2  -4   25.50    1.77
  -6   2   4   30.89    2.06
  -6   2   4   24.91    1.01
   5  -2  -4   40.87    2.04
  -5   2   4   39.10    2.02
   5   2  -4   42.29    2.76
  -5   2   4   37.87    1.96
  -5   2   4   45.75    3.82
   4  -2  -4    1.71    0.16
  -4  -2   4    1.43    0.22
  -4  -2   4    1.20    0.27
  -4   2   4    1.61    0.16
   4   2  -4    1.94    0.12
  -4   2   4    1.95    0.14
  -4   2   4    2.04    0.25
   3  -2  -4    5.53    0.32
  -3   2   4    5.75    0.32
  -3   2   4    5.54    0.30
  -3   2   4    5.18    0.40
   2  -2  -4   16.30    0.97
   2  -2  -4   17.40    0.79
  -2   2   4   15.12    1.07
  -2   2   4   16.25    0.77
   2   2  -4   13.47    1.05
  -2   2   4   15.80    0.79
   1  -2  -4   83.63    3.85
   1  -2  -4   78.59    4.38
   1   2  -4   74.81    5.36
  -1   2   4   83.85    3.78
  -1   2   4   80.95    5.37
   0  -2  -4   66.38    3.20
   0  -2  -4   61.91    3.66
   0  -2   4   69.18    3.21
   0   2   4   66.59    3.15
   0   2  -4   68.68    4.46
   0   2   4   67.98    4.47
   1  -2   4   50.60    2.41
  -1  -2  -4   50.04    2.77
   1   2   4   51.65    2.37
  -1   2  -4   52.97    3.35
   1   2   4   53.22    2.85
   1   2   4   44.43    3.34
  -1   2  -4   47.15    2.40
   2  -2   4   21.56    1.09
   2   2   4   19.64    1.48
   2   2   4   24.00    1.08
   2   2   4   22.92    1.27
  -2   2  -4   21.34    1.08
  -2   2  -4   22.74    0.94
   3  -2   4    6.96    0.38
  -3   2  -4    6.86    0.37
   3   2   4    6.22    0.47
  -3   2  -4    6.94    0.36
   4  -2   4    3.58    0.18
   4  -2   4    3.44    0.24
  -4   2  -4    3.53    0.22
   4   2   4    2.89    0.26
  -5  -2  -4    8.90    0.49
   5  -2   4    8.81    0.41
  -5  -2  -4    9.20    0.36
   5  -2   4    9.22    0.40
  -5   2  -4    8.77    0.34
  -5   2  -4    9.12    0.34
   5   2   4    7.87    0.63
  -5   2  -4    8.63    0.47
  -5   2  -4    8.67    0.39
   6  -2   4   55.98    2.40
  -6  -2  -4   54.23    2.15
  -6  -2  -4   58.33    3.00
   6  -2   4   52.27    2.35
  -6  -2  -4   61.99    3.00
  -6   2  -4   57.75    2.33
  -6   2  -4   55.65    1.93
  -7  -2  -4   21.25    0.85
   7  -2   4   21.57    0.94
   7  -2   4   21.68    0.93
  -7   2  -4   22.80    0.77
  -7   2  -4   22.20    0.91
   8  -2   4    6.59    0.29
  -8  -2  -4    5.91    0.26
  -8   2  -4    6.16    0.23
  -9  -3   4    9.51    0.51
  -9  -3   4    9.54    0.44
  -9  -3   4    8.82    0.44
  -8  -3   4   14.32    0.69
   8  -3  -4   15.01    0.62
  -8  -3   4   13.82    0.78
  -8   3   4   13.94    1.14
   7  -3  -4   18.32    0.79
  -7  -3   4   17.79    0.89
  -7  -3   4   17.47    1.00
  -7   3   4   17.45    0.72
  -7   3   4   18.27    0.77
  -7   3   4   19.23    1.46
  -7   3   4   19.65    1.77
   6  -3  -4    3.52    0.21
  -6  -3   4    4.12    0.40
  -6  -3   4    3.53    0.27
  -6  -3   4    3.78    0.20
  -6   3   4    3.26    0.18
  -6   3   4    3.71    0.20
  -6   3   4    4.61    0.50
   5  -3  -4   10.80    0.47
   5  -3  -4   10.67    0.61
  -5  -3   4   12.43    0.98
  -5   3   4   10.35    0.60
  -5   3   4   10.39    0.47
  -5   3   4   12.35    1.07
  -5   3   4   10.25    0.47
   5   3  -4    9.55    0.63
  -5   3   4    9.41    0.43
   4  -3  -4   20.51    1.00
  -4  -3   4   17.42    1.42
  -4   3   4   19.20    0.99
  -4   3   4   19.42    0.82
   4   3  -4   18.50    1.12
  -4   3   4   19.23    0.95
  -4   3   4   19.98    1.82
   3  -3  -4   43.56    2.04
  -3  -3   4   40.77    2.97
  -3   3   4   43.05    3.85
   3   3  -4   43.85    2.39
  -3   3   4   37.40    2.81
  -3   3   4   41.40    1.99
  -2  -3   4   54.62    3.69
   2  -3  -4   57.62    2.53
   2   3  -4   45.52    3.48
  -2   3   4   50.86    3.51
  -2   3   4   53.93    2.48
  -2   3   4   50.60    4.78
   1  -3  -4   23.10    1.08
  -1   3   4   21.87    1.50
   1   3  -4   20.28    1.48
  -1   3   4   22.87    1.08
   0  -3   4    4.08    0.22
   0  -3  -4    4.53    0.35
   0   3  -4    3.86    0.30
   0   3   4    3.89    0.30
   0   3   4    3.71    0.25
   1  -3   4    3.97    0.25
  -1  -3  -4    4.33    0.37
   1   3   4    4.03    0.28
  -1   3  -4    4.32    0.32
   1   3   4    4.47    0.31
   1   3   4    4.12    0.26
   2  -3   4    7.17    0.39
   2   3   4    6.70    0.40
   2   3   4    6.90    0.43
  -2   3  -4    7.02    0.50
   3  -3   4   15.51    0.78
  -3   3  -4   14.13    0.76
   3   3   4   15.37    0.89
  -3   3  -4   14.59    0.65
   4  -3   4   76.73    3.04
   4  -3   4   77.86    3.58
   4  -3   4   65.46    4.73
  -4   3  -4   70.16    3.55
  -4   3  -4   76.03    2.50
  -4   3  -4   75.57    3.04
  -5  -3  -4   35.24    1.97
  -5  -3  -4   39.41    1.78
   5  -3   4   37.73    1.56
   5  -3   4   33.64    2.42
  -5   3  -4   38.75    1.28
  -5   3  -4   37.81    1.55
   6  -3   4   11.70    0.52
  -6  -3  -4   11.31    0.57
  -6   3  -4   11.58    0.43
  -6   3  -4   11.67    0.50
   7  -3   4   20.84    0.86
  -7  -3  -4   19.75    0.98
  -7   3  -4   20.41    0.71
  -8  -4   4    4.25    0.31
   8  -4  -4    4.41    0.21
  -8  -4   4    4.77    0.27
  -7  -4   4    3.40    0.26
  -7  -4   4    3.66    0.25
   7  -4  -4    3.49    0.18
  -7   4   4    3.65    0.18
  -7   4   4    3.35    0.47
  -7   4   4    3.86    0.35
   6  -4  -4    2.40    0.16
  -6  -4   4    2.45    0.15
  -6  -4   4    2.40    0.22
  -6  -4   4    2.95    0.19
  -6  -4   4    2.90    0.31
  -6  -4   4    2.43    0.14
  -6   4   4    3.08    0.41
  -6   4   4    2.54    0.16
  -5  -4   4    4.32    0.42
  -5  -4   4    3.92    0.20
  -5  -4   4    4.04    0.29
   5  -4  -4    3.89    0.22
  -5   4   4    4.46    0.51
  -5   4   4    3.72    0.20
  -5   4   4    3.90    0.21
   4  -4  -4   43.90    1.97
  -4  -4   4   46.36    4.18
  -4  -4   4   54.37    3.14
   4  -4  -4   47.47    2.36
  -4   4   4   46.14    1.98
  -4   4   4   51.38    4.45
  -4   4   4   45.68    2.02
  -3  -4   4   16.36    1.32
   3  -4  -4   18.08    0.89
   3  -4  -4   17.85    0.73
  -3  -4   4   16.89    1.54
  -3   4   4   18.40    1.67
  -3   4   4   15.65    1.21
  -3   4   4   17.65    0.74
   2  -4  -4    4.19    0.19
  -2  -4   4    4.19    0.42
  -2   4   4    4.02    0.46
  -2   4   4    4.11    0.26
  -2   4   4    4.13    0.19
  -2   4   4    3.78    0.33
   2   4  -4    3.29    0.29
   1  -4  -4   17.38    0.66
  -1  -4   4   15.46    0.65
  -1  -4   4   15.85    1.22
   1   4  -4   14.86    1.08
  -1   4   4   15.17    1.10
  -1   4   4   16.12    0.81
   0  -4   4   46.61    3.49
   0  -4  -4   55.30    3.48
   0  -4   4   47.59    2.00
   0   4  -4   47.14    3.29
   0   4  -4   48.62    2.07
   0   4   4   48.13    3.30
   0   4   4   49.81    2.35
   1  -4   4   13.94    0.61
   1  -4   4   12.06    1.30
  -1  -4  -4   16.75    1.10
  -1   4  -4   14.46    0.63
   1   4   4   14.32    1.00
  -1   4  -4   15.44    1.00
   2  -4   4    8.88    0.91
   2  -4   4    9.93    0.43
   2  -4   4   10.49    0.52
   2  -4   4    8.57    0.68
  -2   4  -4    9.93    0.43
  -2   4  -4   10.72    0.69
  -2   4  -4    8.20    0.98
   3  -4   4   49.39    3.42
  -3  -4  -4   55.47    3.48
  -3  -4  -4   54.38    2.52
  -3  -4  -4   55.26    2.80
   3  -4   4   53.41    2.18
  -3   4  -4   48.49    4.89
  -3   4  -4   52.03    2.19
  -3   4  -4   54.52    2.24
  -4  -4  -4    7.27    0.50
  -4  -4  -4    8.71    0.54
   4  -4   4    6.57    0.54
   4  -4   4    7.08    0.34
  -4  -4  -4    7.27    0.36
  -4   4  -4    7.27    0.34
  -4   4  -4    7.12    0.34
   5  -4   4    6.18    0.51
  -5  -4  -4    6.10    0.34
  -5  -4  -4    7.15    0.34
  -5  -4  -4    7.16    0.48
   5  -4   4    7.13    0.32
  -5   4  -4    6.92    0.32
  -5   4  -4    7.51    0.27
   6  -4   4    4.79    0.37
   6  -4   4    4.84    0.23
  -6  -4  -4    4.65    0.34
  -6   4  -4    4.66    0.23
  -6   4  -4    4.62    0.19
  -7  -5   4   12.28    0.66
  -7   5   4   11.80    0.51
   6  -5  -4    8.69    0.40
  -6  -5   4    8.53    0.61
  -6  -5   4    9.73    0.83
  -6  -5   4    8.98    0.60
  -6  -5   4    9.46    0.52
  -6   5   4    9.36    0.40
  -5  -5   4   13.86    1.17
   5  -5  -4   12.27    0.56
  -5  -5   4   12.58    0.87
  -5  -5   4   12.71    0.73
  -5   5   4   12.69    0.56
  -5   5   4   13.66    1.28
  -5   5   4   12.92    0.56
  -4  -5   4  107.84    5.02
  -4  -5   4  104.64    9.18
   4  -5  -4  102.93    4.32
  -4  -5   4  104.97    5.03
  -4   5   4  105.25    4.36
  -4   5   4  110.56    9.72
  -4   5   4  106.28    4.45
   3  -5  -4   14.70    0.61
  -3  -5   4   15.76    0.95
  -3  -5   4   13.67    1.30
  -3  -5   4   12.78    0.74
  -3  -5   4   14.82    0.69
  -3   5   4   14.19    0.62
  -3   5   4   13.94    1.40
   2  -5  -4    7.38    0.31
  -2  -5   4    6.29    0.68
  -2  -5   4    6.67    0.40
  -2   5   4    7.34    0.32
  -2   5   4    7.55    0.76
  -1  -5   4   22.47    2.19
  -1  -5   4   24.08    1.25
   1  -5  -4   25.29    1.33
  -1  -5   4   25.87    1.33
  -1   5   4   25.87    1.06
   0  -5   4   31.64    3.01
   0  -5  -4   37.22    1.82
   0  -5   4   33.64    1.70
   0  -5   4   34.39    1.84
   0   5  -4   33.70    1.46
   1  -5   4    4.42    0.50
   1  -5   4    5.06    0.22
   1  -5   4    4.67    0.38
   1  -5   4    4.98    0.29
  -1   5  -4    3.82    0.59
  -1   5  -4    4.86    0.24
  -2  -5  -4   13.18    0.61
   2  -5   4   13.19    0.54
   2  -5   4   12.78    0.87
   2  -5   4   11.86    1.16
  -2  -5  -4   12.66    0.85
  -2   5  -4   12.53    0.55
  -2   5  -4   10.49    1.24
  -3  -5  -4    4.69    0.24
   3  -5   4    4.89    0.25
  -3  -5  -4    4.93    0.35
   3  -5   4    5.03    0.40
   3  -5   4    4.76    0.54
  -3  -5  -4    5.23    0.25
  -3   5  -4    5.17    0.24
  -3   5  -4    5.14    0.25
  -3   5  -4    4.66    0.56
  -4  -5  -4    4.19    0.29
   4  -5   4    3.64    0.20
   4  -5   4    3.68    0.45
   4  -5   4    4.16    0.34
  -4   5  -4    3.95    0.20
  -4   5  -4    3.89    0.20
   5  -5   4   18.96    1.17
  -5  -5  -4   18.62    1.16
   5  -5   4   16.61    1.57
  -5  -5  -4   14.92    1.15
   5  -5   4   18.11    0.74
  -5   5  -4   18.32    0.74
  -5  -6   4    4.86    0.30
  -5  -6   4    4.29    0.31
  -5  -6   4    4.65    0.43
  -5   6   4    4.33    0.21
  -4  -6   4   19.57    1.68
  -4   6   4   18.51    0.81
  -3  -6   4   29.61    2.66
  -3  -6   4   31.25    1.44
  -3  -6   4   31.54    1.44
  -3  -6   4   30.07    1.50
   3  -6  -4   27.70    1.62
  -3   6   4   31.51    1.28
   2  -6  -4   72.11    3.92
  -2  -6   4   74.81    3.61
  -2  -6   4   73.97    6.42
  -2  -6   4   76.58    3.51
  -2   6   4   72.20    3.10
  -1  -6   4   12.53    0.60
  -1  -6   4   11.84    1.04
   1   6  -4    9.28    1.14
   0  -6   4   18.29    0.88
   0  -6   4   16.32    0.84
   0  -6   4   16.28    1.48
   0  -6   4   18.11    0.88
   0   6  -4   14.51    0.71
   0   6  -4   14.25    1.60
   1  -6   4    0.12    0.05
  -1  -6  -4    0.14    0.04
   1  -6   4    0.19    0.13
   1  -6   4    0.16    0.06
  -1   6  -4    0.08    0.15
  -1   6  -4    0.07    0.05
   2  -6   4    2.81    0.34
   2  -6   4    2.76    0.19
  -2  -6  -4    2.78    0.14
  -2  -6  -4    2.95    0.15
  -2   6  -4    2.62    0.15
  -3  -6  -4   13.38    0.85
   3  -6   4   12.31    1.16
  -3   6  -4   12.49    0.55
  -4  -6  -4   28.49    1.79
  -4  -6  -4   26.14    1.79
  -1  -7   4   14.74    0.70
   0  -7  -4    3.31    0.17
  -9   0   5    0.73    0.14
  -9   0   5    0.81    0.07
  -9   0   5    0.58    0.08
   9   0  -5    0.73    0.07
  -8   0   5   18.01    1.51
   8   0  -5   19.14    0.82
  -8   0   5   19.61    0.78
  -8   0   5   18.86    0.74
  -7   0   5   78.86    3.03
   7   0  -5   77.74    3.38
  -7   0   5   81.61    6.22
  -7   0   5   83.10    3.27
   6   0  -5    4.65    0.23
   6   0  -5    5.04    0.39
  -6   0   5    4.79    0.29
  -6   0   5    4.74    0.22
  -6   0   5    4.98    0.58
  -6   0   5    4.93    0.28
  -6   0   5    5.21    0.44
  -5   0   5   42.66    2.10
  -5   0   5   45.27    4.09
  -5   0   5   44.30    2.14
   5   0  -5   44.64    2.98
  -4   0   5   31.39    1.48
  -4   0   5   30.50    1.52
   4   0  -5   31.73    2.10
  -3   0   5   50.29    2.40
   3   0  -5   53.08    3.34
   3   0  -5   46.07    2.40
  -3   0   5   49.89    2.34
  -2   0   5   13.62    0.65
   2   0  -5   14.69    0.92
   2   0  -5   12.30    0.67
   1   0  -5   16.32    0.95
   1   0  -5   14.12    0.69
  -1   0   5   12.16    0.96
  -1   0   5   13.62    0.67
   0   0   5   92.49    4.47
   0   0   5   92.56    6.23
   0   0   5   90.07    4.36
   0   0  -5   98.31    4.46
   1   0   5   62.85    3.16
  -1   0  -5   69.80    3.15
   1   0   5   64.39    4.39
   2   0   5    6.16    0.46
  -2   0  -5    6.72    0.34
  -3   0  -5   52.02    2.37
   3   0   5   46.30    3.31
   4   0   5    5.66    0.27
   4   0   5    5.52    0.44
  -4   0  -5    6.01    0.31
  -4   0  -5    5.87    0.26
  -5   0  -5   34.29    1.21
   5   0   5   32.91    1.44
  -5   0  -5   34.64    1.29
   5   0   5   32.58    2.30
  -5   0  -5   33.02    1.39
  -5   0  -5   34.71    1.16
   6   0   5    0.11    0.05
  -6   0  -5    0.04    0.05
  -6   0  -5    0.17    0.05
  -6   0  -5    0.09    0.05
   7   0   5    1.09    0.10
  -7   0  -5    1.04    0.07
  -7   0  -5    0.99    0.08
  -8   0  -5    0.23    0.04
  -8   0  -5    0.18    0.04
  -9  -1   5   15.76    0.84
  -9  -1   5   15.42    0.84
   9  -1  -5   16.60    0.68
   9  -1  -5   16.29    0.69
  -9   1   5   13.94    1.25
  -9   1   5   15.10    0.65
   9   1  -5   16.09    0.68
  -9   1   5   17.17    0.62
  -8  -1   5    5.24    0.52
   8  -1  -5    5.93    0.28
  -8  -1   5    5.73    0.33
   8  -1  -5    5.87    0.28
  -8   1   5    5.74    0.26
  -8   1   5    5.49    0.51
   8   1  -5    5.72    0.27
  -8   1   5    6.10    0.26
   7  -1  -5   39.14    1.65
   7  -1  -5   37.66    1.62
  -7  -1   5   38.36    1.58
  -7  -1   5   39.12    3.05
  -7  -1   5   37.03    2.05
  -7   1   5   39.15    1.49
  -7   1   5   40.37    3.63
  -7   1   5   38.49    1.60
   7   1  -5   38.09    1.65
  -7   1   5   41.03    3.04
  -6  -1   5    1.12    0.19
   6  -1  -5    0.91    0.09
  -6  -1   5    0.81    0.25
  -6  -1   5    1.14    0.07
  -6   1   5    1.00    0.16
   6   1  -5    0.92    0.13
  -6   1   5    1.11    0.13
  -6   1   5    0.81    0.20
   6   1  -5    0.68    0.07
  -6   1   5    0.91    0.08
  -5  -1   5   20.60    2.18
  -5   1   5   22.68    1.15
  -5   1   5   22.86    1.11
  -5   1   5   25.67    2.16
   5   1  -5   22.67    1.55
   4  -1  -5   83.62    4.10
  -4  -1   5   84.69    4.07
   4  -1  -5   79.62    5.70
  -4   1   5   85.77    4.10
   4   1  -5   93.49    5.68
  -4   1   5   83.82    4.00
  -3  -1   5   94.94    4.62
   3  -1  -5   93.39    4.64
   3   1  -5  109.06    6.45
  -3   1   5   92.52    4.64
  -3   1   5   93.42    4.53
   2  -1  -5   87.63    4.21
   2   1  -5   92.74    5.85
  -2   1   5   82.85    4.11
   1  -1  -5  115.43    5.21
   1  -1  -5  101.19    5.87
  -1   1   5  109.28    5.11
   1   1  -5  101.06    5.20
   1   1  -5  122.08    7.27
  -1   1   5  105.10    7.28
   0  -1  -5   13.80    0.67
   0  -1   5   12.91    0.68
   0  -1  -5   12.90    0.80
   0   1   5   13.15    0.67
   0   1  -5   12.64    0.67
   0   1   5   13.90    0.93
   0   1  -5   15.41    0.92
  -1  -1  -5   17.18    0.83
   1  -1   5   16.81    0.84
   1   1   5   15.87    1.15
   1   1   5   17.59    0.83
  -1   1  -5   16.70    0.83
   1   1   5   17.39    1.15
  -2  -1  -5    5.45    0.27
   2  -1   5    4.55    0.29
   2   1   5    4.59    0.36
  -2   1  -5    5.20    0.27
   3  -1   5   14.57    0.75
   3   1   5   13.65    1.00
  -3   1  -5   15.11    0.73
  -3   1  -5   14.85    0.66
  -4  -1  -5    9.02    0.38
   4  -1   5    8.78    0.39
   4   1   5    8.31    0.63
   4   1   5    8.86    0.39
  -4   1  -5    8.59    0.39
  -4   1  -5    8.95    0.46
  -5  -1  -5   13.09    0.55
   5  -1   5   12.32    0.58
  -5  -1  -5   13.20    0.53
   5  -1   5   13.58    0.58
  -5   1  -5   13.25    0.49
   5   1   5   11.95    0.93
  -5   1  -5   13.40    0.67
  -5   1  -5   13.53    0.53
  -5   1  -5   13.39    0.48
  -5   1  -5   13.83    0.57
   5   1   5   12.75    0.58
   6  -1   5    0.23    0.06
  -6  -1  -5    0.35    0.06
   6  -1   5    0.34    0.06
  -6  -1  -5    0.35    0.06
  -6   1  -5    0.45    0.07
  -6   1  -5    0.35    0.07
  -6   1  -5    0.40    0.07
   6   1   5    0.34    0.05
  -6   1  -5    0.57    0.07
   7  -1   5    5.49    0.27
   7  -1   5    5.29    0.27
  -7  -1  -5    5.74    0.25
  -7  -1  -5    5.59    0.32
  -7   1  -5    5.91    0.25
  -7   1  -5    5.10    0.24
   7   1   5    5.76    0.27
  -7   1  -5    5.62    0.23
  -8  -1  -5    1.12    0.08
   9  -2  -5   10.47    0.42
  -9   2   5    8.56    0.77
  -9   2   5    9.42    0.40
   8  -2  -5    1.93    0.14
   8  -2  -5    1.91    0.13
  -8  -2   5    1.97    0.18
  -8   2   5    1.99    0.13
  -8   2   5    1.73    0.25
  -8   2   5    1.94    0.12
  -7  -2   5    4.39    0.32
   7  -2  -5    4.78    0.25
  -7  -2   5    4.81    0.28
   7  -2  -5    4.95    0.25
  -7   2   5    4.64    0.24
  -7   2   5    5.13    0.23
  -7   2   5    5.07    0.45
  -7   2   5    4.91    0.23
  -7   2   5    5.43    0.59
   6  -2  -5   14.92    0.67
   6  -2  -5   14.45    0.68
  -6  -2   5   14.07    1.26
   6  -2  -5   14.67    0.84
  -6   2   5   17.54    1.24
  -6   2   5   14.78    0.62
  -6   2   5   15.86    0.66
   6   2  -5   15.02    1.07
  -6   2   5   17.95    1.52
  -6   2   5   15.52    0.82
   5  -2  -5    7.93    0.49
  -5   2   5    9.78    0.88
  -5   2   5    7.92    0.45
   5   2  -5    9.06    0.60
  -5   2   5    7.93    0.48
  -4  -2   5    9.74    0.83
   4  -2  -5   11.28    0.59
  -4   2   5   10.26    0.55
  -4   2   5   11.98    1.07
   4   2  -5   11.86    0.74
  -4   2   5   10.03    0.58
   3  -2  -5   95.51    4.51
   3  -2  -5   90.45    5.15
   3   2  -5   96.67    6.24
  -3   2   5   90.16    4.40
  -3   2   5   95.06    4.50
   2  -2  -5   62.58    2.82
   2  -2  -5   58.82    3.25
  -2   2   5   56.79    2.82
  -2   2   5   59.66    2.75
  -2   2   5   52.71    3.91
   2   2  -5   59.39    3.89
   1  -2  -5  123.97    5.55
   1  -2  -5  109.66    6.28
   1   2  -5  117.08    7.73
  -1   2   5  113.65    7.74
  -1   2   5  115.18    5.44
   0  -2  -5  502.52   28.34
   0  -2  -5  488.53   25.38
   0  -2   5  557.04   25.37
   0   2   5  553.82   35.45
   0   2   5  529.58   24.90
   0   2  -5  560.51   35.47
  -1  -2  -5   60.08    3.53
   1  -2   5   63.47    3.09
   1   2   5   65.14    3.04
   1   2   5   65.29    4.30
  -1   2  -5   72.26    4.29
  -1   2  -5   58.52    3.08
   2  -2   5    7.27    0.41
  -2   2  -5    7.16    0.39
  -2   2  -5    7.55    0.39
   2   2   5    8.11    0.41
   2   2   5    7.10    0.52
   3  -2   5    2.66    0.20
   3   2   5    2.82    0.21
   3   2   5    2.44    0.22
  -3   2  -5    2.76    0.18
   4  -2   5    8.67    0.49
   4  -2   5    7.48    0.62
   4  -2   5    8.64    0.39
   4  -2   5    8.62    0.39
  -4  -2  -5    8.91    0.35
  -4   2  -5    8.72    0.38
   4   2   5    8.01    0.62
  -4   2  -5    8.47    0.46
  -4   2  -5    9.14    0.33
  -5  -2  -5   28.47    1.52
  -5  -2  -5   28.59    1.09
   5  -2   5   27.26    1.20
   5  -2   5   28.67    1.22
  -5   2  -5   28.87    0.99
  -5   2  -5   29.16    1.03
  -5   2  -5   27.90    1.19
  -6  -2  -5   19.64    0.98
   6  -2   5   17.09    0.79
   6  -2   5   17.85    0.80
  -6  -2  -5   20.13    0.98
  -6  -2  -5   18.29    0.72
  -6   2  -5   17.81    0.65
  -6   2  -5   17.49    0.78
   7  -2   5   10.34    0.46
  -7  -2  -5    9.89    0.41
  -7   2  -5   10.59    0.38
  -7   2  -5   10.42    0.44
  -9  -3   5   19.58    1.01
  -9  -3   5   18.82    0.90
  -9  -3   5   18.55    0.90
   8  -3  -5    1.10    0.10
  -8  -3   5    0.98    0.08
  -8  -3   5    0.87    0.11
  -8   3   5    0.96    0.16
   7  -3  -5   38.65    1.59
  -7  -3   5   36.86    1.83
  -7  -3   5   36.23    2.03
  -7   3   5   38.56    1.58
  -7   3   5   39.25    3.56
  -7   3   5   39.57    2.98
  -6  -3   5   31.80    2.53
  -6  -3   5   28.06    1.38
  -6  -3   5   25.65    1.54
   6  -3  -5   26.85    1.21
  -6   3   5   27.17    1.20
  -6   3   5   30.28    2.26
  -6   3   5   31.46    2.72
   5  -3  -5   99.92    4.32
  -5  -3   5  116.01    9.11
   5  -3  -5  102.64    5.10
  -5   3   5  117.60    9.64
  -5   3   5   96.85    5.08
  -5   3   5  104.03    4.32
  -5   3   5   99.36    4.41
  -4  -3   5   66.53    5.20
   4  -3  -5   75.73    3.59
  -4   3   5   70.49    3.50
  -4   3   5   81.86    6.79
  -4   3   5   74.72    3.10
  -3  -3   5  167.30   12.03
   3  -3  -5  189.09    8.28
  -3   3   5  174.48    8.09
   3   3  -5  161.99   11.50
  -3   3   5  155.22   11.53
  -3   3   5  188.96   15.74
   2  -3  -5   23.59    1.09
   2   3  -5   20.65    1.46
  -2   3   5   22.70    2.03
  -2   3   5   21.68    1.06
  -2   3   5   19.88    1.49
   1  -3  -5   12.68    0.62
  -1   3   5   12.47    0.63
   1   3  -5   11.80    0.83
  -1   3   5   11.86    0.85
   0  -3   5   15.82    0.75
   0   3   5   14.39    0.76
   0   3  -5   14.76    1.02
   0   3   5   14.60    1.03
   1  -3   5    0.15    0.06
   1   3   5    0.13    0.06
  -1   3  -5    0.11    0.05
   1   3   5    0.06    0.07
   2  -3   5   31.57    1.57
   2   3   5   31.82    1.56
   2   3   5   32.42    2.15
  -2   3  -5   31.28    1.35
   3  -3   5   73.73    2.92
   3  -3   5   76.13    3.43
   3  -3   5   63.62    4.54
  -3   3  -5   72.17    2.91
   3   3   5   68.00    4.73
  -3   3  -5   72.40    2.98
  -3   3  -5   68.56    3.41
   4  -3   5   18.79    0.81
   4  -3   5   17.96    1.26
  -4   3  -5   19.12    0.80
  -4   3  -5   19.19    0.67
   5  -3   5   17.28    1.22
   5  -3   5   18.68    0.79
  -5   3  -5   18.45    0.65
  -5   3  -5   18.63    0.78
  -6  -3  -5    5.24    0.28
   6  -3   5    5.40    0.27
  -6   3  -5    5.50    0.25
  -6   3  -5    5.39    0.22
  -7  -3  -5    9.65    0.49
   7  -3   5   10.46    0.44
  -7   3  -5    9.97    0.36
  -8  -4   5    6.83    0.38
  -8  -4   5    6.29    0.44
  -7  -4   5    2.52    0.19
  -7  -4   5    2.47    0.21
  -7  -4   5    2.53    0.14
   7  -4  -5    2.43    0.14
  -7  -4   5    2.63    0.14
  -7   4   5    2.58    0.28
  -7   4   5    2.78    0.15
   6  -4  -5   55.47    2.52
  -6  -4   5   57.74    2.90
  -6  -4   5   64.20    5.31
  -6  -4   5   65.52    4.01
  -6  -4   5   57.76    3.22
  -6   4   5   65.27    5.65
  -6   4   5   60.72    2.52
  -6   4   5   62.68    4.74
  -5  -4   5   12.06    1.08
  -5  -4   5   12.02    0.57
   5  -4  -5   11.13    0.52
  -5  -4   5   11.46    0.68
  -5   4   5   11.59    0.52
  -5   4   5   13.24    1.20
  -5   4   5   11.49    0.52
  -4  -4   5   36.83    3.44
   4  -4  -5   38.57    1.63
  -4  -4   5   39.61    1.87
  -4   4   5   38.42    1.64
  -4   4   5   39.77    1.67
  -4   4   5   43.48    3.68
  -3  -4   5   69.80    3.67
   3  -4  -5   78.88    3.08
  -3  -4   5   73.07    6.53
   3  -4  -5   80.71    3.65
  -3  -4   5   70.06    5.33
  -3   4   5   65.86    5.06
  -3   4   5   86.49    6.92
  -3   4   5   77.50    3.16
   2  -4  -5    1.72    0.10
  -2  -4   5    1.35    0.22
  -2  -4   5    2.02    0.30
  -2   4   5    1.62    0.10
   2   4  -5    1.39    0.14
  -2   4   5    1.39    0.19
   1  -4  -5   45.63    1.71
  -1  -4   5   42.70    3.03
  -1  -4   5   41.88    1.71
  -1  -4   5   38.59    3.66
  -1   4   5   43.39    1.77
  -1   4   5   39.94    2.85
   1   4  -5   41.35    2.82
   0  -4   5    5.85    0.27
   0  -4   5    5.98    0.54
   0  -4   5    4.99    0.57
   0   4  -5    6.17    0.43
   0   4   5    6.17    0.45
   0   4  -5    6.02    0.28
   1  -4   5    0.86    0.08
   1  -4   5    0.79    0.19
   1  -4   5    0.73    0.14
   1  -4   5    0.76    0.10
  -1   4  -5    0.87    0.08
   1   4   5    0.81    0.12
  -1   4  -5    0.75    0.11
   2  -4   5   37.67    1.49
   2  -4   5   39.86    1.76
   2  -4   5   35.04    2.34
   2  -4   5   32.77    3.15
  -2   4  -5   37.98    1.53
  -2   4  -5   31.08    3.34
  -2   4  -5   36.06    1.50
  -3  -4  -5   15.21    0.72
   3  -4   5   13.48    1.00
   3  -4   5   15.08    0.64
  -3   4  -5   14.43    0.64
  -3   4  -5   14.89    0.64
   4  -4   5   24.09    1.02
  -4  -4  -5   25.51    1.16
   4  -4   5   22.44    1.59
  -4   4  -5   23.83    1.01
  -5  -4  -5   14.74    0.69
   5  -4   5   14.20    0.61
   5  -4   5   13.47    0.97
  -5   4  -5   14.68    0.61
  -5   4  -5   13.84    0.51
   6  -4   5    8.42    0.88
   6  -4   5   10.10    0.42
  -6   4  -5    9.89    0.35
  -6   4  -5    9.97    0.41
  -7  -5   5    3.69    0.28
  -7  -5   5    4.74    0.26
  -7  -5   5    4.24    0.28
  -7   5   5    4.29    0.19
  -6  -5   5    4.17    0.28
   6  -5  -5    3.85    0.20
  -6  -5   5    3.86    0.27
  -6  -5   5    4.42    0.40
  -6   5   5    3.99    0.37
  -5  -5   5    7.53    0.48
  -5  -5   5    8.09    0.39
   5  -5  -5    7.82    0.36
  -5  -5   5    8.30    0.40
  -5  -5   5    8.11    0.75
  -5   5   5    8.28    0.37
  -5   5   5    7.99    0.36
  -5   5   5    9.12    0.86
   4  -5  -5   33.06    1.38
  -4  -5   5   33.40    1.59
  -4  -5   5   33.41    2.93
  -4   5   5   33.65    1.41
  -3  -5   5   35.26    3.24
   3  -5  -5   38.43    1.52
  -3  -5   5   34.76    1.83
  -3  -5   5   36.68    1.76
  -3   5   5   37.60    1.57
  -3   5   5   39.26    3.45
  -2  -5   5   71.47    3.54
  -2  -5   5   65.97    6.28
   2  -5  -5   76.58    2.94
  -2   5   5   75.18    3.04
  -1  -5   5   32.39    1.65
   1  -5  -5   31.63    1.65
  -1  -5   5   27.69    2.70
  -1  -5   5   29.94    1.53
  -1   5   5   31.55    1.30
   0  -5   5   31.93    3.16
   0  -5  -5   37.68    1.91
   0  -5   5   38.26    1.47
   0  -5   5   35.63    1.79
   0   5  -5   36.05    1.53
   1  -5   5   65.02    5.96
   1  -5   5   67.95    4.42
   1  -5   5   72.65    3.35
   1  -5   5   74.02    2.79
  -1   5  -5   62.10    6.31
  -1   5  -5   68.54    2.89
   2  -5   5    1.21    0.23
   2  -5   5    1.27    0.17
  -2  -5  -5    1.23    0.10
   2  -5   5    1.39    0.11
  -2   5  -5    1.30    0.11
  -2   5  -5    1.10    0.25
   3  -5   5    7.39    0.35
  -3  -5  -5    7.69    0.38
   3  -5   5    7.38    0.74
   3  -5   5    7.30    0.56
  -3  -5  -5    7.73    0.53
  -3   5  -5    7.59    0.35
  -3   5  -5    7.99    0.35
  -4  -5  -5    7.32    0.48
   4  -5   5    6.43    0.67
   4  -5   5    6.64    0.51
   4  -5   5    6.97    0.32
  -4   5  -5    7.00    0.31
  -4   5  -5    7.02    0.32
   5  -5   5    1.23    0.15
   5  -5   5    1.09    0.19
  -5  -5  -5    1.26    0.11
  -5   5  -5    1.17    0.10
  -5  -6   5    4.71    0.35
  -5  -6   5    5.68    0.35
  -4  -6   5   21.63    1.87
  -4   6   5   20.82    0.90
  -3  -6   5    3.49    0.16
  -3  -6   5    3.16    0.34
   3  -6  -5    2.87    0.20
  -3  -6   5    3.07    0.21
  -3   6   5    3.18    0.16
  -2  -6   5   12.43    1.12
   2  -6  -5   11.95    0.67
  -2  -6   5   12.71    0.60
  -2  -6   5   12.93    0.65
  -2   6   5   12.05    0.53
  -1  -6   5    4.05    0.25
  -1  -6   5    3.94    0.41
   1   6  -5    3.27    0.50
  -1   6   5    3.84    0.18
   0  -6   5    6.31    0.59
   0  -6   5    6.48    0.33
   0  -6   5    6.54    0.33
   0  -6   5    5.65    0.34
   0   6  -5    4.67    0.66
   0   6  -5    5.38    0.28
   1  -6   5    1.00    0.09
  -1  -6  -5    1.10    0.08
   1  -6   5    1.03    0.20
   1  -6   5    0.72    0.09
  -1   6  -5    1.06    0.09
   2  -6   5    2.56    0.26
   2  -6   5    2.42    0.17
   2  -6   5    2.58    0.31
  -2  -6  -5    2.72    0.13
  -2  -6  -5    2.34    0.13
  -2   6  -5    2.55    0.14
   3  -6   5    6.56    0.62
  -3  -6  -5    6.46    0.44
  -9   0   6    2.29    0.28
  -9   0   6    2.90    0.14
   9   0  -6    3.05    0.15
   8   0  -6    0.02    0.04
  -8   0   6    0.07    0.05
  -8   0   6   -0.09    0.11
  -8   0   6    0.06    0.04
  -7   0   6    2.21    0.14
  -7   0   6    2.29    0.28
   7   0  -6    2.30    0.14
  -7   0   6    2.18    0.41
  -7   0   6    2.49    0.13
  -6   0   6    3.71    0.18
   6   0  -6    3.49    0.31
   6   0  -6    3.57    0.19
  -6   0   6    3.88    0.49
  -6   0   6    3.71    0.23
  -6   0   6    3.74    0.36
   5   0  -6    0.42    0.08
  -5   0   6    0.31    0.16
  -5   0   6    0.53    0.08
   4   0  -6   20.59    1.39
  -4   0   6   20.20    1.02
  -4   0   6   20.57    1.93
   3   0  -6    0.54    0.08
   3   0  -6    0.36    0.07
   2   0  -6    9.71    0.52
   2   0  -6   10.62    0.70
   1   0  -6   43.95    2.15
   1   0  -6   44.93    2.99
   0   0   6   24.15    1.68
   0   0  -6   25.56    1.21
  -1   0  -6    0.44    0.06
   1   0   6    0.42    0.08
   2   0   6    0.03    0.06
  -2   0  -6    0.06    0.05
  -3   0  -6    3.38    0.20
   3   0   6    3.05    0.27
  -4   0  -6    1.17    0.10
   4   0   6    0.88    0.09
   4   0   6    1.01    0.15
  -4   0  -6    1.00    0.10
  -5   0  -6   35.84    1.29
  -5   0  -6   36.68    1.49
  -5   0  -6   35.13    1.24
  -5   0  -6   37.20    1.38
   5   0   6   35.51    1.54
  -6   0  -6    4.24    0.20
  -6   0  -6    4.26    0.20
   6   0   6    4.27    0.22
  -7   0  -6   11.10    0.46
   7   0   6   11.75    0.51
   9  -1  -6    3.58    0.19
  -9  -1   6    3.50    0.21
   9  -1  -6    3.77    0.19
  -9  -1   6    3.70    0.21
   9   1  -6    3.89    0.19
  -9   1   6    3.72    0.17
  -9   1   6    3.46    0.35
  -8  -1   6    0.66    0.08
  -8  -1   6    0.63    0.10
   8  -1  -6    0.60    0.07
  -8  -1   6    0.53    0.15
   8  -1  -6    0.79    0.08
  -8   1   6    0.60    0.07
   8   1  -6    0.58    0.06
  -8   1   6    0.68    0.08
  -8   1   6    0.50    0.15
  -7  -1   6   44.87    1.87
  -7  -1   6   44.76    3.58
   7  -1  -6   46.86    1.95
   7  -1  -6   46.46    1.91
  -7  -1   6   42.80    2.42
  -7   1   6   46.35    1.88
  -7   1   6   47.94    1.75
  -7   1   6   45.64    3.57
  -7   1   6   47.64    4.27
   7   1  -6   45.61    1.95
  -6  -1   6    5.75    0.53
  -6  -1   6    5.36    0.69
  -6  -1   6    5.72    0.26
   6  -1  -6    5.58    0.28
   6  -1  -6    5.71    0.28
   6   1  -6    5.48    0.27
  -6   1   6    6.64    0.67
  -6   1   6    6.33    0.36
  -6   1   6    5.83    0.27
  -6   1   6    5.79    0.26
  -6   1   6    6.48    0.51
   6   1  -6    5.81    0.44
  -5  -1   6   16.34    1.72
  -5   1   6   17.53    0.87
  -5   1   6   17.61    0.90
  -5   1   6   19.64    1.70
   5   1  -6   17.37    1.21
  -4  -1   6   10.89    1.15
  -4  -1   6   11.45    0.58
   4  -1  -6   11.77    0.61
  -4   1   6   10.92    0.61
   4   1  -6   12.30    0.79
  -4   1   6   11.13    0.57
  -4   1   6   12.42    1.12
   3  -1  -6   27.99    1.43
  -3   1   6   27.58    1.38
   3   1  -6   32.30    1.95
  -3   1   6   27.68    1.42
   2  -1  -6  136.81    5.98
   2  -1  -6  122.12    6.74
  -2   1   6  128.43    5.85
  -2   1   6  112.70    8.34
   1  -1  -6   27.95    1.39
   1  -1  -6   28.06    1.61
  -1   1   6   27.21    1.93
   1   1  -6   32.75    1.92
  -1   1   6   27.75    1.36
   1   1  -6   27.17    1.38
   0  -1   6  103.78    4.96
   0  -1  -6  105.70    4.95
   0   1  -6  100.79    4.95
   0   1   6  102.16    4.86
   0   1  -6  103.76    6.90
   0   1   6  105.12    6.92
  -1  -1  -6  163.74    7.60
   1  -1   6  158.36    7.61
   1   1   6  163.17   10.63
  -1   1  -6  157.29    7.60
   1   1   6  153.96    7.45
  -2  -1  -6   22.86    1.05
   2  -1   6   21.47    1.07
   2   1   6   21.57    1.05
   2   1   6   20.25    1.46
  -2   1  -6   20.78    1.05
   3  -1   6   10.55    0.57
   3   1   6   10.08    0.75
  -3   1  -6   11.28    0.55
  -4  -1  -6   16.22    0.62
   4  -1   6   15.41    0.68
  -4  -1  -6   15.37    0.66
   4  -1   6   15.76    0.69
  -4   1  -6   15.61    0.79
  -4   1  -6   16.07    0.67
   4   1   6   15.31    1.10
  -4   1  -6   16.22    0.56
   4   1   6   15.62    0.68
   5  -1   6    5.74    0.27
  -5  -1  -6    5.12    0.24
   5  -1   6    5.40    0.27
  -5  -1  -6    5.14    0.24
  -5   1  -6    5.58    0.24
  -5   1  -6    5.37    0.26
  -5   1  -6    5.36    0.23
  -5   1  -6    5.57    0.23
   5   1   6    5.35    0.26
  -6  -1  -6    2.15    0.13
   6  -1   6    2.13    0.13
   6  -1   6    1.86    0.14
  -6  -1  -6    1.92    0.15
  -6   1  -6    1.70    0.12
  -6   1  -6    1.92    0.12
  -6   1  -6    1.91    0.12
   6   1   6    1.99    0.12
  -6   1  -6    1.91    0.13
   7  -1   6    7.24    0.34
  -7  -1  -6    7.56    0.40
  -7  -1  -6    7.18    0.40
  -7  -1  -6    7.62    0.30
   7  -1   6    7.42    0.33
   7   1   6    7.45    0.33
  -7   1  -6    6.97    0.27
  -7   1  -6    6.91    0.31
  -7   1  -6    6.96    0.30
  -9  -2   6    6.26    0.36
   9  -2  -6    6.77    0.29
  -9   2   6    6.26    0.27
  -9   2   6    5.81    0.53
   8  -2  -6    2.12    0.15
  -8  -2   6    2.25    0.19
   8  -2  -6    2.51    0.15
  -8   2   6    2.24    0.14
  -8   2   6    2.33    0.28
  -8   2   6    2.58    0.39
   7  -2  -6   14.43    0.65
  -7  -2   6   13.91    0.82
   7  -2  -6   14.91    0.64
  -7  -2   6   15.06    0.80
  -7   2   6   14.56    0.63
  -7   2   6   14.59    1.19
  -7   2   6   15.58    0.60
  -7   2   6   15.02    0.62
  -7   2   6   15.10    1.46
   6  -2  -6   20.10    0.86
   6  -2  -6   19.27    0.87
  -6  -2   6   20.25    1.09
   6  -2  -6   18.96    1.06
  -6   2   6   19.76    1.04
  -6   2   6   20.94    0.85
  -6   2   6   19.79    0.79
  -6   2   6   21.62    1.60
   6   2  -6   20.20    1.38
   5  -2  -6    0.42    0.11
  -5  -2   6    0.43    0.05
  -5  -2   6    0.39    0.23
  -5   2   6    0.58    0.17
  -5   2   6    0.47    0.11
   5   2  -6    0.51    0.07
  -5   2   6    0.53    0.12
   4  -2  -6   72.63    3.60
  -4   2   6   71.04    3.59
   4   2  -6   77.98    4.96
  -4   2   6   67.74    3.50
  -4   2   6   81.63    6.81
   3  -2  -6   31.62    1.57
  -3   2   6   28.38    1.52
   3   2  -6   32.54    2.13
  -3   2   6   31.94    1.57
  -3   2   6   34.13    2.94
   2  -2  -6   13.48    0.64
   2  -2  -6   11.74    0.81
   2   2  -6   13.49    0.84
  -2   2   6   11.36    0.62
  -2   2   6   10.95    0.86
   1  -2  -6   89.88    4.04
   1  -2  -6   76.08    4.59
  -1   2   6   81.35    5.63
  -1   2   6   79.72    3.96
   1   2  -6   92.51    5.61
   0  -2  -6  155.08    7.10
   0  -2  -6  133.60    8.02
   0  -2   6  146.86    7.11
   0   2   6  153.34    9.93
   0   2   6  140.65    6.97
   0   2  -6  161.97    9.91
   1  -2   6   98.60    4.63
   1   2   6  101.65    6.45
  -1   2  -6   89.67    4.61
   1   2   6   95.82    4.54
   2  -2   6    5.84    0.35
  -2   2  -6    5.91    0.33
   2   2   6    6.30    0.35
   2   2   6    5.89    0.44
   3  -2   6    0.40    0.09
  -3  -2  -6    0.47    0.04
   3   2   6    0.33    0.08
  -3   2  -6    0.50    0.08
  -4  -2  -6    1.50    0.10
   4  -2   6    1.15    0.17
  -4  -2  -6    1.36    0.11
   4  -2   6    1.57    0.17
   4  -2   6    1.23    0.11
   4  -2   6    1.39    0.13
  -4   2  -6    1.40    0.10
  -4   2  -6    1.31    0.12
  -4   2  -6    1.50    0.11
   4   2   6    1.33    0.17
  -4   2  -6    1.53    0.14
  -5  -2  -6   87.19    4.54
   5  -2   6   87.76    3.62
   5  -2   6   82.49    3.54
  -5  -2  -6   85.25    3.23
  -5   2  -6   87.18    3.03
  -5   2  -6   83.73    3.52
  -5   2  -6   86.53    2.91
   6  -2   6    2.83    0.17
  -6  -2  -6    2.82    0.14
   6   2   6    2.36    0.15
  -6   2  -6    2.86    0.14
  -6   2  -6    2.81    0.16
   7  -2   6   37.02    1.46
  -7  -2  -6   33.81    1.33
  -7   2  -6   34.98    1.43
  -7   2  -6   33.94    1.19
   8  -3  -6   14.43    0.60
  -8  -3   6   13.84    0.68
  -8  -3   6   14.39    0.77
  -8   3   6   12.83    1.11
  -7  -3   6    9.68    0.57
   7  -3  -6    9.78    0.44
  -7   3   6    9.84    1.01
  -7   3   6   10.08    0.42
  -7   3   6    9.18    0.80
   6  -3  -6   34.31    1.49
  -6  -3   6   32.59    1.90
  -6   3   6   36.40    2.79
  -6   3   6   34.89    1.48
  -6   3   6   40.44    3.35
   5  -3  -6   15.74    0.88
  -5  -3   6   15.48    0.88
  -5  -3   6   16.57    0.89
   5  -3  -6   15.74    0.70
  -5   3   6   15.62    0.70
  -5   3   6   16.68    0.70
   5   3  -6   17.75    1.12
  -5   3   6   18.82    1.60
  -5   3   6   15.44    0.87
   4  -3  -6   57.03    2.79
  -4  -3   6   49.44    4.04
   4   3  -6   60.72    3.81
  -4   3   6   56.35    2.39
  -4   3   6   60.75    5.25
   3  -3  -6   22.93    1.10
  -3   3   6   23.68    2.03
  -3   3   6   21.62    0.92
   3   3  -6   22.54    1.46
  -3   3   6   18.21    1.49
  -3   3   6   20.51    1.06
   2  -3  -6   44.04    1.99
   2   3  -6   41.35    2.72
  -2   3   6   39.94    1.95
  -2   3   6   36.91    2.75
   1  -3  -6   10.45    0.52
  -1   3   6   10.19    0.54
  -1   3   6    9.61    0.72
   1   3  -6   10.02    0.70
   0   3   6   22.95    1.16
   0   3  -6   25.17    1.59
   0   3   6   22.18    1.61
   1  -3   6   98.88    4.82
  -1   3  -6  107.40    6.71
   1   3   6  101.56    6.72
   1   3   6   99.07    4.75
  -1   3  -6   94.86    4.22
   2  -3   6   32.51    1.47
   2  -3   6   35.65    1.75
  -2   3  -6   35.74    1.51
   2   3   6   38.02    2.41
  -3  -3  -6  118.49    6.13
  -3  -3  -6  117.31    4.36
   3  -3   6  105.42    7.43
   3  -3   6  112.26    4.77
   3  -3   6  120.82    5.59
  -3   3  -6  119.03    4.77
  -3   3  -6  115.24    4.87
   3   3   6  125.67    7.77
  -3   3  -6  109.89    5.56
  -4  -3  -6   21.08    0.82
   4  -3   6   20.69    0.91
   4  -3   6   19.77    1.42
  -4   3  -6   22.06    0.90
  -4   3  -6   22.53    0.75
   5  -3   6    1.10    0.16
  -5  -3  -6    1.13    0.09
   5  -3   6    1.05    0.10
  -5   3  -6    1.25    0.09
  -5   3  -6    1.21    0.09
  -5   3  -6    1.34    0.12
  -6  -3  -6   13.38    0.65
   6  -3   6   13.69    0.57
  -6  -3  -6   12.16    0.51
  -6   3  -6   13.37    0.47
  -8  -4   6    4.84    0.29
  -7  -4   6   21.14    1.10
  -7  -4   6   20.94    0.97
  -7  -4   6   20.44    0.97
   7  -4  -6   19.07    0.85
  -7   4   6   20.94    0.85
  -7   4   6   19.20    1.60
  -6  -4   6    4.53    0.23
  -6  -4   6    4.14    0.31
  -6  -4   6    4.43    0.44
  -6   4   6    4.57    0.22
  -6   4   6    4.79    0.55
  -6   4   6    4.39    0.42
  -5  -4   6   64.23    3.04
  -5  -4   6   64.48    5.56
   5  -4  -6   62.24    2.63
  -5  -4   6   62.36    3.37
  -5   4   6   69.07    5.91
  -5   4   6   62.51    2.64
  -5   4   6   63.40    2.69
   4  -4  -6   67.15    2.86
  -4  -4   6   67.21    6.07
  -4   4   6   75.41    6.44
  -4   4   6   70.43    2.94
  -4   4   6   69.53    2.88
  -3  -4   6  120.48    5.99
  -3  -4   6  113.72   10.65
   3  -4  -6  129.28    5.01
  -3  -4   6  129.81    6.52
   3   4  -6  118.99    8.21
  -3   4   6  126.47    5.16
  -2  -4   6   18.87    0.93
   2  -4  -6   19.25    0.75
  -2  -4   6   16.61    1.61
  -2  -4   6   18.30    1.40
  -2   4   6   18.89    0.77
  -2   4   6   16.99    1.27
   2   4  -6   17.40    1.23
  -1  -4   6   43.98    3.09
  -1  -4   6   42.97    1.74
  -1  -4   6   36.06    3.71
  -1  -4   6   42.51    2.10
   1  -4  -6   44.62    1.74
  -1   4   6   45.11    1.79
   1   4  -6   44.39    2.86
  -1   4   6   40.11    2.89
   1   4  -6   42.75    1.80
   0  -4   6   15.00    1.22
   0  -4   6   13.06    1.40
   0  -4   6   16.02    0.66
   0  -4   6   15.89    0.81
   0   4  -6   16.79    1.08
   0   4  -6   16.47    0.69
   0   4   6   16.16    1.11
   1  -4   6  155.71    7.49
   1  -4   6  147.32    9.87
   1  -4   6  135.34   13.34
   1  -4   6  156.26    6.28
   1   4   6  160.72   10.32
  -1   4  -6  165.86   10.30
  -1   4  -6  158.84    6.48
   2  -4   6   50.43    2.03
   2  -4   6   44.69    4.29
   2  -4   6   47.78    3.19
  -2   4  -6   52.32    2.08
  -2   4  -6   50.04    2.04
   3  -4   6   73.00    2.90
   3  -4   6   66.63    4.55
  -3  -4  -6   72.24    3.36
   3  -4   6   65.53    6.15
  -3   4  -6   74.41    2.98
  -3   4  -6   71.74    2.92
   4  -4   6    2.04    0.23
  -4  -4  -6    2.24    0.13
   4  -4   6    1.87    0.30
   4  -4   6    2.23    0.15
  -4   4  -6    2.09    0.14
   5  -4   6    0.05    0.08
  -5  -4  -6    0.09    0.04
   5  -4   6    0.14    0.12
  -5   4  -6    0.00    0.05
  -5   4  -6    0.05    0.05
  -6  -5   6   12.68    0.68
  -6  -5   6   12.31    1.09
  -6  -5   6   12.69    0.81
   6  -5  -6   11.84    0.52
  -6   5   6   12.57    0.52
  -6   5   6   11.53    0.98
   5  -5  -6    7.98    0.36
  -5  -5   6    8.54    0.76
  -5  -5   6    8.28    0.40
  -5  -5   6    8.19    0.41
  -5   5   6    7.93    0.36
  -5   5   6    8.05    0.36
  -5   5   6    8.56    0.85
  -4  -5   6    9.38    0.91
   4  -5  -6    9.87    0.43
  -4  -5   6   10.07    0.48
  -4   5   6   10.19    0.44
  -4   5   6    9.98    1.00
   3  -5  -6    5.83    0.26
  -3  -5   6    5.77    0.34
  -3  -5   6    5.23    0.56
  -3   5   6    5.92    0.26
   2  -5  -6   16.33    0.64
  -2  -5   6   14.13    1.39
  -2  -5   6   14.34    0.83
  -2  -5   6   16.00    0.83
  -2  -5   6   15.81    0.81
  -2   5   6   16.38    0.67
   1  -5  -6    7.36    0.42
  -1  -5   6    6.49    0.71
  -1  -5   6    7.36    0.43
  -1  -5   6    7.99    0.43
  -1   5   6    7.75    0.33
   1   5  -6    7.41    0.35
   0  -5  -6   10.11    0.51
   0  -5   6    9.05    0.51
   0  -5   6    9.68    0.40
   0  -5   6    8.53    0.87
   0   5  -6    9.01    0.42
   1  -5   6    8.70    0.90
   1  -5   6   10.26    0.42
   1  -5   6    9.91    0.52
   1  -5   6    9.37    0.70
  -1   5  -6    9.60    0.43
   2  -5   6   11.88    0.51
   2  -5   6   12.16    0.82
   2  -5   6   11.40    1.08
  -2  -5  -6   11.71    0.58
  -2   5  -6   12.46    0.52
  -2   5  -6   10.09    1.15
   3  -5   6    3.85    0.33
   3  -5   6    3.60    0.41
  -3  -5  -6    3.83    0.20
   3  -5   6    3.78    0.20
  -3   5  -6    3.59    0.20
  -3   5  -6    3.88    0.19
   4  -5   6   11.85    1.18
   4  -5   6   14.10    0.90
   4  -5   6   13.50    0.56
  -4   5  -6   13.11    0.56
  -5  -6   6    2.25    0.16
  -4  -6   6   23.45    1.89
   4  -6  -6   18.32    1.16
  -4   6   6   22.59    0.91
  -3  -6   6   11.73    0.55
   3  -6  -6   10.97    0.62
  -3  -6   6   11.69    0.59
  -3  -6   6   10.98    1.02
  -3   6   6   11.37    0.49
   2  -6  -6    2.77    0.17
  -2  -6   6    2.67    0.30
  -2  -6   6    2.95    0.20
  -2   6   6    2.61    0.13
  -1  -6   6   10.13    0.50
  -1  -6   6    9.17    0.86
  -1   6   6    8.77    0.40
   0  -6   6    1.55    0.10
   0  -6   6    1.63    0.10
   0  -6   6    1.33    0.22
   0  -6   6    1.26    0.14
   0   6  -6    1.42    0.11
   1  -6   6    4.34    0.26
   1  -6   6    4.71    0.28
   1  -6   6    4.61    0.47
  -1  -6  -6    4.86    0.24
  -1   6  -6    4.70    0.22
   2  -6   6    6.34    0.37
   2  -6   6    6.65    0.48
   2  -6   6    6.24    0.62
  -2  -6  -6    7.23    0.32
  -2  -6  -6    6.45    0.32
  -2   6  -6    6.28    0.30
   9   0  -7    0.32    0.05
  -9   0   7    0.24    0.11
  -8   0   7   14.78    1.26
   8   0  -7   16.37    0.69
  -8   0   7   14.77    1.56
  -8   0   7   16.09    0.65
  -8   0   7   16.02    0.62
  -7   0   7   21.23    0.85
  -7   0   7   19.99    1.63
   7   0  -7   20.90    0.89
  -7   0   7   20.21    1.98
  -7   0   7   19.42    1.11
  -7   0   7   20.79    0.80
  -6   0   7   11.58    0.47
  -6   0   7   12.42    0.61
  -6   0   7   11.88    0.50
  -6   0   7   11.82    0.96
  -6   0   7   11.97    1.20
   6   0  -7   11.21    0.84
   6   0  -7   11.32    0.52
   5   0  -7   20.43    0.91
  -5   0   7   21.92    2.03
  -5   0   7   22.46    1.07
   5   0  -7   20.54    1.46
   4   0  -7    6.17    0.45
  -4   0   7    6.17    0.35
  -4   0   7    6.17    0.66
   3   0  -7    2.76    0.21
   3   0  -7    2.58    0.18
   2   0  -7    2.88    0.21
   2   0  -7    2.56    0.18
   1   0  -7    7.77    0.41
   0   0  -7   29.24    1.40
   0   0   7   28.38    1.96
   1   0   7   35.87    2.49
  -1   0  -7   38.02    1.79
   1   0   7   36.73    1.81
  -2   0  -7    0.08    0.05
   2   0   7    0.15    0.07
   3   0   7   76.49    3.20
  -3   0  -7   75.48    3.10
   3   0   7   74.65    5.11
  -3   0  -7   77.53    3.65
   4   0   7   10.86    0.49
  -4   0  -7   11.32    0.41
  -4   0  -7   11.29    0.45
  -4   0  -7   10.65    0.57
  -4   0  -7   11.35    0.48
  -4   0  -7   11.02    0.42
  -5   0  -7    1.96    0.12
   5   0   7    2.12    0.14
  -5   0  -7    2.29    0.13
  -5   0  -7    2.02    0.12
  -5   0  -7    2.21    0.13
  -6   0  -7    4.55    0.20
   6   0   7    4.65    0.22
  -6   0  -7    4.30    0.19
  -6   0  -7    4.26    0.20
  -7   0  -7    8.80    0.36
   7   0   7    9.01    0.40
  -7   0  -7    8.74    0.49
  -9  -1   7    1.37    0.09
   9  -1  -7    1.35    0.10
  -9  -1   7    1.33    0.09
   9  -1  -7    1.42    0.10
  -9   1   7    1.32    0.09
   9   1  -7    1.43    0.10
  -9   1   7    1.14    0.19
  -8  -1   7    1.54    0.16
   8  -1  -7    1.53    0.12
  -8  -1   7    1.57    0.23
   8  -1  -7    1.70    0.12
  -8  -1   7    1.53    0.13
  -8   1   7    1.62    0.31
  -8   1   7    1.41    0.22
  -8   1   7    1.63    0.11
   8   1  -7    1.68    0.11
  -7  -1   7   23.78    1.31
  -7  -1   7   22.95    1.94
  -7  -1   7   24.94    1.01
   7  -1  -7   25.59    1.06
   7  -1  -7   24.99    1.04
  -7  -1   7   21.34    2.35
   7   1  -7   24.24    1.05
  -7   1   7   24.99    2.34
  -7   1   7   24.38    1.94
  -7   1   7   25.11    1.02
  -7   1   7   26.80    0.96
  -6  -1   7    1.46    0.21
  -6  -1   7    1.75    0.35
  -6  -1   7    1.38    0.09
   6  -1  -7    1.19    0.10
   6  -1  -7    1.33    0.11
   6   1  -7    1.28    0.10
   6   1  -7    1.23    0.15
  -6   1   7    1.22    0.10
  -6   1   7    1.21    0.11
  -6   1   7    1.27    0.21
  -6   1   7    1.08    0.25
  -6   1   7    1.26    0.15
   5  -1  -7   47.23    2.25
  -5  -1   7   44.26    1.85
   5  -1  -7   44.17    1.91
  -5  -1   7   43.21    4.22
  -5   1   7   46.04    2.22
   5   1  -7   42.45    1.91
   5   1  -7   45.95    3.04
  -5   1   7   49.34    4.19
  -5   1   7   44.78    2.15
  -4  -1   7    5.02    0.63
   4  -1  -7    5.62    0.34
  -4  -1   7    5.50    0.31
   4   1  -7    6.20    0.41
  -4   1   7    5.45    0.30
  -4   1   7    6.10    0.61
  -4   1   7    5.37    0.34
  -3  -1   7    2.13    0.33
   3  -1  -7    2.17    0.17
   3   1  -7    2.28    0.17
  -3   1   7    1.99    0.14
   2  -1  -7   94.83    4.76
   2   1  -7  113.45    6.62
  -2   1   7   89.14    4.65
   1  -1  -7   95.65    4.54
  -1   1   7   92.38    4.45
   1   1  -7   91.36    4.53
  -1   1   7   88.75    6.33
   1   1  -7  105.31    6.32
   0  -1  -7  125.41    5.63
   0   1   7  116.86    7.87
   0   1  -7  117.28    5.63
   0   1   7  111.44    5.52
   1  -1   7   57.08    2.77
  -1  -1  -7   58.86    2.75
  -1   1  -7   57.43    2.75
   1   1   7   53.30    2.70
   1   1   7   58.91    3.84
  -2  -1  -7   17.91    0.86
   2  -1   7   17.28    0.89
  -2   1  -7   16.68    0.87
   2   1   7   17.15    0.87
   2   1   7   17.73    1.21
  -3  -1  -7    4.25    0.20
   3  -1   7    4.27    0.21
  -3   1  -7    4.32    0.26
   3   1   7    4.42    0.21
   3   1   7    3.87    0.29
   3   1   7    4.62    0.36
   4  -1   7   16.52    0.73
  -4  -1  -7   16.88    0.70
  -4  -1  -7   16.63    0.60
   4  -1   7   16.51    0.73
  -4  -1  -7   16.93    0.66
   4   1   7   16.86    0.73
  -4   1  -7   16.22    0.85
  -4   1  -7   17.18    0.60
  -4   1  -7   16.78    0.72
  -4   1  -7   16.68    0.62
   4   1   7   17.71    1.19
  -5  -1  -7   12.78    0.52
   5  -1   7   13.39    0.57
  -5  -1  -7   13.14    0.54
  -5  -1  -7   12.43    0.47
   5  -1   7   13.01    0.57
  -5   1  -7   12.60    0.47
   5   1   7   12.52    0.57
  -5   1  -7   12.87    0.49
  -5   1  -7   13.33    0.56
  -5   1  -7   12.66    0.52
   6  -1   7    2.78    0.17
  -6  -1  -7    3.03    0.15
  -6  -1  -7    2.78    0.19
   6  -1   7    2.87    0.16
  -6   1  -7    2.76    0.16
   6   1   7    2.88    0.16
  -6   1  -7    2.76    0.14
  -6   1  -7    2.98    0.14
   7  -1   7    5.70    0.26
  -7  -1  -7    5.13    0.23
  -7   1  -7    5.24    0.21
  -9  -2   7    0.08    0.06
   9  -2  -7    0.10    0.04
  -9   2   7    0.14    0.10
  -9   2   7    0.10    0.05
  -8  -2   7    1.50    0.15
   8  -2  -7    1.49    0.12
  -8   2   7    1.35    0.21
   8   2  -7    1.34    0.10
  -8   2   7    1.38    0.11
  -8   2   7    1.20    0.27
  -7  -2   7   14.84    0.79
   7  -2  -7   14.52    0.63
  -7  -2   7   13.99    0.80
  -7   2   7   13.73    1.16
  -7   2   7   15.38    1.43
  -7   2   7   14.30    0.61
   7   2  -7   13.92    0.64
  -6  -2   7    0.43    0.24
   6  -2  -7    0.37    0.06
  -6  -2   7    0.42    0.07
  -6  -2   7    0.53    0.10
  -6   2   7    0.61    0.14
  -6   2   7    0.52    0.06
  -6   2   7    0.43    0.21
  -5  -2   7   10.02    0.43
  -5  -2   7    8.48    1.07
   5  -2  -7    9.93    0.58
   5  -2  -7    9.88    0.45
   5   2  -7   10.72    0.71
  -5   2   7   10.67    0.83
  -5   2   7    9.73    0.57
  -5   2   7   11.69    1.03
  -5   2   7    9.74    0.44
   4  -2  -7   24.11    1.28
  -4  -2   7   23.53    1.04
  -4   2   7   24.30    1.27
  -4   2   7   23.58    1.22
  -4   2   7   28.12    2.37
   4   2  -7   27.55    1.71
   3  -2  -7   10.31    0.56
  -3  -2   7    8.47    1.05
   3   2  -7   11.05    0.72
  -3   2   7   10.39    0.57
  -3   2   7   10.21    0.54
  -3   2   7   11.64    1.02
   2  -2  -7   27.15    1.25
  -2   2   7   23.56    1.71
  -2   2   7   24.35    1.21
   1  -2  -7   83.99    3.90
   1   2  -7   88.13    5.41
  -1   2   7   76.36    5.43
  -1   2   7   75.37    3.82
   0  -2  -7   15.27    0.80
   0   2   7   16.05    1.11
   0   2   7   14.67    0.80
   0   2  -7   17.24    1.08
   1  -2   7   36.43    1.77
   1   2   7   37.32    2.45
   1   2   7   35.61    1.75
  -1   2  -7   35.08    1.76
  -2  -2  -7   23.02    0.95
   2  -2   7   22.05    1.16
  -2   2  -7   21.38    1.13
   2   2   7   23.04    1.15
   2   2   7   24.21    1.58
   2   2   7   25.10    0.98
  -2   2  -7   21.55    0.98
  -3  -2  -7   30.29    1.24
  -3  -2  -7   31.92    1.17
   3  -2   7   29.48    1.52
   3  -2   7   29.72    1.28
   3  -2   7   26.87    1.99
   3   2   7   32.45    1.29
   3   2   7   32.23    2.08
  -3   2  -7   29.59    1.49
  -3   2  -7   30.04    1.27
  -3   2  -7   30.79    1.05
   4  -2   7    5.54    0.47
  -4  -2  -7    6.49    0.27
  -4  -2  -7    6.30    0.35
   4  -2   7    5.82    0.30
  -4   2  -7    5.77    0.29
  -4   2  -7    6.10    0.25
  -4   2  -7    6.14    0.25
   4   2   7    6.37    0.28
   5  -2   7    5.70    0.29
  -5  -2  -7    5.93    0.26
  -5  -2  -7    5.85    0.33
  -5   2  -7    5.72    0.24
  -5   2  -7    5.88    0.24
   5   2   7    5.82    0.27
  -5   2  -7    5.72    0.28
   6  -2   7    3.34    0.18
  -6  -2  -7    3.25    0.16
  -6   2  -7    3.19    0.17
  -6   2  -7    3.18    0.15
   6   2   7    3.00    0.16
  -8  -3   7    3.69    0.25
   8  -3  -7    3.75    0.19
  -8  -3   7    3.77    0.20
  -8   3   7    3.40    0.35
   7  -3  -7   14.98    0.63
  -7  -3   7   14.88    0.82
  -7   3   7   14.12    1.18
  -7   3   7   14.97    0.62
  -7   3   7   14.67    1.45
  -6  -3   7    7.70    0.49
   6  -3  -7    8.08    0.37
  -6   3   7    8.23    0.37
  -6   3   7    8.80    0.88
  -6   3   7    8.09    0.69
  -5  -3   7   28.80    1.61
   5  -3  -7   28.34    1.25
  -5  -3   7   28.67    1.61
  -5   3   7   29.25    1.27
  -5   3   7   33.63    2.82
  -5   3   7   29.71    1.25
  -5   3   7   31.37    2.34
   4  -3  -7   13.41    0.72
   4  -3  -7   12.34    0.56
   4  -3  -7   12.73    0.57
  -4  -3   7   11.88    1.03
   4   3  -7   13.32    0.90
  -4   3   7   15.36    1.30
  -4   3   7   12.79    0.56
  -4   3   7   13.28    0.57
   3  -3  -7   20.00    0.88
   3  -3  -7   21.30    1.08
  -3  -3   7   19.62    0.88
  -3   3   7   23.06    2.00
  -3   3   7   21.27    0.90
   3   3  -7   21.75    1.43
  -2  -3   7   23.65    1.03
   2  -3  -7   25.69    1.25
   2  -3  -7   25.47    1.03
   2   3  -7   25.24    1.68
  -2   3   7   25.90    1.05
  -2   3   7   25.65    1.22
  -2   3   7   22.30    1.71
   2   3  -7   24.44    1.06
  -1  -3   7   40.13    1.74
   1  -3  -7   43.58    1.73
   1   3  -7   45.71    2.85
  -1   3   7   39.82    2.87
  -1   3   7   41.84    2.04
  -1   3   7   43.80    1.78
   1   3  -7   41.21    1.80
   0  -3  -7    8.01    0.34
   0  -3   7    6.92    0.36
   0   3  -7    8.23    0.56
   0   3  -7    7.84    0.36
   0   3   7    7.94    0.35
   0   3   7    9.13    0.46
   0   3   7    7.74    0.59
  -1  -3  -7   59.91    2.39
   1  -3   7   56.63    2.42
   1  -3   7   59.01    2.86
  -1   3  -7   57.22    2.49
   1   3   7   61.66    3.98
  -2  -3  -7   22.53    0.86
   2  -3   7   21.46    0.94
   2  -3   7   20.00    1.47
   2  -3   7   22.62    1.13
   2   3   7   24.20    1.54
  -2   3  -7   21.98    0.94
  -2   3  -7   22.23    0.96
   3  -3   7   24.13    1.01
   3  -3   7   21.74    1.58
  -3  -3  -7   24.36    1.27
  -3  -3  -7   23.76    0.92
  -3   3  -7   24.49    1.01
   4  -3   7   59.76    2.44
  -4  -3  -7   57.64    2.22
   4  -3   7   53.73    3.79
  -4   3  -7   60.77    2.43
  -4   3  -7   61.99    2.01
  -4   3  -7   58.53    2.08
  -5  -3  -7    8.98    0.37
   5  -3   7    9.56    0.42
   5  -3   7    8.53    0.64
  -5   3  -7    8.92    0.35
  -5   3  -7    9.35    0.34
  -5   3  -7    9.46    0.40
  -6  -3  -7    0.00    0.03
  -6  -3  -7    0.07    0.04
   6  -3   7    0.01    0.04
  -6   3  -7    0.03    0.04
  -8  -4   7   23.75    1.26
  -7  -4   7    6.22    0.30
  -7  -4   7    6.35    0.37
  -7   4   7    5.27    0.51
  -7   4   7    5.95    0.27
   6  -4  -7    8.79    0.42
  -6  -4   7    9.83    0.47
  -6  -4   7    9.55    0.56
  -6   4   7    9.53    0.42
  -6   4   7   10.44    0.98
  -6   4   7    8.97    0.78
  -5  -4   7    0.87    0.12
   5  -4  -7    0.85    0.09
  -5   4   7    0.88    0.08
  -5   4   7    0.67    0.06
   4  -4  -7   22.73    0.98
  -4   4   7   25.18    2.22
  -4   4   7   23.55    0.99
  -4   4   7   21.97    0.98
   3  -4  -7   15.38    0.65
  -3  -4   7   15.66    0.85
  -3  -4   7   15.23    0.80
  -3   4   7   15.45    0.66
  -2  -4   7   53.10    2.85
  -2  -4   7   51.60    2.16
   2  -4  -7   54.45    2.17
  -2  -4   7   54.06    2.62
  -2   4   7   46.71    3.60
  -2   4   7   56.23    2.24
   2   4  -7   54.34    2.25
   2   4  -7   54.58    3.57
  -1  -4   7   41.55    1.72
   1  -4  -7   44.04    1.71
  -1  -4   7   41.21    2.08
   1   4  -7   43.60    2.82
  -1   4   7   37.44    2.85
   1   4  -7   41.91    1.78
  -1   4   7   43.12    1.76
   0  -4   7   55.60    2.33
   0  -4   7   54.21    2.79
   0  -4  -7   56.73    3.02
   0   4   7   58.07    2.39
   0   4  -7   58.38    2.40
   0   4  -7   57.25    3.82
   1  -4   7    0.31    0.07
   1  -4   7    0.33    0.09
   1  -4   7    0.18    0.11
   1  -4   7    0.30    0.13
  -1   4  -7    0.31    0.06
   2  -4   7   23.57    0.98
   2  -4   7   20.58    2.04
   2  -4   7   21.79    1.54
  -2  -4  -7   24.25    1.22
  -2   4  -7   23.29    0.98
  -2   4  -7   24.30    0.99
   3  -4   7   10.06    0.99
   3  -4   7   10.31    0.75
   3  -4   7   10.91    0.48
  -3   4  -7   10.82    0.48
  -3   4  -7   11.04    0.48
  -4  -4  -7   42.45    1.95
   4  -4   7   39.80    2.66
   4  -4   7   37.24    3.57
  -4   4  -7   43.83    1.70
   5  -4   7    1.47    0.18
   5  -4   7    1.35    0.20
  -5  -4  -7    1.59    0.10
  -5   4  -7    1.66    0.11
   6  -5  -7    3.36    0.17
  -6   5   7    3.64    0.17
   5  -5  -7    0.37    0.06
  -5  -5   7    0.52    0.05
  -5   5   7    0.50    0.06
  -5   5   7    0.42    0.05
  -4  -5   7   15.08    0.81
   4  -5  -7   16.37    0.67
  -4  -5   7   16.58    0.77
  -4  -5   7   15.08    1.41
  -4   5   7   16.89    0.68
  -4   5   7   15.41    0.68
   3  -5  -7   27.44    1.11
  -3  -5   7   24.49    2.37
  -3  -5   7   27.27    1.36
  -3   5   7   28.64    1.14
  -2  -5   7   26.41    1.36
  -2  -5   7   23.17    2.24
  -2  -5   7   23.15    1.35
   2  -5  -7   26.98    1.04
  -2  -5   7   26.80    1.29
  -2   5   7   25.97    1.08
   1  -5  -7   30.11    1.55
  -1  -5   7   28.84    1.45
  -1  -5   7   24.81    2.53
  -1  -5   7   30.26    1.56
   1   5  -7   28.39    1.24
  -1   5   7   30.37    1.22
   0  -5   7   42.25    4.05
   0  -5   7   46.50    2.29
   0  -5   7   49.01    1.89
   0  -5  -7   46.97    2.46
   0   5  -7   46.95    1.97
   1  -5   7   14.33    0.73
   1  -5   7   14.86    0.60
   1  -5   7   13.31    1.27
   1  -5   7   14.21    0.97
  -1   5  -7   15.47    0.62
  -1   5  -7   11.88    1.37
   2  -5   7    6.17    0.66
   2  -5   7    7.09    0.32
  -2  -5  -7    6.69    0.35
   2  -5   7    7.05    0.53
  -2   5  -7    7.41    0.32
  -2   5  -7    6.99    0.32
  -3  -5  -7    0.03    0.04
   3  -5   7    0.11    0.10
   3  -5   7    0.07    0.05
   3  -5   7    0.06    0.10
  -3   5  -7    0.05    0.05
  -3   5  -7    0.07    0.04
   4  -5   7    1.20    0.15
  -4   5  -7    1.22    0.10
  -4  -6   7    4.20    0.19
  -4  -6   7    3.97    0.19
   4  -6  -7    3.51    0.23
  -3  -6   7   32.65    1.52
  -3  -6   7   32.27    1.57
   3  -6  -7   31.22    1.70
  -3  -6   7   31.49    2.78
  -3   6   7   31.66    1.34
  -2  -6   7    8.11    0.41
  -2  -6   7    6.87    0.66
  -2   6   7    6.87    0.31
  -1  -6   7    0.60    0.12
  -1  -6   7    0.65    0.10
   1   6  -7    0.72    0.07
  -1   6   7    0.62    0.05
   0  -6   7    3.60    0.19
   0  -6   7    3.61    0.19
   0  -6   7    3.54    0.22
   0  -6   7    3.07    0.35
   0   6  -7    3.15    0.17
   1  -6   7    6.35    0.35
  -1  -6  -7    6.20    0.31
   1  -6   7    6.19    0.58
  -1   6  -7    6.21    0.28
  -2  -6  -7    4.80    0.23
  -2  -6  -7    4.63    0.23
   2  -6   7    4.70    0.27
   9   0  -8   16.70    0.66
  -9   0   8   13.52    1.20
  -8   0   8    6.32    0.27
  -8   0   8    5.45    0.53
  -8   0   8    5.52    0.68
   8   0  -8    6.27    0.28
  -7   0   8   69.02    3.59
   7   0  -8   72.27    2.90
  -7   0   8   71.71    2.80
  -7   0   8   64.84    6.34
  -7   0   8   65.08    5.31
   6   0  -8    6.29    0.31
  -6   0   8    7.03    0.77
  -6   0   8    6.75    0.58
  -6   0   8    6.62    0.38
  -6   0   8    6.62    0.30
  -5   0   8    1.16    0.13
  -5   0   8    1.25    0.10
   5   0  -8    1.35    0.10
  -5   0   8    1.04    0.25
  -5   0   8    1.33    0.19
   5   0  -8    1.28    0.15
  -4   0   8    0.91    0.22
   4   0  -8    0.71    0.11
  -4   0   8    0.95    0.12
   3   0  -8    5.06    0.29
  -3   0   8    4.75    0.54
   2   0  -8   71.92    3.46
   1   0  -8   23.72    1.17
   0   0  -8    5.00    0.28
  -1   0  -8   65.74    3.17
  -2   0  -8    3.52    0.18
   2   0   8    3.74    0.18
  -2   0  -8    3.68    0.23
  -3   0  -8   16.15    0.57
   3   0   8   16.57    0.70
  -3   0  -8   16.08    0.63
  -3   0  -8   16.08    0.81
  -3   0  -8   15.98    0.68
   3   0   8   15.94    0.70
  -4   0  -8   21.72    0.85
   4   0   8   22.92    0.95
  -4   0  -8   21.78    0.77
  -4   0  -8   22.24    0.92
  -4   0  -8   20.95    0.80
  -5   0  -8    5.39    0.22
  -5   0  -8    5.28    0.24
  -5   0  -8    4.87    0.22
   5   0   8    5.67    0.26
  -5   0  -8    5.52    0.25
  -6   0  -8    0.09    0.03
  -6   0  -8    0.02    0.04
  -6   0  -8    0.00    0.04
   6   0   8    0.00    0.04
  -9  -1   8    0.93    0.07
   9  -1  -8    0.96    0.09
  -9  -1   8    0.89    0.07
   9  -1  -8    0.99    0.08
  -9   1   8    0.88    0.07
   9   1  -8    1.04    0.08
  -9   1   8    0.92    0.15
   8  -1  -8    2.67    0.15
  -8  -1   8    2.59    0.20
   8  -1  -8    2.51    0.15
  -8  -1   8    2.28    0.43
  -8  -1   8    2.57    0.17
  -8   1   8    2.35    0.28
   8   1  -8    2.69    0.15
  -8   1   8    2.43    0.42
  -8   1   8    2.57    0.14
  -7  -1   8   35.24    3.01
  -7  -1   8   39.62    1.58
  -7  -1   8   33.64    3.62
   7  -1  -8   40.34    1.61
  -7  -1   8   38.74    2.04
   7  -1  -8   41.59    1.64
   7   1  -8   39.96    1.64
  -7   1   8   38.82    3.61
  -7   1   8   36.95    3.01
  -7   1   8   39.83    1.59
   6  -1  -8   26.15    1.08
   6  -1  -8   26.60    1.11
  -6  -1   8   24.04    2.03
  -6  -1   8   24.93    2.48
  -6  -1   8   25.53    1.38
  -6  -1   8   26.57    1.07
   6   1  -8   25.23    1.10
  -6   1   8   26.12    1.07
  -6   1   8   25.78    1.07
   6   1  -8   24.32    1.76
  -6   1   8   25.23    2.03
  -6   1   8   26.93    1.30
  -6   1   8   27.29    2.46
   5  -1  -8    3.09    0.17
  -5  -1   8    3.02    0.46
  -5  -1   8    3.37    0.17
   5  -1  -8    2.90    0.24
  -5  -1   8    3.10    0.32
  -5   1   8    3.32    0.25
   5   1  -8    3.49    0.27
  -5   1   8    3.34    0.44
  -5   1   8    3.18    0.32
   5   1  -8    3.21    0.17
  -4  -1   8   10.99    0.57
   4  -1  -8   11.07    0.60
  -4  -1   8    9.88    1.12
  -4   1   8   10.95    0.60
  -4   1   8   11.49    1.09
   4   1  -8   11.43    0.77
  -3  -1   8    7.28    0.88
   3  -1  -8    8.49    0.47
  -3   1   8    8.69    0.86
   3   1  -8    9.33    0.60
   2  -1  -8   37.62    1.94
   2   1  -8   41.65    2.67
   1  -1  -8   41.41    1.92
  -1   1   8   37.68    2.66
   1   1  -8   39.05    1.91
   0  -1  -8   14.97    0.74
   0   1   8   14.39    1.02
   0   1  -8   14.54    0.74
   1  -1   8    8.23    0.47
  -1  -1  -8    8.60    0.45
  -1   1  -8    8.50    0.45
   1   1   8    8.71    0.63
  -2  -1  -8   16.91    0.71
  -2  -1  -8   16.45    0.84
   2  -1   8   15.81    0.87
   2  -1   8   16.46    0.73
  -2   1  -8   17.55    0.85
   2   1   8   17.72    0.73
   2   1   8   17.02    1.18
  -3  -1  -8    1.91    0.12
   3  -1   8    1.98    0.15
   3  -1   8    1.83    0.24
  -3  -1  -8    2.05    0.11
   3  -1   8    1.97    0.13
  -3  -1  -8    1.76    0.11
  -3   1  -8    2.08    0.12
   3   1   8    1.99    0.22
  -3   1  -8    2.05    0.13
   3   1   8    1.94    0.12
  -3   1  -8    1.98    0.11
  -3   1  -8    2.06    0.16
   4  -1   8   13.90    0.61
   4  -1   8   14.33    0.61
  -4  -1  -8   13.39    0.50
  -4  -1  -8   13.88    0.55
  -4  -1  -8   13.74    0.58
  -4   1  -8   13.30    0.52
   4   1   8   14.11    0.61
  -4   1  -8   13.49    0.50
  -4   1  -8   14.05    0.60
  -5  -1  -8    3.18    0.15
   5  -1   8    3.21    0.18
  -5  -1  -8    3.28    0.15
  -5  -1  -8    3.36    0.16
   5  -1   8    3.02    0.19
  -5   1  -8    3.09    0.16
  -5   1  -8    3.24    0.16
  -5   1  -8    2.96    0.17
   5   1   8    3.49    0.17
   6  -1   8    0.39    0.06
  -6  -1  -8    0.46    0.06
   6  -1   8    0.30    0.05
  -6  -1  -8    0.44    0.06
  -6   1  -8    0.39    0.06
   6   1   8    0.38    0.05
  -6   1  -8    0.43    0.06
  -9  -2   8   16.60    0.87
   9  -2  -8   15.59    0.68
  -8  -2   8   12.94    0.68
   8  -2  -8   13.52    0.53
  -8   2   8   11.06    0.98
  -8   2   8   11.23    1.21
   8   2  -8   11.84    0.53
  -8   2   8   12.04    0.52
  -7  -2   8    6.90    0.91
  -7  -2   8    8.55    0.46
  -7  -2   8    7.99    0.49
   7  -2  -8    8.88    0.38
   7   2  -8    8.04    0.37
  -7   2   8    8.83    0.89
  -7   2   8    8.42    0.36
  -7   2   8    7.66    0.69
  -6  -2   8   31.78    3.41
  -6  -2   8   36.78    1.94
   6  -2  -8   35.50    1.50
  -6  -2   8   36.05    1.92
  -6   2   8   36.17    1.49
   6   2  -8   34.55    1.53
  -6   2   8   40.92    3.39
  -6   2   8   36.19    2.81
  -5  -2   8    5.07    0.71
  -5  -2   8    6.01    0.26
   5  -2  -8    5.62    0.38
   5  -2  -8    5.54    0.28
  -5   2   8    5.95    0.38
   5   2  -8    6.36    0.43
  -5   2   8    5.62    0.27
   5   2  -8    5.66    0.27
  -5   2   8    6.41    0.66
  -4  -2   8    8.62    0.37
  -4  -2   8    6.68    0.90
   4  -2  -8    8.21    0.49
  -4   2   8    7.53    0.46
   4   2  -8    8.10    0.38
  -4   2   8    8.68    0.50
  -4   2   8    9.45    0.87
   4   2  -8    9.59    0.60
  -4   2   8    8.63    0.37
  -3  -2   8   45.79    1.89
   3  -2  -8   46.03    2.26
  -3   2   8   47.20    4.24
  -3   2   8   45.27    2.19
  -3   2   8   45.30    2.26
   2  -2  -8    7.97    0.45
  -2   2   8    7.28    0.59
   2   2  -8    8.84    0.57
  -2   2   8    7.95    0.43
   1  -2  -8   24.86    1.23
   1   2  -8   26.07    1.67
  -1   2   8   23.76    1.69
  -1   2   8   23.79    1.21
   0  -2  -8   40.11    2.01
   0   2   8   41.98    2.80
   0   2   8   41.48    1.98
   1  -2   8   75.22    3.63
  -1  -2  -8   75.06    3.06
  -1   2  -8   71.84    3.61
   1   2   8   74.29    3.57
   1   2   8   77.35    5.05
   1   2   8   78.52    3.15
  -1   2  -8   73.24    3.16
   2  -2   8   11.91    0.54
  -2  -2  -8   12.12    0.51
  -2  -2  -8   12.66    0.49
   2  -2   8   12.38    0.66
   2  -2   8   10.72    0.84
  -2  -2  -8   12.33    0.44
   2   2   8   12.90    0.88
  -2   2  -8   12.27    0.54
  -2   2  -8   11.54    0.63
  -2   2  -8   11.93    0.44
   2   2   8   13.15    0.53
   3  -2   8   17.23    1.28
  -3  -2  -8   19.66    0.75
   3  -2   8   18.57    0.82
  -3  -2  -8   19.25    0.79
  -3   2  -8   19.41    0.82
  -3   2  -8   19.82    0.68
  -3   2  -8   19.12    0.70
   3   2   8   19.94    0.82
  -4  -2  -8   10.12    0.56
   4  -2   8    9.33    0.71
  -4  -2  -8   10.26    0.41
   4  -2   8    9.94    0.46
  -4   2  -8   10.27    0.39
  -4   2  -8   10.05    0.38
  -4   2  -8    9.98    0.45
   4   2   8   10.28    0.45
  -5  -2  -8   25.74    0.97
  -5  -2  -8   25.66    1.35
   5  -2   8   25.22    1.07
  -5   2  -8   25.49    0.88
   5   2   8   24.78    1.08
  -5   2  -8   24.38    1.05
  -5   2  -8   25.46    0.91
  -6  -2  -8   24.59    0.96
   6  -2   8   26.53    1.06
  -6   2  -8   25.19    0.87
   6   2   8   23.82    1.07
  -6   2  -8   25.37    1.04
  -8  -3   8    3.29    0.22
   8  -3  -8    3.16    0.16
  -8   3   8    2.66    0.29
  -7  -3   8    3.62    0.26
   7  -3  -8    3.47    0.18
  -7   3   8    3.27    0.47
  -7   3   8    3.83    0.17
  -7   3   8    3.12    0.34
   6  -3  -8   29.88    1.30
  -6  -3   8   31.13    1.66
  -6  -3   8   30.85    1.67
  -6   3   8   30.15    2.44
  -6   3   8   31.82    1.29
  -6   3   8   33.29    2.94
  -5  -3   8    1.04    0.10
  -5  -3   8    0.85    0.12
   5  -3  -8    1.01    0.09
  -5   3   8    0.92    0.08
  -5   3   8    0.80    0.22
  -4  -3   8   14.33    0.61
   4  -3  -8   13.73    0.63
   4  -3  -8   13.31    0.63
  -4  -3   8   15.13    0.82
   4  -3  -8   14.43    0.79
   4   3  -8   15.47    1.01
  -4   3   8   14.51    0.63
  -4   3   8   16.77    1.43
  -4   3   8   14.25    0.62
   3  -3  -8   12.99    0.56
   3  -3  -8   13.71    0.71
  -3  -3   8   13.01    0.69
  -3  -3   8   12.32    0.56
  -3   3   8   12.95    0.56
   3   3  -8   13.64    0.91
   3   3  -8   12.88    0.58
  -3   3   8   13.76    0.57
   2  -3  -8   81.92    3.97
   2  -3  -8   83.63    3.34
  -2  -3   8   79.68    3.35
  -2  -3   8   85.26    4.02
   2   3  -8   82.01    3.46
  -2   3   8   71.10    5.51
   2   3  -8   87.99    5.48
  -2   3   8   84.31    3.44
  -1  -3   8    1.76    0.13
   1  -3  -8    1.96    0.11
  -1   3   8    1.80    0.22
   1   3  -8    1.99    0.17
  -1   3   8    2.14    0.11
   1   3  -8    1.82    0.13
   0  -3   8   18.66    0.77
   0  -3  -8   18.76    0.75
   0  -3   8   15.59    1.22
   0  -3   8   16.57    0.92
   0  -3  -8   18.64    0.70
   0   3   8   19.11    0.77
   0   3   8   18.13    1.27
   0   3  -8   18.62    0.79
  -1  -3  -8   17.88    0.72
   1  -3   8   16.52    0.89
   1  -3   8   17.79    0.76
  -1  -3  -8   18.09    0.69
   1  -3   8   15.88    1.18
  -1   3  -8   16.99    0.75
   1   3   8   17.86    1.24
  -1   3  -8   17.22    0.76
   1   3   8   18.94    0.75
  -2  -3  -8   51.32    1.96
   2  -3   8   46.48    3.35
   2  -3   8   53.13    2.15
   2   3   8   54.17    2.18
  -2   3  -8   53.29    2.15
  -2   3  -8   51.50    2.19
  -3  -3  -8   31.75    1.64
   3  -3   8   31.58    1.30
  -3  -3  -8   31.38    1.18
   3  -3   8   28.12    2.02
  -3   3  -8   30.88    1.11
  -3   3  -8   30.74    1.29
  -4  -3  -8   18.34    0.70
   4  -3   8   18.86    0.78
   4  -3   8   16.43    1.21
  -4   3  -8   18.30    0.77
  -4   3  -8   17.72    0.64
  -4   3  -8   18.23    0.66
   5  -3   8   39.72    2.72
  -5  -3  -8   40.19    1.59
   5  -3   8   44.68    1.75
  -5   3  -8   42.17    1.44
  -5   3  -8   42.63    1.73
  -5   3  -8   42.72    1.49
  -7  -4   8    6.96    0.33
  -7  -4   8    6.99    0.39
  -7   4   8    5.44    0.54
  -7   4   8    6.65    0.29
   6  -4  -8   14.20    0.63
  -6  -4   8   15.25    0.83
  -6  -4   8   14.97    0.72
  -6   4   8   15.25    0.63
  -6   4   8   14.41    1.44
   5  -4  -8    4.12    0.21
  -5   4   8    4.22    0.50
  -5   4   8    3.97    0.19
  -5   4   8    3.97    0.20
  -4  -4   8   19.77    1.16
  -4  -4   8   20.21    1.10
  -4  -4   8   22.61    1.16
   4  -4  -8   21.96    0.91
  -4   4   8   22.26    0.91
  -4   4   8   23.13    0.92
  -4   4   8   21.63    2.08
  -3  -4   8    5.46    0.34
   3  -4  -8    5.45    0.26
  -3  -4   8    5.48    0.34
  -3   4   8    5.77    0.26
  -2  -4   8    5.14    0.34
   2  -4  -8    5.31    0.21
   2  -4  -8    5.72    0.25
  -2  -4   8    5.09    0.24
   2   4  -8    5.37    0.27
  -2   4   8    5.66    0.25
   1  -4  -8    2.56    0.13
  -1  -4   8    2.43    0.21
  -1  -4   8    2.35    0.15
   1   4  -8    2.33    0.15
  -1   4   8    2.43    0.13
   0  -4   8    2.53    0.21
   0  -4   8    2.86    0.16
   0  -4  -8    2.61    0.19
   0  -4   8    2.55    0.31
   0   4  -8    2.81    0.17
   0   4   8    2.76    0.14
   1  -4   8    5.06    0.32
   1  -4   8    4.75    0.44
   1  -4   8    5.44    0.27
  -1   4  -8    5.71    0.26
  -1   4  -8    5.34    0.27
   2  -4   8   35.40    1.44
   2  -4   8   33.26    2.27
  -2   4  -8   33.95    1.45
  -2   4  -8   35.67    1.47
   3  -4   8    1.32    0.18
   3  -4   8    1.45    0.13
  -3   4  -8    1.45    0.12
  -4  -4  -8   17.11    0.84
   4  -4   8   17.65    1.16
   4  -4   8   16.20    0.73
  -4   4  -8   18.04    0.73
  -5  -4  -8   10.99    0.48
  -5  -4  -8    8.72    0.48
  -6  -5   8   13.53    0.62
  -6  -5   8   12.72    0.62
  -6   5   8   12.64    0.55
   5  -5  -8    4.60    0.21
  -5  -5   8    4.40    0.23
  -5   5   8    4.38    0.20
  -5   5   8    4.67    0.21
   4  -5  -8    7.19    0.27
   4  -5  -8    7.91    0.33
  -4  -5   8    7.09    0.41
  -4   5   8    7.00    0.33
  -4   5   8    7.99    0.33
  -3  -5   8   13.92    0.73
   3  -5  -8   13.92    0.58
  -3   5   8   13.66    0.59
  -2  -5   8   36.91    1.94
  -2  -5   8   36.88    1.81
  -2   5   8   36.61    1.53
   2   5  -8   35.00    1.55
  -1  -5   8   10.93    0.62
   1  -5  -8   11.47    0.63
  -1  -5   8   11.62    0.64
   1   5  -8   11.30    0.51
  -1   5   8   11.57    0.49
   0  -5   8    6.04    0.27
   0  -5  -8    6.20    0.34
   0  -5   8    5.60    0.36
   0   5   8    6.22    0.27
   0   5  -8    6.27    0.29
   1  -5   8   11.72    1.20
   1  -5   8   13.24    0.93
   1  -5   8   13.65    0.69
   1  -5   8   13.96    0.57
  -1   5  -8   14.48    0.59
   2  -5   8    5.18    0.40
  -2  -5  -8    4.44    0.26
   2  -5   8    5.29    0.23
   2  -5   8    4.24    0.47
  -2   5  -8    4.78    0.23
  -2   5  -8    4.94    0.23
   3  -5   8   13.87    0.58
   3  -5   8   14.13    0.94
  -3  -5  -8   14.00    0.67
  -3   5  -8   13.22    0.59
  -4  -6   8   11.02    0.51
   4  -6  -8    9.93    0.57
  -4  -6   8   10.83    0.51
   3  -6  -8   24.53    1.29
  -3  -6   8   24.78    1.15
  -3  -6   8   24.18    1.20
  -3   6   8   23.38    1.56
  -2  -6   8   16.43    0.83
  -1  -6   8    8.29    0.45
   0  -6   8    7.00    0.38
   1  -6   8    0.74    0.06
   1  -6   8    0.69    0.06
  -1  -6  -8    0.67    0.06
   9   0  -9    0.38    0.05
  -8   0   9    1.27    0.09
  -8   0   9    1.07    0.12
  -8   0   9    1.09    0.18
   8   0  -9    1.35    0.10
  -8   0   9    1.11    0.28
  -7   0   9   17.43    1.79
   7   0  -9   18.95    0.79
  -7   0   9   17.22    1.46
  -7   0   9   19.18    0.77
  -7   0   9   18.18    0.99
  -6   0   9    2.64    0.44
  -6   0   9    2.85    0.16
   6   0  -9    2.75    0.16
   6   0  -9    2.60    0.16
  -6   0   9    2.54    0.30
  -5   0   9   10.91    0.48
  -5   0   9   12.17    0.61
   5   0  -9   10.88    0.49
  -5   0   9   10.71    1.14
   5   0  -9   11.15    0.50
  -4   0   9    1.12    0.13
  -4   0   9    1.31    0.27
   4   0  -9    1.14    0.09
  -4   0   9    1.04    0.09
   3   0  -9   65.41    3.06
  -3   0   9   60.62    5.80
   2   0  -9  130.68    6.26
   1   0  -9   15.51    0.79
   0   0  -9    4.30    0.26
  -1   0  -9    0.78    0.10
  -1   0  -9    0.55    0.07
   1   0   9    0.52    0.05
   2   0   9   23.06    1.01
  -2   0  -9   24.60    0.83
  -2   0  -9   23.27    0.91
   2   0   9   22.53    1.56
   2   0   9   24.53    1.02
  -2   0  -9   23.68    1.17
   2   0   9   23.99    1.01
   3   0   9   11.94    0.53
   3   0   9   11.87    0.53
  -3   0  -9   11.43    0.45
  -3   0  -9   11.74    0.43
  -3   0  -9   12.17    0.51
  -3   0  -9   11.68    0.47
  -4   0  -9    8.32    0.34
   4   0   9    9.22    0.40
  -4   0  -9    8.57    0.33
   4   0   9    8.35    0.40
  -4   0  -9    8.84    0.39
  -4   0  -9    8.82    0.36
   5   0   9    9.87    0.43
  -5   0  -9    9.24    0.39
  -5   0  -9    9.76    0.41
  -5   0  -9    9.46    0.35
  -5   0  -9    9.30    0.36
   6   0   9   11.34    0.49
  -6   0  -9   11.13    0.44
  -6   0  -9   10.66    0.39
  -9  -1   9   10.22    0.56
  -9  -1   9   10.42    0.56
   9  -1  -9   10.95    0.45
  -9  -1   9   11.19    0.57
  -9   1   9    9.12    0.83
  -8  -1   9    0.29    0.06
  -8  -1   9    0.30    0.08
   8  -1  -9    0.28    0.05
   8  -1  -9    0.35    0.06
  -8  -1   9    0.42    0.20
  -8   1   9    0.33    0.12
  -8   1   9    0.40    0.21
  -7  -1   9    9.67    0.56
  -7  -1   9    8.36    0.81
   7  -1  -9    9.95    0.44
   7  -1  -9   10.10    0.44
  -7  -1   9   10.30    0.42
  -7  -1   9    8.73    1.03
  -7   1   9    9.79    0.81
  -7   1   9    9.77    0.43
   7   1  -9   10.20    0.44
  -7   1   9    9.87    1.03
  -6  -1   9   47.90    1.92
  -6  -1   9   45.64    4.39
  -6  -1   9   43.42    3.65
   6  -1  -9   47.20    1.94
   6  -1  -9   47.37    1.99
  -6  -1   9   49.42    2.47
  -6   1   9   46.04    3.64
  -6   1   9   46.02    1.92
   6   1  -9   46.50    1.99
  -6   1   9   47.10    4.36
  -6   1   9   48.35    1.93
   5  -1  -9    5.12    0.35
  -5  -1   9    5.59    0.26
  -5  -1   9    4.71    0.49
  -5  -1   9    5.11    0.67
   5  -1  -9    5.52    0.26
   5  -1  -9    5.45    0.26
  -5   1   9    5.62    0.64
   5   1  -9    5.79    0.42
  -5   1   9    5.76    0.25
   5   1  -9    5.42    0.26
  -5   1   9    5.74    0.36
  -4  -1   9   27.57    1.13
  -4  -1   9   25.18    2.59
   4  -1  -9   27.43    1.38
   4  -1  -9   26.14    1.16
  -4  -1   9   27.72    1.35
  -4   1   9   28.54    2.57
   4   1  -9   27.90    1.85
   4   1  -9   26.07    1.16
  -4   1   9   28.59    1.38
  -3  -1   9   30.43    3.27
   3  -1  -9   37.65    1.74
   3   1  -9   36.65    2.36
   3   1  -9   35.15    1.49
  -2  -1   9   11.94    1.33
   2  -1  -9   15.22    0.71
   1  -1  -9    7.99    0.43
   1   1  -9    7.76    0.43
   0  -1  -9   27.85    1.37
   0   1   9   27.86    1.17
   0   1  -9   27.32    1.37
  -1  -1  -9   21.48    0.89
  -1  -1  -9   21.52    1.07
   1   1   9   20.57    1.49
   1   1   9   22.03    0.92
  -1   1  -9   21.57    1.07
   2  -1   9   20.23    0.86
  -2  -1  -9   21.18    0.78
   2  -1   9   18.45    1.34
   2  -1   9   19.62    1.04
  -2  -1  -9   20.68    0.84
  -2  -1  -9   21.03    0.71
  -2  -1  -9   19.96    1.01
   2  -1   9   20.36    0.87
  -2   1  -9   19.94    0.71
  -2   1  -9   19.67    1.01
  -2   1  -9   19.63    0.86
   2   1   9   20.47    1.41
   2   1   9   20.54    0.87
  -3  -1  -9    3.04    0.16
   3  -1   9    2.67    0.30
   3  -1   9    3.03    0.17
  -3  -1  -9    2.85    0.14
  -3  -1  -9    3.00    0.16
   3  -1   9    3.12    0.19
   3   1   9    2.72    0.16
  -3   1  -9    3.07    0.15
  -3   1  -9    3.27    0.18
  -3   1  -9    3.21    0.18
  -3   1  -9    2.94    0.15
  -3   1  -9    3.16    0.17
  -4  -1  -9   30.58    1.20
  -4  -1  -9   30.76    1.08
   4  -1   9   31.02    1.32
  -4  -1  -9   30.93    1.28
   4  -1   9   32.26    1.34
  -4   1  -9   31.90    1.08
  -4   1  -9   31.64    1.30
   4   1   9   31.02    1.33
  -4   1  -9   31.17    1.13
   5  -1   9   33.77    1.43
  -5  -1  -9   33.55    1.28
  -5  -1  -9   31.28    1.15
   5  -1   9   33.09    1.40
  -5   1  -9   34.68    1.20
   5   1   9   34.50    1.43
  -5   1  -9   32.52    1.15
  -5   1  -9   34.12    1.38
  -6  -1  -9    0.50    0.06
  -6  -1  -9    0.45    0.05
   6  -1   9    0.40    0.06
  -6   1  -9    0.55    0.06
   9  -2  -9    2.91    0.15
  -9  -2   9    3.01    0.19
  -8  -2   9   25.83    1.27
   8  -2  -9   25.73    1.00
   8   2  -9   23.69    1.01
  -8   2   9   20.70    1.86
  -8   2   9   22.84    0.98
  -7  -2   9    9.53    0.50
  -7  -2   9    9.15    0.52
   7  -2  -9    9.15    0.40
  -7   2   9    8.57    0.95
   7   2  -9    8.73    0.40
  -7   2   9    9.00    0.38
  -7   2   9    8.02    0.74
  -6  -2   9    1.59    0.17
  -6  -2   9    1.78    0.10
  -6  -2   9    1.69    0.37
   6  -2  -9    1.73    0.13
  -6   2   9    1.77    0.36
   6   2  -9    1.55    0.12
  -6   2   9    1.76    0.12
  -5  -2   9   38.22    2.04
   5  -2  -9   38.23    1.60
  -5  -2   9   39.97    1.58
  -5  -2   9   34.65    3.63
  -5   2   9   40.63    3.60
  -5   2   9   39.11    1.59
   5   2  -9   38.32    1.64
  -4  -2   9    4.75    0.70
   4  -2  -9    5.98    0.28
  -4  -2   9    6.03    0.28
   4  -2  -9    5.90    0.38
  -4   2   9    6.06    0.27
   4   2  -9    5.62    0.28
  -4   2   9    6.88    0.67
  -4   2   9    5.76    0.39
  -4   2   9    6.12    0.27
   4   2  -9    6.29    0.44
   3  -2  -9   18.63    0.98
  -3  -2   9   18.87    0.80
  -3   2   9   17.84    0.99
   3   2  -9   20.79    1.30
   3   2  -9   18.21    0.82
  -3   2   9   19.32    0.81
   2  -2  -9    5.85    0.38
   2  -2  -9    6.20    0.29
  -2  -2   9    6.53    0.30
   2   2  -9    6.16    0.30
  -2   2   9    6.67    0.29
   2   2  -9    6.87    0.46
   1  -2  -9   17.12    0.70
  -1  -2   9   16.77    0.71
   1  -2  -9   16.85    0.86
  -1   2   9   17.39    0.71
  -1   2   9   15.00    1.16
   1   2  -9   16.26    0.72
   0  -2  -9   49.52    1.98
   0  -2  -9   47.47    2.36
   0   2  -9   47.41    2.05
   0   2   9   49.79    2.04
   0   2   9   47.84    3.28
   1  -2   9   20.12    1.46
   1  -2   9   22.43    0.94
  -1  -2  -9   22.04    0.91
  -1  -2  -9   22.60    0.85
  -1  -2  -9   22.30    0.77
  -1   2  -9   22.23    0.94
  -1   2  -9   21.21    0.95
  -1   2  -9   20.93    1.10
   1   2   9   23.80    0.94
   1   2   9   22.19    1.53
  -2  -2  -9   28.49    1.16
  -2  -2  -9   29.24    1.08
  -2  -2  -9   27.90    0.97
   2  -2   9   27.96    1.19
   2  -2   9   25.85    1.85
   2   2   9   30.35    1.20
  -2   2  -9   27.66    0.98
  -2   2  -9   27.71    1.18
  -2   2  -9   27.76    1.02
  -3  -2  -9   45.61    1.60
   3  -2   9   44.25    3.05
   3  -2   9   47.62    1.96
  -3  -2  -9   47.52    1.92
  -3  -2  -9   49.04    1.79
  -3   2  -9   46.98    1.68
  -3   2  -9   48.74    1.61
  -3   2  -9   45.94    1.95
   3   2   9   47.36    1.99
   4  -2   9    7.19    0.54
  -4  -2  -9    7.70    0.41
   4  -2   9    7.48    0.35
  -4  -2  -9    7.62    0.31
  -4   2  -9    7.05    0.28
  -4   2  -9    6.93    0.29
   4   2   9    7.14    0.33
  -4   2  -9    6.87    0.33
   5  -2   9   36.49    1.48
  -5  -2  -9   36.34    1.89
  -5  -2  -9   37.22    1.88
  -5  -2  -9   35.78    1.35
   5   2   9   33.63    1.50
  -5   2  -9   35.54    1.27
  -5   2  -9   34.98    1.22
  -5   2  -9   33.93    1.46
  -8  -3   9   17.02    0.87
   8  -3  -9   15.09    0.67
  -7  -3   9   18.82    1.00
   7  -3  -9   18.27    0.78
  -7   3   9   18.48    0.77
  -7   3   9   18.03    1.77
  -6  -3   9    1.70    0.18
  -6  -3   9    1.71    0.12
   6  -3  -9    1.87    0.12
  -6  -3   9    1.84    0.12
   6   3  -9    1.52    0.12
  -6   3   9    1.73    0.34
  -6   3   9    1.80    0.12
  -5  -3   9   14.65    0.81
   5  -3  -9   13.68    0.62
  -5  -3   9   15.15    0.80
  -5   3   9   14.36    0.62
   5   3  -9   13.92    0.64
  -5   3   9   15.14    1.43
   4  -3  -9   62.59    2.69
  -4  -3   9   66.19    3.20
   4  -3  -9   63.74    2.67
  -4  -3   9   66.86    2.66
  -4   3   9   67.45    2.74
   4   3  -9   65.55    2.76
  -4   3   9   64.56    2.69
  -3  -3   9    7.98    0.36
   3  -3  -9    7.42    0.47
  -3  -3   9    8.14    0.46
   3  -3  -9    7.77    0.36
   3   3  -9    8.90    0.58
   3   3  -9    8.45    0.38
  -3   3   9    7.49    0.36
  -3   3   9    8.16    0.36
   2  -3  -9   19.81    1.11
  -2  -3   9   20.80    1.11
   2  -3  -9   21.99    0.91
   2  -3  -9   22.86    0.76
  -2  -3   9   21.58    0.92
   2   3  -9   21.69    0.94
   2   3  -9   22.14    1.48
  -2   3   9   23.25    1.43
  -2   3   9   21.76    0.93
  -1  -3   9    8.27    0.50
  -1  -3   9    8.72    0.41
   1  -3  -9    9.49    0.33
   1  -3  -9    9.39    0.39
   1   3  -9    8.65    0.41
  -1   3   9    7.84    0.67
  -1   3   9    9.21    0.39
   1   3  -9    8.47    0.63
  -1   3   9    9.96    0.62
   0  -3   9    6.95    0.41
   0  -3   9    7.06    0.34
   0  -3  -9    7.04    0.27
   0  -3   9    6.25    0.55
   0  -3  -9    7.13    0.31
   0  -3  -9    7.10    0.30
   0   3   9    6.91    0.56
   0   3  -9    7.04    0.34
   0   3   9    7.73    0.51
   0   3  -9    7.15    0.34
   0   3   9    7.40    0.32
   1  -3   9   46.94    3.34
   1  -3   9   50.70    2.54
  -1  -3  -9   50.83    1.75
  -1  -3  -9   51.04    1.95
  -1  -3  -9   51.55    2.10
   1   3   9   52.95    2.17
  -1   3  -9   51.57    2.18
  -1   3  -9   50.57    2.14
   1   3   9   57.20    2.17
   2  -3   9   11.59    0.84
  -2  -3  -9   11.57    0.48
   2  -3   9   11.84    0.53
  -2   3  -9   11.95    0.53
  -2   3  -9   11.51    0.45
   2   3   9   13.21    0.52
   3  -3   9   21.98    1.57
  -3  -3  -9   23.47    0.91
   3  -3   9   24.35    1.00
  -3  -3  -9   23.00    1.27
  -3   3  -9   24.53    1.00
  -3   3  -9   24.34    0.86
   3   3   9   23.67    1.01
  -4  -3  -9    5.58    0.24
   4  -3   9    5.48    0.43
   4  -3   9    6.19    0.27
   4   3   9    5.02    0.25
  -4   3  -9    5.40    0.22
  -4   3  -9    5.73    0.26
  -4   3  -9    5.38    0.22
   5  -3   9    0.33    0.05
  -5  -3  -9    0.42    0.05
  -5   3  -9    0.39    0.05
  -7  -4   9    4.31    0.22
  -7  -4   9    4.42    0.28
  -7   4   9    4.36    0.20
  -6  -4   9    5.34    0.33
   6  -4  -9    4.70    0.24
  -6   4   9    5.53    0.24
   5  -4  -9   11.30    0.50
  -5   4   9   11.89    0.50
  -5   4   9   11.25    0.50
  -5   4   9   11.49    1.14
  -4  -4   9   25.83    1.36
   4  -4  -9   25.06    1.05
  -4  -4   9   24.04    1.27
  -4   4   9   26.10    1.07
   4   4  -9   25.46    1.09
  -4   4   9   24.98    1.05
   3  -4  -9   10.34    0.39
  -3  -4   9   10.46    0.61
  -3  -4   9   10.79    0.59
   3  -4  -9   10.45    0.46
  -3   4   9   10.83    0.47
   3   4  -9   11.55    0.49
   2  -4  -9   15.73    0.57
  -2  -4   9   16.02    0.86
  -2  -4   9   16.20    0.69
   2  -4  -9   17.02    0.69
   2   4  -9   16.45    0.72
  -2   4   9   16.77    1.09
  -2   4   9   16.34    0.70
   1  -4  -9    1.41    0.08
   1  -4  -9    1.29    0.08
  -1  -4   9    0.81    0.13
  -1  -4   9    1.14    0.11
   1  -4  -9    1.11    0.09
   1   4  -9    1.08    0.09
  -1   4   9    1.12    0.09
  -1   4   9    1.21    0.14
   0  -4   9    3.80    0.26
   0  -4   9    3.20    0.35
   0  -4  -9    3.51    0.18
   0  -4   9    3.97    0.20
   0   4   9    3.85    0.18
   0   4  -9    3.79    0.20
  -1  -4  -9    3.80    0.19
   1  -4   9    4.23    0.27
   1  -4   9    3.92    0.38
   1  -4   9    4.02    0.22
  -1   4  -9    4.17    0.22
   1   4   9    4.52    0.20
  -1   4  -9    4.24    0.22
   1   4   9    4.15    0.20
  -2  -4  -9    4.19    0.20
   2  -4   9    4.67    0.38
   2  -4   9    4.37    0.23
  -2   4  -9    4.46    0.23
  -2   4  -9    4.41    0.22
   3  -4   9    2.84    0.17
   3  -4   9    2.63    0.27
  -3   4  -9    2.75    0.16
   4  -4   9    5.13    0.38
  -4  -4  -9    4.93    0.26
  -4   4  -9    4.88    0.23
  -6  -5   9    9.27    0.44
  -6  -5   9    9.19    0.44
  -5  -5   9    7.69    0.37
   5  -5  -9    7.11    0.32
   5  -5  -9    7.41    0.27
  -5   5   9    8.25    0.52
  -5   5   9    7.48    0.33
   4  -5  -9   12.47    0.45
  -4  -5   9   12.49    0.66
   4  -5  -9   12.68    0.53
  -4   5   9   14.03    0.85
  -4   5   9   12.22    0.54
  -4   5   9   12.66    0.55
   3  -5  -9    0.49    0.05
  -3  -5   9    0.76    0.11
   3   5  -9    0.61    0.07
  -3   5   9    0.64    0.06
  -3   5   9    0.42    0.11
  -2  -5   9    4.00    0.29
   2  -5  -9    4.00    0.27
  -2  -5   9    4.40    0.26
  -2   5   9    4.74    0.20
  -2   5   9    4.50    0.33
   2   5  -9    4.38    0.22
  -1  -5   9    1.65    0.17
  -1  -5   9    1.46    0.13
  -1   5   9    1.49    0.09
   1   5  -9    1.55    0.12
   0  -5   9    6.56    0.37
   0  -5   9    6.45    0.27
   0   5  -9    6.53    0.30
   0   5   9    5.91    0.28
   1  -5   9   30.77    2.02
   1  -5   9   31.34    1.27
  -1   5  -9   30.45    1.31
   2  -5   9    2.70    0.26
   2  -5   9    2.43    0.13
  -2   5  -9    2.35    0.14
  -3  -5  -9    2.42    0.13
  -2  -6   9    6.05    0.33
   8   0 -10    5.62    0.28
  -8   0  10    6.67    0.36
  -8   0  10    6.47    0.27
   8   0 -10    6.70    0.29
  -8   0  10    5.41    0.52
  -8   0  10    5.00    0.68
  -7   0  10    0.11    0.21
  -7   0  10    0.12    0.05
   7   0 -10    0.21    0.05
  -7   0  10    0.19    0.07
   7   0 -10    0.07    0.05
  -7   0  10    0.06    0.11
   6   0 -10    0.35    0.06
  -6   0  10    0.30    0.13
  -6   0  10    0.42    0.07
   6   0 -10    0.35    0.06
  -6   0  10    0.15    0.20
  -5   0  10    1.28    0.15
   5   0 -10    0.77    0.08
  -5   0  10    0.77    0.25
  -5   0  10    1.06    0.09
   5   0 -10    1.07    0.09
   4   0 -10   37.57    1.59
   4   0 -10   38.08    1.62
  -4   0  10   41.55    1.89
  -4   0  10   35.92    1.58
  -4   0  10   35.58    3.57
  -4   0  10   40.39    1.58
   3   0 -10    6.17    0.29
   3   0 -10    6.38    0.37
   2   0 -10    2.70    0.20
  -1   0  10   17.80    0.78
   1   0 -10   18.63    0.93
   0   0  10   30.83    1.28
   0   0 -10   29.37    1.49
  -1   0 -10    0.16    0.05
   1   0  10    0.06    0.10
   1   0  10    0.03    0.04
   1   0  10    0.10    0.07
  -1   0 -10    0.08    0.05
  -1   0 -10    0.12    0.05
  -1   0 -10    0.17    0.07
   2   0  10    6.69    0.30
   2   0  10    6.41    0.31
  -2   0 -10    6.57    0.26
  -2   0 -10    6.38    0.30
  -2   0 -10    6.38    0.26
   2   0  10    6.16    0.49
  -2   0 -10    6.33    0.27
  -3   0 -10    8.17    0.37
  -3   0 -10    8.15    0.34
   3   0  10    8.16    0.38
  -3   0 -10    8.24    0.31
   3   0  10    8.69    0.38
  -3   0 -10    7.60    0.32
  -4   0 -10    1.82    0.11
  -4   0 -10    1.81    0.12
   4   0  10    1.93    0.14
  -4   0 -10    1.83    0.11
   4   0  10    1.86    0.12
  -4   0 -10    1.73    0.11
  -5   0 -10    2.36    0.12
  -5   0 -10    2.50    0.12
  -5   0 -10    2.32    0.12
  -5   0 -10    2.46    0.12
   5   0  10    2.48    0.13
   5   0  10    2.20    0.14
  -9  -1  10   15.98    0.80
  -9  -1  10   13.95    0.79
   8  -1 -10   33.03    1.33
  -8  -1  10   31.09    1.71
  -8  -1  10   33.23    1.69
   8  -1 -10   32.45    1.36
  -8   1  10   27.89    2.49
   8   1 -10   33.55    1.36
  -8   1  10   32.52    1.32
   7  -1 -10   13.91    0.60
   7  -1 -10   14.26    0.60
  -7  -1  10   14.44    0.58
  -7  -1  10   12.26    1.38
  -7  -1  10   14.22    0.76
  -7   1  10   13.74    0.59
   7   1 -10   14.44    0.61
  -7   1  10   12.90    1.38
  -7   1  10   12.63    1.11
  -7   1  10   13.86    0.76
   6  -1 -10    0.54    0.07
  -6  -1  10    0.47    0.07
   6  -1 -10    0.52    0.07
  -6  -1  10    0.45    0.09
  -6  -1  10    0.69    0.26
  -6   1  10    0.64    0.07
   6   1 -10    0.59    0.07
  -6   1  10    0.66    0.24
  -6   1  10    0.65    0.08
  -5  -1  10   37.89    3.87
   5  -1 -10   41.19    1.72
  -5  -1  10   41.98    1.70
   5  -1 -10   41.44    1.75
  -5   1  10   44.65    1.71
   5   1 -10   41.19    1.75
  -5   1  10   40.10    3.85
  -4  -1  10    4.70    0.64
   4  -1 -10    5.46    0.25
   4  -1 -10    5.04    0.34
   4  -1 -10    5.47    0.20
  -4  -1  10    5.46    0.32
  -4  -1  10    5.33    0.25
   4   1 -10    4.62    0.25
   4   1 -10    4.91    0.25
  -4   1  10    5.49    0.25
  -4   1  10    5.79    0.35
  -4   1  10    5.22    0.62
   3  -1 -10   33.55    1.61
  -3  -1  10   33.74    1.34
  -3  -1  10   28.40    3.03
   3   1 -10   33.34    1.38
   2  -1 -10    7.99    0.48
  -2   1  10    8.72    0.38
   2   1 -10    8.69    0.40
  -2   1  10    9.11    0.38
   1  -1 -10   36.94    1.86
   1   1 -10   35.53    1.85
  -1   1  10   40.81    1.60
   1   1 -10   37.48    1.61
   0  -1 -10    4.47    0.21
   0  -1 -10    4.45    0.18
   0  -1  10    4.27    0.37
   0  -1 -10    4.35    0.28
   0  -1  10    4.53    0.28
   0  -1 -10    4.42    0.21
   0   1 -10    4.04    0.27
   0   1  10    4.38    0.21
   0   1  10    4.94    0.36
   0   1 -10    4.44    0.23
   1  -1  10    7.16    0.43
   1  -1  10    7.61    0.57
  -1  -1 -10    7.65    0.32
  -1  -1 -10    7.62    0.35
   1  -1  10    8.11    0.37
  -1  -1 -10    7.98    0.29
  -1  -1 -10    7.48    0.43
  -1   1 -10    8.13    0.30
   1   1  10    7.48    0.56
   1   1  10    8.18    0.35
  -1   1 -10    7.96    0.36
   1   1  10    7.54    0.36
  -1   1 -10    7.70    0.31
  -1   1 -10    7.53    0.43
  -2  -1 -10    4.47    0.19
   2  -1  10    3.91    0.38
  -2  -1 -10    4.50    0.22
   2  -1  10    4.49    0.24
   2  -1  10    4.43    0.23
  -2  -1 -10    4.66    0.21
  -2   1 -10    4.84    0.20
  -2   1 -10    4.71    0.20
  -2   1 -10    4.66    0.23
   2   1  10    4.66    0.22
  -3  -1 -10    0.48    0.06
   3  -1  10    0.35    0.06
   3  -1  10    0.29    0.07
  -3  -1 -10    0.68    0.07
   3  -1  10    0.62    0.14
  -3  -1 -10    0.42    0.06
  -3  -1 -10    0.52    0.06
  -3   1 -10    0.42    0.07
  -3   1 -10    0.33    0.07
   3   1  10    0.43    0.06
  -3   1 -10    0.42    0.06
  -3   1 -10    0.48    0.07
   4  -1  10    2.20    0.15
  -4  -1 -10    2.21    0.13
  -4  -1 -10    2.47    0.13
  -4  -1 -10    2.37    0.12
   4  -1  10    2.51    0.14
  -4   1 -10    2.37    0.14
  -4   1 -10    2.33    0.13
  -4   1 -10    2.46    0.13
   4   1  10    2.66    0.14
  -5  -1 -10    5.54    0.23
  -5  -1 -10    4.99    0.30
  -5  -1 -10    4.64    0.20
   5  -1  10    5.19    0.25
   5   1  10    5.53    0.25
  -5   1 -10    5.24    0.21
  -5   1 -10    5.61    0.22
  -5   1 -10    5.31    0.24
  -8  -2  10    4.87    0.28
   8  -2 -10    4.55    0.21
  -8   2  10    3.96    0.20
   8   2 -10    4.45    0.21
  -8   2  10    3.70    0.38
   8   2 -10    4.31    0.18
   7  -2 -10   36.11    1.44
  -7  -2  10   35.85    1.85
  -7  -2  10   35.75    1.83
  -7   2  10   32.67    3.23
  -7   2  10   32.54    1.43
   7   2 -10   34.14    1.47
   6  -2 -10   66.97    2.68
  -6  -2  10   55.49    6.02
  -6  -2  10   65.74    3.41
  -6  -2  10   67.16    2.64
  -6   2  10   69.97    2.67
   6   2 -10   66.06    2.74
  -6   2  10   62.74    6.00
  -5  -2  10   22.99    0.89
  -5  -2  10   18.21    2.08
  -5  -2  10   22.07    1.16
   5  -2 -10   21.79    0.91
  -5   2  10   22.16    0.90
  -5   2  10   20.56    2.05
   5   2 -10   21.73    0.93
   5   2 -10   20.88    0.78
   4  -2 -10   25.09    1.10
  -4  -2  10   26.28    1.32
  -4  -2  10   26.25    1.41
  -4  -2  10   26.61    1.09
  -4   2  10   29.19    1.71
   4   2 -10   25.54    1.13
  -4   2  10   26.45    1.09
  -4   2  10   25.80    1.35
   4   2 -10   24.64    0.95
   3  -2 -10   16.93    0.58
   3  -2 -10   15.74    0.71
  -3  -2  10   16.32    0.85
  -3  -2  10   16.63    0.71
   3  -2 -10   16.02    0.87
  -3   2  10   17.17    0.71
  -3   2  10   15.71    0.70
   3   2 -10   16.75    1.14
   3   2 -10   15.66    0.72
  -3   2  10   18.79    1.10
   2  -2 -10    6.01    0.28
  -2  -2  10    5.96    0.29
   2  -2 -10    5.63    0.37
  -2  -2  10    6.27    0.36
   2  -2 -10    6.03    0.23
  -2   2  10    6.30    0.28
   2   2 -10    5.94    0.30
  -2   2  10    5.99    0.28
  -2   2  10    6.67    0.45
   2   2 -10    5.61    0.29
   1  -2 -10    2.04    0.11
  -1  -2  10    1.98    0.18
  -1  -2  10    2.10    0.15
  -1  -2  10    1.75    0.25
   1  -2 -10    1.93    0.12
   1  -2 -10    1.86    0.18
  -1   2  10    1.98    0.12
   1   2 -10    1.87    0.13
  -1   2  10    1.98    0.22
   1   2 -10    1.90    0.14
  -1   2  10    1.77    0.13
   0  -2  10   23.03    1.62
   0  -2  10   24.39    1.23
   0  -2 -10   24.26    1.01
   0  -2 -10   24.53    0.94
   0  -2  10   24.37    1.04
   0  -2 -10   25.05    0.85
   0   2  10   26.83    1.60
   0   2 -10   23.56    1.05
   0   2  10   22.62    1.70
   0   2  10   25.38    1.04
   0   2 -10   24.98    0.89
   0   2 -10   24.10    1.04
  -1  -2 -10   16.62    0.59
   1  -2  10   15.60    1.13
  -1  -2 -10   17.53    0.65
  -1  -2 -10   16.56    0.70
   1  -2  10   16.86    0.72
   1   2  10   16.75    0.72
  -1   2 -10   16.31    0.62
  -1   2 -10   16.35    0.72
  -2  -2 -10   10.47    0.38
   2  -2  10   10.00    0.47
   2  -2  10    9.52    0.74
  -2  -2 -10   10.88    0.42
  -2  -2 -10   10.67    0.44
   2   2  10   11.02    0.46
  -2   2 -10   10.15    0.46
  -2   2 -10    9.79    0.40
  -2   2 -10   10.22    0.38
  -3  -2 -10    9.26    0.35
   3  -2  10    9.39    0.69
   3  -2  10   10.16    0.44
  -3  -2 -10    9.41    0.40
  -3  -2 -10   10.09    0.40
  -3   2 -10    9.38    0.43
  -3   2 -10    9.36    0.37
   3   2  10    9.69    0.43
  -3   2 -10   10.00    0.36
   4  -2  10   27.04    1.08
  -4  -2 -10   25.21    1.37
   4  -2  10   23.40    1.68
  -4  -2 -10   27.19    0.99
  -4   2 -10   26.16    0.93
   4   2  10   24.82    1.09
   5  -2  10   17.58    0.74
  -5  -2 -10   16.78    0.67
  -5   2 -10   17.80    0.63
  -5   2 -10   17.32    0.61
  -8  -3  10    1.01    0.11
   7  -3 -10    4.27    0.21
  -7  -3  10    4.49    0.28
  -7   3  10    4.48    0.20
   7   3 -10    3.93    0.21
   6  -3 -10    3.48    0.18
  -6  -3  10    3.76    0.21
  -6  -3  10    3.01    0.21
  -6  -3  10    3.65    0.26
  -6   3  10    3.35    0.46
   6   3 -10    3.55    0.19
  -6   3  10    3.98    0.18
   5  -3 -10    9.94    0.46
  -5  -3  10    9.94    0.60
  -5  -3  10   11.17    0.59
  -5   3  10   11.41    0.71
  -5   3  10   10.46    0.45
   5   3 -10   10.15    0.47
  -5   3  10    9.83    1.05
  -4  -3  10   19.22    1.03
  -4  -3  10   20.97    0.84
   4  -3 -10   20.07    0.70
  -4   3  10   19.80    0.86
  -4   3  10   19.29    0.85
  -4   3  10   21.97    1.33
   4   3 -10   19.97    0.88
  -3  -3  10   38.53    1.95
   3  -3 -10   38.79    1.34
  -3  -3  10   40.75    1.62
   3  -3 -10   38.74    1.62
  -3   3  10   37.31    1.62
  -3   3  10   41.49    2.54
  -3   3  10   39.59    1.66
   3   3 -10   39.04    1.68
   2  -3 -10    8.15    0.31
  -2  -3  10    8.42    0.38
  -2  -3  10    7.98    0.48
   2  -3 -10    8.20    0.37
   2   3 -10    8.10    0.39
  -2   3  10    8.44    0.37
  -2   3  10    8.81    0.58
   1  -3 -10    2.74    0.15
   1  -3 -10    2.97    0.15
  -1  -3  10    3.13    0.18
   1  -3 -10    2.68    0.13
  -1  -3  10    2.72    0.23
   1   3 -10    3.11    0.17
  -1   3  10    2.75    0.15
  -1   3  10    3.11    0.26
   1   3 -10    2.70    0.18
   0  -3 -10   35.91    1.45
   0  -3  10   37.27    1.77
   0  -3  10   31.51    2.31
   0  -3  10   36.07    1.48
   0  -3 -10   34.41    1.35
   0  -3 -10   34.39    1.21
   0   3 -10   35.65    1.48
   0   3 -10   35.20    1.51
   0   3 -10   34.47    1.27
   0   3  10   35.24    1.49
   0   3  10   38.49    2.29
   1  -3  10   59.37    2.27
   1  -3  10   52.64    3.55
  -1  -3 -10   56.29    2.08
  -1  -3 -10   53.36    1.86
  -1  -3 -10   55.54    2.23
  -1   3 -10   53.22    2.32
  -1   3 -10   53.31    2.27
   1   3  10   56.90    2.31
  -1   3 -10   52.78    1.95
   2  -3  10    4.34    0.22
  -2  -3 -10    4.01    0.19
  -2  -3 -10    4.02    0.24
   2  -3  10    3.66    0.35
  -2   3 -10    3.87    0.21
  -2   3 -10    4.11    0.18
   2   3  10    3.94    0.19
  -3  -3 -10    1.47    0.11
  -3  -3 -10    1.52    0.10
   3  -3  10    1.45    0.12
   3  -3  10    1.24    0.18
  -3  -3 -10    1.57    0.10
  -3   3 -10    1.57    0.11
  -3   3 -10    1.54    0.09
   3   3  10    1.40    0.10
  -4  -3 -10    2.22    0.11
   4  -3  10    2.39    0.13
   4  -3  10    2.02    0.22
   4   3  10    2.03    0.12
  -4   3 -10    2.10    0.11
  -4   3 -10    2.13    0.12
  -7  -4  10    3.66    0.22
   7  -4 -10    3.47    0.14
  -7  -4  10    3.38    0.18
  -7   4  10    3.44    0.17
   6  -4 -10    6.77    0.24
   6  -4 -10    5.81    0.29
  -6   4  10    6.95    0.46
  -6   4  10    6.82    0.29
   5  -4 -10    0.52    0.06
   5  -4 -10    0.51    0.06
   5   4 -10    0.53    0.06
  -5   4  10    0.56    0.06
  -5   4  10    0.52    0.11
  -4  -4  10    5.80    0.34
  -4  -4  10    5.92    0.33
   4  -4 -10    5.54    0.26
   4  -4 -10    5.92    0.22
  -4   4  10    5.48    0.26
  -4   4  10    6.44    0.43
   4   4 -10    5.48    0.28
  -4   4  10    5.29    0.26
   3  -4 -10   10.87    0.38
  -3  -4  10   10.45    0.60
   3  -4 -10   10.84    0.45
  -3  -4  10   10.32    0.57
  -3   4  10    9.68    0.45
   3   4 -10   10.32    0.48
  -3   4  10   11.22    0.72
  -3   4  10   10.48    0.46
   2  -4 -10   14.64    0.60
   2  -4 -10   13.80    0.50
  -2  -4  10   14.23    0.60
   2  -4 -10   13.53    0.56
  -2  -4  10   14.39    0.76
   2   4 -10   13.97    0.63
  -2   4  10   14.27    0.61
  -2   4  10   14.96    0.95
   1  -4 -10    3.03    0.14
   1  -4 -10    2.96    0.16
   1  -4 -10    3.26    0.15
  -1  -4  10    2.96    0.17
  -1  -4  10    3.04    0.24
   1   4 -10    3.18    0.18
  -1   4  10    3.22    0.16
  -1   4  10    3.63    0.28
   0  -4 -10    3.13    0.16
   0  -4  10    2.83    0.33
   0  -4  10    3.23    0.24
   0  -4  10    4.17    0.19
   0   4 -10    3.45    0.18
   0   4 -10    3.19    0.19
   0   4  10    3.10    0.16
   1  -4  10    1.47    0.12
  -1  -4 -10    1.32    0.09
   1  -4  10    1.36    0.19
  -1   4 -10    1.53    0.12
  -1   4 -10    1.34    0.11
   1   4  10    1.35    0.09
  -2  -4 -10    3.76    0.17
   2  -4  10    3.91    0.33
   2  -4  10    3.60    0.20
  -2   4 -10    3.67    0.19
   2   4  10    3.25    0.17
  -3  -4 -10    3.13    0.15
   3  -4  10    3.45    0.30
  -3   4 -10    3.36    0.17
   5  -5 -10   15.90    0.57
  -5  -5  10   15.87    0.79
  -5   5  10   16.36    0.69
  -5   5  10   17.86    1.08
  -4  -5  10    8.26    0.44
   4  -5 -10    8.31    0.35
   4  -5 -10    8.15    0.30
  -4   5  10    7.74    0.36
  -4   5  10    9.58    0.57
  -4   5  10    7.85    0.36
  -3  -5  10    1.80    0.17
   3  -5 -10    1.78    0.10
  -3   5  10    2.16    0.20
   3   5 -10    1.82    0.12
  -3   5  10    1.97    0.11
  -2  -5  10    0.96    0.12
  -2  -5  10    0.85    0.08
   2  -5 -10    0.77    0.09
  -2   5  10    0.83    0.07
  -2   5  10    0.92    0.12
   2   5 -10    1.03    0.08
  -1  -5  10    9.02    0.44
  -1  -5  10    7.97    0.44
   1   5 -10    7.19    0.35
  -1   5  10    7.11    0.34
   0  -5  10    0.04    0.06
   0   5 -10    0.04    0.04
   0   5  10   -0.07    0.03
   0   5  10    0.05    0.03
   1  -5  10    7.61    0.52
  -1   5 -10    6.70    0.32
  -2  -5 -10    0.88    0.07
   8   0 -11    0.13    0.04
  -8   0  11    0.09    0.06
  -8   0  11    0.03    0.04
   8   0 -11    0.03    0.04
  -7   0  11   27.58    1.42
  -7   0  11   23.19    2.53
  -7   0  11   26.64    1.10
   7   0 -11   27.41    1.12
   7   0 -11   27.91    1.14
  -6   0  11    8.43    0.97
   6   0 -11    9.18    0.41
   6   0 -11    9.09    0.41
  -6   0  11    9.04    0.40
  -5   0  11    0.95    0.28
   5   0 -11    1.55    0.12
  -5   0  11    1.42    0.12
   5   0 -11    1.43    0.11
   4   0 -11   27.45    1.20
   4   0 -11   27.83    1.18
   4   0 -11   27.82    1.01
  -4   0  11   24.93    2.65
  -4   0  11   29.54    1.17
  -4   0  11   30.35    1.42
  -3   0  11    1.30    0.12
  -3   0  11    1.47    0.20
   3   0 -11    1.21    0.11
   3   0 -11    1.18    0.11
   3   0 -11    1.51    0.17
  -3   0  11    1.25    0.13
   2   0 -11   22.39    0.95
  -2   0  11   22.39    0.94
   2   0 -11   20.79    1.13
  -2   0  11   23.57    1.47
   1   0 -11    0.27    0.06
  -1   0  11    0.62    0.13
   1   0 -11    0.48    0.10
  -1   0  11    0.42    0.07
   1   0 -11    0.48    0.06
   0   0 -11   89.66    2.99
   0   0  11   92.43    3.64
   0   0 -11   86.94    3.12
   0   0  11   88.34    3.72
   0   0 -11   83.25    4.26
   0   0  11   88.52    5.67
   0   0 -11   89.13    3.64
   1   0  11   12.12    0.64
  -1   0 -11   12.20    0.53
  -1   0 -11   12.14    0.46
   1   0  11   11.97    0.85
  -1   0 -11   12.02    0.53
   1   0  11   12.54    0.55
  -1   0 -11   12.16    0.44
   1   0  11   12.72    0.54
  -2   0 -11    0.54    0.07
  -2   0 -11    0.56    0.07
  -2   0 -11    0.66    0.08
   2   0  11    0.46    0.07
   2   0  11    0.53    0.06
   2   0  11    0.64    0.14
   3   0  11    4.18    0.21
  -3   0 -11    4.30    0.18
   3   0  11    4.28    0.22
  -3   0 -11    4.21    0.18
  -3   0 -11    4.06    0.21
  -3   0 -11    4.06    0.19
  -3   0 -11    3.93    0.21
   4   0  11    3.38    0.19
  -4   0 -11    3.49    0.17
  -4   0 -11    3.20    0.15
  -4   0 -11    3.40    0.16
  -4   0 -11    3.52    0.15
   4   0  11    3.56    0.18
  -5   0 -11   37.64    1.28
  -8  -1  11    2.59    0.18
   8  -1 -11    2.82    0.15
  -8  -1  11    2.93    0.20
   8   1 -11    2.72    0.15
  -8   1  11    2.66    0.14
   7  -1 -11   35.36    1.44
  -7  -1  11   37.63    1.84
  -7  -1  11   29.04    3.26
  -7  -1  11   35.41    1.42
  -7   1  11   32.34    3.25
  -7   1  11   34.04    1.43
   7   1 -11   36.76    1.48
  -7   1  11   36.23    1.84
   6  -1 -11   58.22    2.31
  -6  -1  11   58.59    2.28
  -6  -1  11   51.20    5.18
  -6  -1  11   55.47    2.93
   6   1 -11   59.25    2.36
  -6   1  11   55.09    2.29
  -6   1  11   51.75    5.16
  -5  -1  11   18.24    2.00
  -5  -1  11   20.79    0.86
   5  -1 -11   20.98    0.87
   5  -1 -11   20.51    0.75
   5   1 -11   20.54    0.75
   5   1 -11   22.10    0.89
   5   1 -11   19.71    0.87
  -5   1  11   19.39    1.98
  -5   1  11   22.14    0.87
   4  -1 -11   68.38    2.30
  -4  -1  11   57.95    6.28
  -4  -1  11   67.06    3.32
   4  -1 -11   65.95    2.41
   4  -1 -11   66.66    2.81
   4   1 -11   67.59    2.81
  -4   1  11   70.16    2.80
   4   1 -11   67.72    2.41
  -4   1  11   78.59    4.36
   4   1 -11   69.33    2.87
   3  -1 -11   78.95    2.60
   3  -1 -11   71.44    3.72
   3  -1 -11   74.66    3.16
  -3  -1  11   79.98    3.75
  -3  -1  11   69.81    3.14
   3   1 -11   76.54    3.17
   3   1 -11   75.26    3.24
  -3   1  11   88.79    4.92
  -3   1  11   75.72    3.16
   3   1 -11   75.91    2.71
  -2  -1  11   65.51    4.31
   2  -1 -11   62.81    3.26
   2  -1 -11   66.38    2.77
   2  -1 -11   67.34    2.27
  -2  -1  11   70.36    3.28
  -2  -1  11   66.37    2.77
   2   1 -11   66.55    2.38
  -2   1  11   65.79    2.82
   2   1 -11   65.73    2.83
   2   1 -11   67.15    2.77
  -2   1  11   74.28    4.31
  -2   1  11   66.47    2.76
   1  -1 -11   18.04    0.78
  -1  -1  11   18.77    0.79
   1  -1 -11   17.68    0.94
   1  -1 -11   18.67    0.72
  -1  -1  11   19.56    0.94
  -1  -1  11   17.88    1.23
   1  -1 -11   19.01    0.64
   1  -1 -11   17.68    0.77
  -1   1  11   19.59    1.22
   1   1 -11   15.19    0.93
  -1   1  11   19.04    0.79
   1   1 -11   18.16    0.79
  -1   1  11   18.82    0.78
   1   1 -11   18.19    0.68
   0  -1  11   53.11    2.15
   0  -1 -11   52.61    2.12
   0  -1 -11   53.48    1.96
   0  -1 -11   53.30    1.76
   0  -1  11   49.96    3.35
   0  -1  11   53.02    2.15
   0  -1  11   54.66    2.54
   0   1  11   51.27    2.18
   0   1  11   53.11    3.34
   0   1  11   51.27    2.14
   0   1 -11   46.49    2.52
   0   1 -11   51.68    1.84
   0   1 -11   50.99    2.15
   0   1 -11   49.35    1.76
  -1  -1 -11   30.56    1.05
   1  -1  11   30.77    1.28
  -1  -1 -11   30.36    1.26
   1  -1  11   29.06    1.99
  -1  -1 -11   30.47    1.16
  -1   1 -11   30.04    1.05
  -1   1 -11   29.69    1.27
  -1   1 -11   29.70    1.09
   1   1  11   29.63    1.27
   1   1  11   32.71    1.29
   1   1  11   29.77    1.98
   2  -1  11    8.36    0.40
  -2  -1 -11    8.49    0.32
  -2  -1 -11    8.78    0.37
   2  -1  11    7.59    0.62
  -2  -1 -11    8.61    0.35
   2   1  11    8.95    0.39
  -2   1 -11    8.59    0.32
   2   1  11    8.79    0.40
  -2   1 -11    8.01    0.38
   2   1  11    8.25    0.39
  -2   1 -11    8.31    0.33
  -3  -1 -11    0.17    0.05
  -3  -1 -11    0.18    0.05
   3  -1  11    0.15    0.06
  -3  -1 -11    0.15    0.05
   3  -1  11    0.08    0.11
  -3   1 -11    0.24    0.06
   3   1  11    0.22    0.05
  -3   1 -11    0.03    0.05
  -3   1 -11    0.08    0.06
  -4  -1 -11   24.08    0.99
   4  -1  11   24.01    1.03
  -4  -1 -11   23.76    0.93
  -4  -1 -11   23.67    0.84
  -4   1 -11   25.38    0.88
  -4   1 -11   24.27    1.01
  -4   1 -11   25.06    0.84
   4   1  11   24.33    1.04
  -5  -1 -11   18.90    0.96
   5  -1  11   18.42    0.76
  -5   1 -11   17.39    0.65
  -5   1 -11   17.02    0.62
  -8  -2  11    2.84    0.19
   8  -2 -11    2.58    0.14
   8   2 -11    2.55    0.12
  -7  -2  11    6.89    0.39
  -7  -2  11    6.70    0.38
   7  -2 -11    7.23    0.30
  -7   2  11    5.69    0.73
   7   2 -11    6.56    0.31
   7   2 -11    6.17    0.26
  -6  -2  11    1.44    0.09
  -6  -2  11    1.58    0.16
   6  -2 -11    1.40    0.11
   6  -2 -11    1.51    0.09
  -6  -2  11    1.28    0.31
  -6   2  11    1.55    0.11
   6   2 -11    1.39    0.10
   6   2 -11    1.43    0.11
  -5  -2  11    7.71    0.45
  -5  -2  11    5.99    0.84
  -5  -2  11    8.04    0.33
   5  -2 -11    7.16    0.34
   5  -2 -11    7.55    0.28
  -5   2  11    7.90    0.34
  -5   2  11    8.08    0.53
  -5   2  11    6.19    0.79
   5   2 -11    7.34    0.30
   5   2 -11    7.23    0.35
   4  -2 -11    0.22    0.06
  -4  -2  11    0.09    0.05
  -4  -2  11    0.22    0.08
  -4  -2  11    0.22    0.21
   4  -2 -11    0.23    0.04
   4   2 -11    0.31    0.06
  -4   2  11    0.07    0.10
  -4   2  11    0.18    0.06
   4   2 -11    0.12    0.05
  -3  -2  11   16.76    0.71
   3  -2 -11   17.11    0.59
   3  -2 -11   15.80    0.71
  -3  -2  11   16.60    0.86
   3   2 -11   16.76    0.73
  -3   2  11   16.16    0.71
  -3   2  11   18.03    1.11
   3   2 -11   16.03    0.62
   2  -2 -11   30.98    1.09
   2  -2 -11   31.86    1.32
  -2  -2  11   31.37    1.33
  -2  -2  11   31.54    1.59
   2   2 -11   31.09    1.15
   2   2 -11   30.96    1.34
  -2   2  11   35.06    2.07
  -2   2  11   30.06    1.32
   2   2 -11   31.35    1.36
  -2   2  11   31.52    1.35
  -2   2  11   33.47    1.35
   1  -2 -11    3.97    0.17
  -1  -2  11    4.27    0.23
   1  -2 -11    4.22    0.20
  -1  -2  11    3.63    0.36
   1  -2 -11    4.12    0.19
  -1  -2  11    3.88    0.27
  -1   2  11    4.38    0.34
  -1   2  11    3.85    0.21
   1   2 -11    4.16    0.19
   1   2 -11    3.92    0.22
  -1   2  11    4.33    0.20
   1   2 -11    3.84    0.21
   0  -2 -11   12.67    0.45
   0  -2  11   11.47    0.88
   0  -2 -11   12.66    0.54
   0  -2  11   11.83    0.55
   0  -2  11   12.48    0.66
   0  -2 -11   12.58    0.50
   0   2 -11   12.69    0.48
   0   2 -11   12.05    0.56
   0   2 -11   12.56    0.56
   0   2  11   13.54    0.86
   0   2  11   13.21    0.55
   1  -2  11   62.45    2.60
  -1  -2 -11   65.18    2.56
   1  -2  11   60.15    4.06
  -1  -2 -11   62.93    2.38
  -1  -2 -11   61.88    2.13
   1   2  11   64.67    2.65
  -1   2 -11   64.21    2.60
  -1   2 -11   60.72    2.23
   2  -2  11   12.68    0.54
  -2  -2 -11   12.19    0.49
   2  -2  11   11.20    0.85
  -2  -2 -11   12.16    0.44
  -2  -2 -11   12.55    0.51
  -2   2 -11   11.88    0.46
   2   2  11   12.52    0.54
  -2   2 -11   11.93    0.44
  -2   2 -11   12.21    0.53
  -3  -2 -11    8.41    0.32
   3  -2  11    8.15    0.63
   3  -2  11    9.44    0.40
  -3  -2 -11    8.98    0.36
   3   2  11    8.88    0.39
  -3   2 -11    9.17    0.34
  -3   2 -11    8.54    0.33
  -3   2 -11    8.52    0.39
   4  -2  11    9.41    0.40
  -4  -2 -11    9.07    0.49
  -4  -2 -11    8.98    0.36
   4  -2  11    8.47    0.62
  -4   2 -11    8.92    0.40
  -4   2 -11    8.77    0.33
  -4   2 -11    9.19    0.34
   4   2  11    8.89    0.40
  -7  -3  11    4.87    0.29
   7  -3 -11    4.44    0.22
   7  -3 -11    4.63    0.18
  -7   3  11    4.79    0.21
   6  -3 -11    0.94    0.07
   6  -3 -11    0.79    0.07
  -6  -3  11    1.08    0.08
  -6  -3  11    0.83    0.11
  -6  -3  11    0.74    0.08
  -6   3  11    0.75    0.07
   6   3 -11    0.99    0.08
  -5  -3  11    8.46    0.48
   5  -3 -11    8.16    0.31
  -5   3  11    8.89    0.58
   5   3 -11    7.75    0.38
  -5   3  11    8.25    0.37
   4  -3 -11    2.15    0.14
  -4  -3  11    2.27    0.19
  -4  -3  11    2.47    0.13
   4  -3 -11    2.38    0.12
   4   3 -11    2.42    0.15
  -4   3  11    2.09    0.14
  -4   3  11    2.29    0.23
  -4   3  11    2.19    0.12
   3  -3 -11    1.15    0.10
  -3  -3  11    1.39    0.11
  -3  -3  11    1.39    0.15
   3  -3 -11    1.17    0.09
  -3   3  11    1.37    0.19
  -3   3  11    1.28    0.09
   3   3 -11    1.19    0.11
  -3   3  11    1.16    0.11
  -2  -3  11   31.03    1.57
   2  -3 -11   31.25    1.29
   2  -3 -11   31.86    1.08
  -2  -3  11   32.58    1.31
  -2   3  11   33.49    2.03
   2   3 -11   31.40    1.34
   2   3 -11   28.95    1.13
  -2   3  11   30.96    1.32
  -2   3  11   29.87    1.30
   1  -3 -11    8.27    0.36
  -1  -3  11    8.01    0.38
  -1  -3  11    7.78    0.46
  -1  -3  11    7.40    0.61
   1  -3 -11    8.48    0.34
   1  -3 -11    8.03    0.30
   1   3 -11    7.94    0.38
  -1   3  11    8.83    0.36
  -1   3  11    7.81    0.36
   1   3 -11    7.50    0.32
  -1   3  11    8.68    0.57
   1   3 -11    8.09    0.38
   0  -3  11    0.66    0.11
   0  -3 -11    0.74    0.06
   0  -3  11    0.55    0.09
   0  -3  11    0.56    0.15
   0  -3 -11    0.65    0.06
   0  -3 -11    0.65    0.07
   0   3  11    0.48    0.06
   0   3 -11    0.73    0.08
   0   3  11    0.59    0.12
   0   3 -11    0.63    0.07
   0   3 -11    0.38    0.07
   1  -3  11   22.39    1.49
  -1  -3 -11   22.20    0.86
  -1  -3 -11   21.80    0.91
  -1  -3 -11   21.68    0.77
   1  -3  11   22.49    0.95
   1   3  11   22.27    0.95
  -1   3 -11   23.08    0.81
  -1   3 -11   22.56    0.95
   2  -3  11   13.55    0.93
  -2  -3 -11   12.97    0.74
  -2  -3 -11   13.72    0.54
   2   3  11   13.60    0.59
  -2   3 -11   13.82    0.50
  -2   3 -11   13.73    0.59
  -3  -3 -11    1.77    0.10
   3  -3  11    1.99    0.12
  -3   3 -11    1.74    0.10
   3   3  11    1.78    0.10
  -3   3 -11    1.65    0.12
  -4   3 -11    2.14    0.10
   6  -4 -11   22.47    0.79
  -6   4  11   22.63    0.95
  -6   4  11   23.87    1.49
   5  -4 -11    1.56    0.08
   5  -4 -11    1.33    0.10
   5   4 -11    1.37    0.10
  -5   4  11    1.55    0.18
  -4  -4  11   19.26    1.02
   4  -4 -11   18.88    0.79
   4  -4 -11   19.45    0.66
  -4  -4  11   18.00    0.96
  -4   4  11   21.69    1.24
  -4   4  11   17.83    0.80
   4   4 -11   17.97    0.82
  -4   4  11   18.19    0.79
   3  -4 -11    1.12    0.09
   3  -4 -11    1.27    0.08
  -3  -4  11    1.44    0.14
  -3  -4  11    1.11    0.12
  -3   4  11    0.75    0.07
  -3   4  11    1.01    0.08
  -3   4  11    1.06    0.14
   3   4 -11    1.11    0.10
   2  -4 -11   15.35    0.55
  -2  -4  11   16.17    0.82
  -2  -4  11   15.34    0.65
   2  -4 -11   15.64    0.65
   2  -4 -11   14.96    0.61
  -2   4  11   15.34    0.67
   2   4 -11   15.40    0.69
  -2   4  11   16.66    1.04
  -1  -4  11    2.29    0.19
  -1  -4  11    2.16    0.13
   1  -4 -11    2.29    0.12
   1  -4 -11    2.01    0.11
   1  -4 -11    2.11    0.11
   1   4 -11    2.32    0.14
  -1   4  11    2.32    0.22
  -1   4  11    1.96    0.12
   0  -4 -11    4.09    0.19
   0  -4  11    4.41    0.28
   0  -4  11    4.85    0.22
   0  -4  11    4.04    0.37
   0   4  11    4.25    0.20
   0   4 -11    4.37    0.22
   0   4 -11    4.13    0.22
  -1  -4 -11    9.17    0.48
   1  -4  11    9.09    0.64
  -1  -4 -11    9.29    0.48
  -1  -4 -11    8.54    0.36
   1  -4  11    9.52    0.40
  -1   4 -11    8.61    0.40
  -1   4 -11    8.45    0.39
   1   4  11    8.44    0.39
   2  -4  11    1.08    0.10
   2  -4  11    1.18    0.16
  -2  -4 -11    0.96    0.07
  -2   4 -11    1.06    0.09
  -4   5  11    2.52    0.21
   3  -5 -11    1.36    0.12
  -3  -5  11    1.55    0.15
  -3   5  11    1.86    0.17
  -2  -5  11    6.11    0.33
  -2  -5  11    6.07    0.31
  -2  -5  11    5.18    0.31
  -2   5  11    5.37    0.25
  -2   5  11    5.78    0.40
   2   5 -11    5.52    0.26
   1  -5 -11    4.64    0.27
  -1  -5  11    5.40    0.29
  -1  -5  11    5.26    0.29
   1   5 -11    4.74    0.24
   0  -5  11    8.51    0.49
  -8   0  12    7.79    0.34
  -8   0  12    8.44    0.46
   8   0 -12    7.85    0.35
   8   0 -12    8.20    0.31
   7   0 -12    5.81    0.27
  -7   0  12    4.64    0.65
  -7   0  12    5.73    0.26
   7   0 -12    5.95    0.23
   7   0 -12    5.66    0.27
  -7   0  12    5.93    0.35
   6   0 -12   30.34    1.28
   6   0 -12   31.18    1.25
   6   0 -12   31.59    1.08
  -6   0  12   26.18    2.82
  -6   0  12   29.81    1.24
   5   0 -12   16.99    0.71
  -5   0  12   13.81    1.60
   5   0 -12   17.22    0.61
  -5   0  12   16.62    0.70
   5   0 -12   16.91    0.72
   4   0 -12   45.00    1.86
  -4   0  12   46.51    1.85
  -4   0  12   43.56    2.20
   4   0 -12   45.00    1.60
   4   0 -12   43.61    1.90
  -3   0  12   48.83    2.34
  -3   0  12   48.70    1.98
   3   0 -12   46.86    1.70
  -3   0  12   46.47    3.08
   3   0 -12   47.65    1.98
  -2   0  12  194.87    9.18
   2   0 -12  184.29    7.76
  -2   0  12  187.06   12.09
   2   0 -12  187.72    6.65
  -2   0  12  193.13    7.76
   1   0 -12   26.38    0.95
   1   0 -12   25.96    0.91
  -1   0  12   25.98    1.11
  -1   0  12   27.33    1.31
  -1   0  12   26.36    1.73
   1   0 -12   25.52    1.11
   0   0 -12   21.74    0.82
   0   0  12   21.59    1.48
   0   0 -12   22.19    0.95
   0   0 -12   22.75    0.78
   0   0  12   22.30    0.96
   0   0  12   23.76    1.13
  -1   0 -12   31.55    1.16
  -1   0 -12   32.83    1.11
   1   0  12   31.07    2.11
   1   0  12   32.06    1.37
   1   0  12   31.94    1.60
   1   0  12   32.69    1.36
  -1   0 -12   33.28    1.34
   2   0  12    1.88    0.14
  -2   0 -12    1.81    0.12
   2   0  12    1.83    0.12
  -2   0 -12    1.88    0.11
   2   0  12    1.58    0.23
  -2   0 -12    1.67    0.11
   3   0  12    0.08    0.04
   3   0  12    0.00    0.05
  -3   0 -12    0.05    0.05
  -3   0 -12    0.05    0.05
  -3   0 -12    0.06    0.05
  -4   0 -12    3.96    0.16
   4   0  12    3.96    0.20
  -4   0 -12    3.91    0.16
   8  -1 -12    0.11    0.05
   8  -1 -12    0.12    0.04
  -8  -1  12    0.10    0.05
  -8  -1  12    0.13    0.05
   8   1 -12    0.12    0.04
  -8   1  12    0.16    0.05
  -7  -1  12    2.80    0.14
  -7  -1  12    2.96    0.21
   7  -1 -12    2.86    0.13
   7  -1 -12    2.86    0.16
  -7   1  12    2.97    0.21
   7   1 -12    2.84    0.14
  -7   1  12    2.74    0.16
   7   1 -12    3.05    0.16
  -6  -1  12   18.43    2.12
  -6  -1  12   22.36    1.19
   6  -1 -12   24.18    0.94
  -6  -1  12   23.59    0.92
   6  -1 -12   22.92    0.80
  -6   1  12   21.00    0.92
   6   1 -12   23.59    0.95
   6   1 -12   23.21    0.93
   6   1 -12   22.29    0.80
  -6   1  12   18.38    2.10
  -5  -1  12   41.33    1.73
   5  -1 -12   39.55    1.49
   5  -1 -12   41.82    1.74
   5   1 -12   43.11    1.75
   5   1 -12   42.17    1.78
   5   1 -12   41.31    1.50
  -5   1  12   44.06    1.74
  -4  -1  12    1.29    0.30
   4  -1 -12    1.49    0.12
  -4  -1  12    1.32    0.14
   4  -1 -12    1.47    0.09
  -4  -1  12    1.26    0.12
   4  -1 -12    1.33    0.10
  -4   1  12    1.53    0.20
   4   1 -12    1.40    0.10
  -4   1  12    1.56    0.12
   4   1 -12    1.41    0.12
   4   1 -12    1.31    0.12
  -3  -1  12    6.47    0.37
   3  -1 -12    6.09    0.30
   3  -1 -12    6.52    0.25
  -3  -1  12    6.39    0.31
   3   1 -12    6.43    0.26
  -3   1  12    6.33    0.30
   3   1 -12    6.35    0.31
  -3   1  12    6.67    0.47
   3   1 -12    6.29    0.31
  -2  -1  12   59.84    4.21
   2  -1 -12   67.61    2.48
  -2  -1  12   66.71    3.20
   2  -1 -12   67.32    2.22
  -2  -1  12   64.27    2.70
   2  -1 -12   64.94    2.70
   2   1 -12   62.57    2.77
   2   1 -12   65.58    2.71
   2   1 -12   65.18    2.32
  -2   1  12   66.12    2.70
  -2   1  12   69.94    4.21
   1  -1 -12   10.70    0.46
   1  -1 -12   10.56    0.38
  -1  -1  12   10.35    0.47
  -1  -1  12   10.55    0.56
   1  -1 -12   10.11    0.46
   1  -1 -12   10.37    0.42
  -1  -1  12    9.94    0.74
  -1  -1  12   10.60    0.47
  -1   1  12   10.40    0.46
  -1   1  12   10.07    0.46
   1   1 -12   10.70    0.40
   1   1 -12   10.26    0.47
  -1   1  12   10.49    0.73
   0  -1  12    6.53    0.37
   0  -1  12    6.57    0.32
   0  -1 -12    6.46    0.30
   0  -1 -12    6.68    0.25
   0  -1 -12    6.51    0.28
   0  -1  12    5.91    0.50
   0   1 -12    5.99    0.26
   0   1 -12    6.38    0.27
   0   1 -12    6.34    0.31
   0   1  12    6.61    0.30
   0   1  12    6.77    0.49
   0   1  12    6.77    0.32
  -1  -1 -12    8.60    0.39
  -1  -1 -12    8.94    0.33
  -1  -1 -12    8.76    0.36
   1  -1  12    9.31    0.41
   1  -1  12    8.33    0.64
  -1   1 -12    8.69    0.40
  -1   1 -12    8.91    0.33
  -1   1 -12    8.92    0.35
   1   1  12    9.05    0.40
   1   1  12    8.48    0.63
   1   1  12    8.55    0.41
   2  -1  12    2.62    0.29
   2  -1  12    2.76    0.18
  -2  -1 -12    2.64    0.14
  -2  -1 -12    3.01    0.14
  -2  -1 -12    2.91    0.15
   2   1  12    2.83    0.16
  -2   1 -12    2.95    0.14
  -2   1 -12    2.52    0.15
  -2   1 -12    2.74    0.14
   2   1  12    2.90    0.17
   3  -1  12    6.36    0.30
  -3  -1 -12    6.43    0.24
   3  -1  12    5.83    0.46
  -3  -1 -12    6.03    0.26
  -3  -1 -12    6.28    0.27
  -3   1 -12    6.27    0.24
  -3   1 -12    5.90    0.28
  -3   1 -12    6.37    0.25
   3   1  12    6.33    0.29
  -4  -1 -12   47.88    1.82
  -4  -1 -12   48.82    2.57
  -4  -1 -12   45.69    1.64
   4  -1  12   49.64    1.99
  -4   1 -12   48.84    1.64
  -4   1 -12   48.67    1.71
  -8  -2  12    1.53    0.12
   8   2 -12    1.27    0.07
   7  -2 -12    6.31    0.28
  -7  -2  12    6.20    0.36
  -7  -2  12    6.46    0.37
   7   2 -12    6.10    0.29
   7   2 -12    6.30    0.24
   6  -2 -12   15.92    0.55
  -6  -2  12   15.19    0.85
   6  -2 -12   15.92    0.67
  -6  -2  12   15.38    0.65
  -6   2  12   15.82    0.66
   6   2 -12   16.00    0.68
   6   2 -12   15.18    0.57
  -5  -2  12    7.03    0.43
   5  -2 -12    6.96    0.33
  -5  -2  12    7.24    0.33
   5  -2 -12    7.04    0.27
  -5   2  12    7.63    0.51
   5   2 -12    7.50    0.34
  -5   2  12    7.69    0.33
   5   2 -12    6.94    0.29
   4  -2 -12    1.06    0.09
  -4  -2  12    1.05    0.10
  -4  -2  12    0.79    0.11
   4  -2 -12    1.09    0.08
  -4   2  12    1.21    0.11
   4   2 -12    0.98    0.09
  -4   2  12    1.15    0.15
   4   2 -12    1.42    0.10
   3  -2 -12    3.07    0.18
  -3  -2  12    3.41    0.24
   3  -2 -12    3.49    0.15
   3  -2 -12    3.25    0.18
  -3  -2  12    3.66    0.19
   3   2 -12    3.39    0.19
  -3   2  12    3.34    0.18
  -3   2  12    3.24    0.17
   3   2 -12    3.20    0.19
  -3   2  12    3.80    0.30
   3   2 -12    3.34    0.16
  -2  -2  12    7.28    0.36
   2  -2 -12    7.53    0.32
  -2  -2  12    7.60    0.43
   2  -2 -12    7.87    0.35
   2  -2 -12    7.63    0.29
  -2   2  12    7.95    0.55
   2   2 -12    7.74    0.36
  -2   2  12    7.24    0.35
  -2   2  12    7.82    0.34
   2   2 -12    7.66    0.31
   2   2 -12    7.45    0.36
   1  -2 -12   16.34    0.69
  -1  -2  12   16.54    0.84
  -1  -2  12   16.80    0.71
   1  -2 -12   16.63    0.58
  -1  -2  12   15.38    1.11
   1  -2 -12   16.26    0.64
  -1   2  12   16.21    0.70
   1   2 -12   15.65    0.71
   1   2 -12   16.06    0.60
  -1   2  12   16.35    1.09
  -1   2  12   16.51    0.70
   1   2 -12   16.25    0.71
   0  -2  12   11.62    0.52
   0  -2  12   11.60    0.83
   0  -2 -12   11.99    0.47
   0  -2 -12   11.79    0.51
   0  -2  12   11.88    0.63
   0  -2 -12   11.63    0.43
   0   2  12   11.54    0.52
   0   2 -12   12.03    0.53
   0   2  12   11.80    0.81
   0   2 -12   11.31    0.45
   0   2  12   12.18    0.52
  -1  -2 -12   11.19    0.46
   1  -2  12   11.78    0.51
  -1  -2 -12   11.35    0.42
   1  -2  12   11.01    0.81
  -1  -2 -12   11.98    0.49
  -1   2 -12   12.29    0.51
  -1   2 -12   11.27    0.44
   1   2  12   11.63    0.51
   2  -2  12   11.20    0.79
  -2  -2 -12   11.21    0.45
   2  -2  12   11.77    0.50
  -2  -2 -12   11.09    0.47
  -2  -2 -12   11.36    0.41
  -2   2 -12   11.26    0.49
  -2   2 -12   11.29    0.43
   2   2  12   11.84    0.50
  -3  -2 -12    2.90    0.14
   3  -2  12    2.90    0.27
  -3  -2 -12    2.88    0.18
  -3  -2 -12    3.01    0.13
   3  -2  12    3.00    0.16
   3   2  12    2.86    0.15
  -3   2 -12    3.13    0.14
  -7  -3  12    3.60    0.22
  -6  -3  12    0.67    0.07
   6  -3 -12    0.59    0.05
  -6  -3  12    0.66    0.09
  -6  -3  12    0.55    0.06
  -6   3  12    0.51    0.06
   6   3 -12    0.62    0.06
   5  -3 -12    3.08    0.14
  -5  -3  12    3.12    0.21
   5  -3 -12    2.83    0.16
  -5   3  12    3.48    0.27
  -5   3  12    3.24    0.17
   4  -3 -12    5.31    0.21
   4  -3 -12    4.99    0.25
  -4  -3  12    5.15    0.32
  -4  -3  12    5.47    0.24
   4   3 -12    5.29    0.26
  -4   3  12    5.89    0.40
  -4   3  12    5.18    0.25
   3  -3 -12   13.78    0.49
   3  -3 -12   13.01    0.58
  -3  -3  12   13.49    0.72
  -3  -3  12   14.51    0.59
  -3   3  12   13.22    0.59
  -3   3  12   12.67    0.59
   3   3 -12   13.92    0.61
  -3   3  12   15.61    0.93
   3   3 -12   13.53    0.51
   2  -3 -12   20.02    0.68
  -2  -3  12   20.17    0.83
   2  -3 -12   19.93    0.76
   2  -3 -12   19.41    0.82
  -2  -3  12   20.30    1.01
  -2   3  12   18.43    0.83
  -2   3  12   21.01    1.29
  -2   3  12   19.80    0.84
   2   3 -12   19.12    0.84
   2   3 -12   19.25    0.85
  -2   3  12   18.64    0.83
   2   3 -12   18.80    0.72
   1  -3 -12    7.18    0.32
  -1  -3  12    7.43    0.41
  -1  -3  12    7.23    0.34
   1  -3 -12    7.03    0.27
  -1  -3  12    6.52    0.54
   1  -3 -12    7.26    0.30
   1   3 -12    6.97    0.34
  -1   3  12    7.38    0.32
  -1   3  12    7.23    0.51
   1   3 -12    7.26    0.29
   1   3 -12    6.90    0.33
   0  -3 -12    1.09    0.08
   0  -3 -12    0.91    0.07
   0  -3  12    0.90    0.10
   0  -3  12    1.12    0.17
   0  -3  12    0.69    0.10
   0  -3 -12    0.87    0.08
   0   3 -12    0.80    0.08
   0   3 -12    0.71    0.08
   0   3 -12    0.89    0.08
   0   3  12    0.60    0.12
   0   3  12    0.74    0.07
   1  -3  12    3.51    0.33
   1  -3  12    3.66    0.20
  -1  -3 -12    3.20    0.16
  -1  -3 -12    3.38    0.15
  -1   3 -12    3.58    0.19
  -1   3 -12    3.35    0.15
   1   3  12    3.39    0.17
   2  -3  12    6.58    0.47
  -2  -3 -12    6.13    0.25
  -2  -3 -12    6.06    0.34
   2   3  12    5.75    0.28
  -2   3 -12    6.12    0.24
  -2   3 -12    6.15    0.28
  -3  -3 -12    2.72    0.13
   3  -3  12    2.71    0.25
  -3   3 -12    2.80    0.12
   5  -4 -12    4.03    0.17
  -5   4  12    4.58    0.32
  -5   4  12    4.35    0.20
   4  -4 -12    4.16    0.19
   4  -4 -12    4.40    0.20
  -4  -4  12    4.53    0.25
   4  -4 -12    4.54    0.17
  -4  -4  12    4.30    0.26
  -4   4  12    3.84    0.20
   4   4 -12    4.39    0.21
  -4   4  12    4.91    0.33
  -4   4  12    4.27    0.21
  -4   4  12    4.05    0.20
   3  -4 -12    0.85    0.07
   3  -4 -12    0.84    0.06
  -3  -4  12    0.89    0.11
   3  -4 -12    0.97    0.07
  -3  -4  12    0.82    0.10
   3   4 -12    0.98    0.08
  -3   4  12    0.75    0.07
  -3   4  12    0.64    0.06
  -3   4  12    0.67    0.07
  -3   4  12    0.95    0.12
  -2  -4  12   16.64    0.72
  -2  -4  12   18.85    0.90
   2  -4 -12   17.59    0.68
   2  -4 -12   17.54    0.72
   2  -4 -12   16.82    0.61
  -2   4  12   17.22    0.75
   2   4 -12   17.77    0.76
  -2   4  12   16.29    0.75
  -2   4  12   19.11    1.15
  -1  -4  12    0.81    0.11
  -1  -4  12    0.80    0.07
   1  -4 -12    0.66    0.06
   1  -4 -12    0.87    0.06
  -1   4  12    0.76    0.07
  -1   4  12    0.88    0.12
   1   4 -12    0.84    0.08
   1   4 -12    0.84    0.07
   0  -4  12    1.84    0.16
   0  -4 -12    1.97    0.11
   0  -4  12    1.85    0.23
   0  -4  12    1.97    0.12
   0   4  12    1.87    0.10
   0   4 -12    1.94    0.12
   0   4 -12    1.78    0.11
   1  -4  12   32.67    2.08
  -1  -4 -12   30.81    1.21
  -1   4 -12   32.39    1.33
  -8   0  13    6.67    0.37
   8   0 -13    6.50    0.25
   7   0 -13    8.07    0.38
  -7   0  13    8.69    0.37
   7   0 -13    8.66    0.32
  -7   0  13    8.84    0.48
   7   0 -13    8.44    0.38
  -6   0  13    9.43    0.53
   6   0 -13    9.12    0.42
   6   0 -13    9.71    0.36
   6   0 -13    9.70    0.42
  -6   0  13    9.05    0.41
   5   0 -13    5.19    0.21
   5   0 -13    4.77    0.24
  -5   0  13    4.89    0.24
   4   0 -13   29.34    1.21
  -4   0  13   29.18    1.20
   4   0 -13   28.50    1.04
  -4   0  13   27.98    1.43
  -3   0  13    4.82    0.29
  -3   0  13    4.64    0.38
   3   0 -13    4.92    0.21
   3   0 -13    4.87    0.25
  -3   0  13    4.77    0.24
   2   0 -13    8.67    0.40
  -2   0  13    8.93    0.47
   2   0 -13    8.52    0.34
  -2   0  13    8.80    0.40
  -2   0  13    8.70    0.63
   1   0 -13   48.61    1.65
  -1   0  13   48.35    3.13
   1   0 -13   47.51    1.72
  -1   0  13   46.99    2.38
  -1   0  13   49.32    2.01
   1   0 -13   49.68    2.01
   0   0  13   -0.05    0.06
   0   0  13    0.04    0.06
   0   0 -13   -0.03    0.05
   0   0  13    0.02    0.08
   0   0 -13    0.04    0.05
   0   0  13    0.03    0.11
   0   0 -13    0.00    0.05
  -1   0 -13   22.73    0.77
   1   0  13   21.06    1.47
  -1   0 -13   22.29    0.81
  -1   0 -13   22.19    0.93
   1   0  13   22.55    0.94
  -2   0 -13    2.11    0.11
  -2   0 -13    2.23    0.13
  -2   0 -13    2.35    0.12
   2   0  13    2.36    0.15
  -2   0 -13    2.14    0.13
   2   0  13    2.14    0.24
  -3   0 -13    7.06    0.26
   3   0  13    6.77    0.31
  -3   0 -13    6.68    0.26
  -3   0 -13    6.81    0.30
   7  -1 -13    4.89    0.22
   7  -1 -13    4.53    0.19
  -7  -1  13    4.52    0.20
  -7  -1  13    4.71    0.28
  -7   1  13    4.86    0.28
   7   1 -13    4.39    0.22
  -7   1  13    4.40    0.22
   7   1 -13    4.67    0.22
   7   1 -13    4.74    0.19
  -6  -1  13   10.23    0.44
   6  -1 -13   10.50    0.45
  -6  -1  13    9.96    0.57
   6  -1 -13   10.00    0.38
   6   1 -13   10.97    0.39
   6   1 -13   10.34    0.45
  -6   1  13    9.22    0.44
   6   1 -13   10.22    0.46
  -5  -1  13    1.92    0.39
   5  -1 -13    2.57    0.15
   5  -1 -13    2.29    0.12
  -5  -1  13    2.17    0.19
  -5  -1  13    2.29    0.14
   5   1 -13    2.41    0.15
   5   1 -13    2.38    0.13
   5   1 -13    2.32    0.15
  -5   1  13    2.73    0.15
   4  -1 -13    5.78    0.27
  -4  -1  13    5.19    0.27
   4  -1 -13    5.50    0.21
  -4  -1  13    5.26    0.32
   4   1 -13    5.63    0.23
  -4   1  13    5.60    0.31
   4   1 -13    5.43    0.27
   4   1 -13    5.31    0.27
  -4   1  13    5.74    0.42
  -4   1  13    5.68    0.27
  -3  -1  13    6.78    0.34
   3  -1 -13    7.56    0.34
  -3  -1  13    7.03    0.41
   3  -1 -13    7.34    0.27
   3   1 -13    7.40    0.34
   3   1 -13    7.05    0.29
  -3   1  13    7.43    0.34
  -3   1  13    7.94    0.53
   3   1 -13    7.14    0.34
  -2  -1  13    8.66    0.38
   2  -1 -13    8.37    0.34
  -2  -1  13    8.17    0.38
   2  -1 -13    8.10    0.31
  -2  -1  13    7.97    0.61
   2  -1 -13    8.16    0.38
  -2  -1  13    8.21    0.46
   2   1 -13    8.54    0.39
  -2   1  13    8.96    0.60
   2   1 -13    8.60    0.33
  -2   1  13    8.11    0.38
  -1  -1  13   26.53    1.81
   1  -1 -13   27.59    1.14
   1  -1 -13   27.77    0.95
  -1  -1  13   27.23    1.37
   1  -1 -13   28.13    1.06
  -1  -1  13   27.91    1.16
   1   1 -13   28.45    1.16
   1   1 -13   27.96    1.00
  -1   1  13   27.08    1.16
  -1   1  13   28.05    1.80
  -1   1  13   25.55    1.17
   0  -1 -13   24.05    0.92
   0  -1  13   24.23    1.01
   0  -1  13   23.82    1.20
   0  -1 -13   23.82    1.00
   0  -1 -13   24.08    0.83
   0  -1  13   22.74    1.58
   0   1  13   23.44    1.57
   0   1  13   23.05    1.02
   0   1 -13   24.19    1.01
   0   1  13   23.40    1.01
   0   1 -13   24.66    0.87
   0   1  13   25.16    1.20
  -1  -1 -13    8.98    0.33
  -1  -1 -13    8.85    0.39
   1  -1  13    9.41    0.41
   1  -1  13    8.45    0.64
  -1  -1 -13    9.02    0.36
   1   1  13    8.73    0.62
  -1   1 -13    9.16    0.34
   1   1  13    8.58    0.40
   1   1  13    8.73    0.41
   1   1  13    8.73    0.40
  -1   1 -13    8.80    0.33
  -1   1 -13    8.54    0.39
   1   1  13    8.46    0.47
   2  -1  13   59.65    4.07
  -2  -1 -13   66.06    2.15
  -2  -1 -13   61.43    2.39
  -2  -1 -13   65.67    2.58
   2  -1  13   67.02    2.62
  -2  -1 -13   64.70    2.58
  -2   1 -13   65.47    2.24
  -2   1 -13   61.86    2.59
  -2   1 -13   63.64    2.15
   2   1  13   61.94    2.61
   2   1  13   60.56    2.67
  -2   1 -13   61.72    2.59
  -3  -1 -13   19.16    0.74
   3  -1  13   17.82    1.27
  -3  -1 -13   19.76    0.67
   3  -1  13   20.68    0.82
   3   1  13   18.49    0.81
  -3   1 -13   19.74    0.70
  -3   1 -13   19.91    0.67
   7  -2 -13    2.77    0.14
  -7  -2  13    2.73    0.17
  -7  -2  13    2.62    0.18
   7   2 -13    2.85    0.12
  -7   2  13    2.87    0.18
   6  -2 -13   21.21    0.77
   6  -2 -13   22.55    0.94
  -6  -2  13   21.77    1.19
   6   2 -13   22.62    0.96
  -6   2  13   23.16    0.93
   6   2 -13   22.68    0.81
  -5  -2  13   11.78    0.69
   5  -2 -13   12.42    0.44
  -5  -2  13   12.99    0.53
   5  -2 -13   12.34    0.54
  -5   2  13   12.90    0.54
  -5   2  13   12.75    0.84
   5   2 -13   12.67    0.56
   5   2 -13   12.44    0.47
  -4  -2  13    0.03    0.05
  -4  -2  13    0.10    0.07
   4  -2 -13    0.06    0.05
   4  -2 -13   -0.01    0.04
  -4   2  13    0.00    0.05
   4   2 -13    0.03    0.05
   4   2 -13   -0.03    0.05
   4   2 -13    0.10    0.05
  -4   2  13    0.10    0.10
   3  -2 -13    3.81    0.16
  -3  -2  13    3.99    0.21
  -3  -2  13    3.74    0.26
   3  -2 -13    3.60    0.19
   3   2 -13    4.04    0.21
  -3   2  13    3.83    0.20
   3   2 -13    3.62    0.21
  -3   2  13    4.04    0.33
   3   2 -13    3.91    0.18
   2  -2 -13    9.65    0.43
   2  -2 -13   10.32    0.36
  -2  -2  13    9.91    0.53
  -2  -2  13   10.01    0.71
  -2  -2  13    9.90    0.45
   2  -2 -13    9.89    0.40
  -2   2  13    9.55    0.44
  -2   2  13   10.54    0.69
   2   2 -13    9.42    0.44
  -2   2  13    9.01    0.43
   2   2 -13   10.07    0.38
   2   2 -13    9.80    0.45
   1  -2 -13    1.71    0.11
   1  -2 -13    1.78    0.11
   1  -2 -13    1.68    0.10
  -1  -2  13    1.79    0.14
  -1  -2  13    1.90    0.17
  -1  -2  13    1.70    0.21
  -1   2  13    1.52    0.13
  -1   2  13    1.67    0.11
  -1   2  13    1.92    0.22
   1   2 -13    1.69    0.13
   1   2 -13    1.73    0.11
   0  -2  13    3.71    0.19
   0  -2 -13    3.71    0.17
   0  -2 -13    3.85    0.16
   0  -2 -13    3.84    0.18
   0  -2  13    3.66    0.24
   0  -2  13    3.60    0.34
   0   2  13    3.69    0.18
   0   2  13    3.54    0.20
   0   2 -13    3.68    0.20
   0   2  13    3.55    0.31
   0   2 -13    3.53    0.17
   1  -2  13    5.38    0.43
   1  -2  13    5.37    0.26
  -1  -2 -13    5.39    0.23
  -1  -2 -13    5.45    0.24
  -1  -2 -13    5.54    0.22
   1   2  13    5.25    0.25
  -1   2 -13    5.69    0.26
  -1   2 -13    5.57    0.22
   2  -2  13    1.43    0.20
  -2  -2 -13    1.41    0.09
  -2  -2 -13    1.50    0.09
   2  -2  13    1.40    0.10
   2   2  13    1.35    0.09
  -2   2 -13    1.52    0.09
  -2   2 -13    1.34    0.10
  -3  -2 -13    5.71    0.31
  -3   2 -13    5.56    0.22
   6  -3 -13   10.15    0.34
  -6   3  13    9.35    0.42
   5  -3 -13    3.81    0.15
  -5  -3  13    3.89    0.24
   5  -3 -13    3.51    0.18
   5   3 -13    3.63    0.19
  -5   3  13    4.10    0.30
  -5   3  13    3.96    0.19
  -4  -3  13    3.89    0.18
   4  -3 -13    3.77    0.19
  -4  -3  13    3.78    0.25
   4  -3 -13    4.10    0.16
   4   3 -13    3.91    0.20
  -4   3  13    3.88    0.20
   4   3 -13    3.92    0.17
  -4   3  13    4.53    0.32
   3  -3 -13   12.54    0.55
   3  -3 -13   12.90    0.51
  -3  -3  13   13.11    0.55
   3  -3 -13   13.15    0.46
  -3  -3  13   12.57    0.67
  -3   3  13   12.20    0.55
  -3   3  13   12.29    0.55
  -3   3  13   14.16    0.87
   3   3 -13   12.98    0.57
   3   3 -13   12.69    0.48
   2  -3 -13   12.37    0.48
   2  -3 -13   12.48    0.43
  -2  -3  13   12.57    0.52
   2  -3 -13   12.40    0.51
  -2  -3  13   12.69    0.64
  -2   3  13   11.27    0.52
  -2   3  13   11.20    0.52
  -2   3  13   12.38    0.81
   2   3 -13   11.41    0.53
   2   3 -13   11.83    0.53
   2   3 -13   11.63    0.45
   1  -3 -13    2.14    0.12
  -1  -3  13    2.21    0.25
   1  -3 -13    2.32    0.11
   1  -3 -13    2.36    0.12
  -1  -3  13    2.26    0.18
  -1  -3  13    2.36    0.15
  -1   3  13    1.96    0.14
   1   3 -13    2.43    0.12
  -1   3  13    2.05    0.12
   1   3 -13    1.92    0.13
   1   3 -13    2.18    0.14
  -1   3  13    2.12    0.22
   0  -3  13    9.37    0.41
   0  -3  13    9.49    0.49
   0  -3 -13    9.09    0.33
   0  -3  13    8.73    0.65
   0  -3 -13    8.92    0.38
   0  -3 -13    9.47    0.37
   0   3 -13    9.53    0.41
   0   3 -13    9.01    0.35
   0   3  13    8.57    0.63
   0   3  13    8.93    0.40
  -1  -3 -13   14.10    0.78
   1  -3  13   14.49    0.97
  -1  -3 -13   14.47    0.50
  -1  -3 -13   14.43    0.56
  -1   3 -13   14.49    0.61
  -1   3 -13   14.70    0.52
   1   3  13   13.80    0.62
  -2  -3 -13    4.31    0.19
   2  -3  13    4.72    0.36
  -2   3 -13    4.71    0.18
  -4  -4  13   10.08    0.51
  -4  -4  13    8.04    0.51
   4  -4 -13    9.48    0.37
   4  -4 -13    9.27    0.33
  -4   4  13    9.57    0.41
  -4   4  13   10.60    0.64
  -3  -4  13    2.38    0.17
   3  -4 -13    2.41    0.11
   3  -4 -13    2.59    0.12
  -3  -4  13    2.58    0.16
  -3   4  13    2.60    0.22
  -3   4  13    2.24    0.14
   2  -4 -13    4.22    0.17
  -2  -4  13    4.76    0.27
   2  -4 -13    4.23    0.19
  -2   4  13    4.61    0.33
   2   4 -13    4.32    0.22
   1  -4 -13    0.75    0.05
   1  -4 -13    0.62    0.05
  -1  -4  13    0.73    0.09
   1   4 -13    0.64    0.06
   0  -4 -13    2.46    0.13
   0  -4 -13    2.23    0.13
  -7   0  14    0.91    0.10
   7   0 -14    0.97    0.08
   7   0 -14    0.85    0.06
   6   0 -14    0.12    0.04
  -6   0  14    0.00    0.04
  -6   0  14    0.05    0.05
   5   0 -14    2.28    0.14
   5   0 -14    2.19    0.11
  -5   0  14    2.11    0.14
   4   0 -14    0.76    0.07
  -4   0  14    0.79    0.09
   4   0 -14    0.60    0.08
  -4   0  14    0.82    0.08
  -3   0  14    7.78    0.59
   3   0 -14    8.13    0.32
   3   0 -14    8.75    0.38
  -3   0  14    8.23    0.37
  -3   0  14    8.16    0.44
   2   0 -14    0.17    0.05
  -2   0  14    0.01    0.07
  -2   0  14    0.09    0.11
   2   0 -14    0.00    0.05
  -2   0  14    0.03    0.07
  -1   0  14    0.42    0.07
   1   0 -14    0.58    0.07
   1   0 -14    0.42    0.06
   1   0 -14    0.57    0.06
  -1   0  14    0.46    0.13
  -1   0  14    0.40    0.09
  -1   0  14    0.35    0.08
   0   0  14    7.18    0.54
   0   0 -14    6.77    0.33
   0   0  14    7.89    0.34
   0   0  14    7.52    0.40
   0   0 -14    6.99    0.27
   0   0 -14    7.45    0.29
   1   0  14    6.86    0.51
  -1   0 -14    6.93    0.27
   1   0  14    7.61    0.33
  -1   0 -14    7.12    0.27
  -1   0 -14    6.95    0.32
   2   0  14   12.03    0.49
  -2   0 -14   11.14    0.42
  -2   0 -14   11.96    0.40
   2   0  14   10.22    0.76
   7  -1 -14    4.87    0.23
  -7  -1  14    5.25    0.30
   7   1 -14    5.14    0.20
  -7   1  14    5.20    0.30
   6  -1 -14    8.60    0.37
  -6  -1  14    8.29    0.37
  -6  -1  14    8.23    0.48
  -6   1  14    7.89    0.37
   6   1 -14    8.55    0.38
   6   1 -14    9.37    0.32
   6   1 -14    8.33    0.38
  -5  -1  14    7.66    0.46
  -5  -1  14    8.17    0.36
   5  -1 -14    8.26    0.36
  -5   1  14    8.18    0.36
   5   1 -14    8.19    0.37
   5   1 -14    8.07    0.31
   5   1 -14    7.86    0.37
  -4  -1  14    7.71    0.47
  -4  -1  14    7.76    0.44
  -4  -1  14    8.05    0.37
   4  -1 -14    8.52    0.37
   4   1 -14    8.35    0.37
  -4   1  14    7.81    0.43
  -4   1  14    8.57    0.37
  -4   1  14    8.18    0.57
   3  -1 -14   15.60    0.56
  -3  -1  14   15.70    0.81
  -3  -1  14   15.53    0.68
   3  -1 -14   15.85    0.68
  -3   1  14   16.15    1.06
  -3   1  14   16.00    0.81
  -3   1  14   16.10    0.68
   3   1 -14   15.97    0.59
   3   1 -14   15.88    0.69
   2  -1 -14   24.54    0.85
   2  -1 -14   23.92    0.94
  -2  -1  14   23.69    1.03
  -2  -1  14   25.67    1.23
  -2  -1  14   23.58    1.61
   2  -1 -14   22.15    1.03
  -2   1  14   24.78    1.61
  -2   1  14   23.81    1.22
  -2   1  14   26.03    1.03
   2   1 -14   25.56    1.04
   2   1 -14   25.58    0.89
  -1  -1  14   18.95    0.99
  -1  -1  14   19.48    0.83
   1  -1 -14   19.31    0.68
   1  -1 -14   18.78    0.75
  -1  -1  14   18.82    1.30
  -1   1  14   19.63    0.83
  -1   1  14   19.21    1.29
   1   1 -14   20.35    0.71
   1   1 -14   20.39    0.83
  -1   1  14   20.06    0.98
   0  -1 -14   31.33    1.31
   0  -1 -14   31.69    1.09
   0  -1  14   32.47    1.57
   0  -1  14   32.36    2.07
   0  -1 -14   30.50    1.21
   0  -1  14   32.16    1.33
   0   1  14   30.85    1.56
   0   1  14   31.74    1.33
   0   1 -14   32.35    1.14
   0   1 -14   33.62    1.32
   0   1  14   29.89    2.06
   0   1  14   31.63    1.33
   1  -1  14   23.81    1.58
  -1  -1 -14   25.25    0.99
  -1  -1 -14   25.32    0.83
  -1  -1 -14   22.90    0.92
   1  -1  14   25.55    1.01
   1   1  14   21.44    1.02
   1   1  14   22.23    1.57
  -1   1 -14   25.86    0.87
   1   1  14   24.20    1.01
  -1   1 -14   23.45    0.83
   2  -1  14    3.01    0.26
   2  -1  14    3.18    0.16
  -2  -1 -14    2.83    0.13
  -2   1 -14    3.35    0.13
  -2   1 -14    3.22    0.13
   2   1  14    3.04    0.16
  -6  -2  14   10.40    0.57
   6  -2 -14   10.21    0.44
  -6   2  14    9.99    0.44
   6   2 -14   10.85    0.38
   5  -2 -14    2.62    0.14
  -5  -2  14    2.79    0.14
   5  -2 -14    2.67    0.12
   5   2 -14    2.57    0.15
  -5   2  14    2.56    0.24
  -5   2  14    2.62    0.15
   5   2 -14    2.66    0.15
   5   2 -14    2.73    0.13
  -4  -2  14    6.45    0.37
   4  -2 -14    6.48    0.24
   4  -2 -14    6.46    0.27
  -4  -2  14    6.96    0.30
   4   2 -14    6.73    0.31
  -4   2  14    6.10    0.35
  -4   2  14    6.84    0.30
  -4   2  14    6.83    0.47
   4   2 -14    6.45    0.26
   4   2 -14    6.35    0.31
   3  -2 -14   25.50    0.99
   3  -2 -14   25.14    1.07
  -3  -2  14   26.48    1.29
  -3  -2  14   26.86    1.08
   3  -2 -14   24.66    0.89
   3   2 -14   25.76    1.09
  -3   2  14   25.98    1.08
  -3   2  14   27.80    1.69
   3   2 -14   24.54    1.10
   3   2 -14   25.51    0.93
   2  -2 -14   15.50    0.63
  -2  -2  14   16.60    0.83
  -2  -2  14   16.66    0.70
   2  -2 -14   16.18    0.57
   2  -2 -14   15.95    0.68
  -2   2  14   16.67    1.08
   2   2 -14   16.01    0.70
   2   2 -14   16.68    0.60
  -2   2  14   15.64    0.69
   1  -2 -14    7.20    0.31
  -1  -2  14    7.00    0.39
  -1  -2  14    6.85    0.33
   1  -2 -14    7.19    0.26
   1  -2 -14    6.94    0.29
  -1  -2  14    7.11    0.52
  -1   2  14    6.25    0.31
   1   2 -14    6.84    0.27
  -1   2  14    7.00    0.32
   1   2 -14    7.17    0.32
  -1   2  14    6.80    0.50
   0  -2 -14    2.78    0.12
   0  -2 -14    2.67    0.13
   0  -2 -14    2.57    0.13
   0  -2  14    2.40    0.18
   0  -2  14    2.45    0.26
   0   2 -14    2.54    0.15
   0   2  14    2.51    0.25
   0   2  14    2.37    0.17
   0   2  14    2.64    0.16
   0   2 -14    2.70    0.13
   0   2  14    2.49    0.13
  -1  -2 -14    9.45    0.38
  -1  -2 -14    9.51    0.34
   1  -2  14    9.56    0.67
   1   2  14    9.09    0.42
  -1   2 -14    9.52    0.41
  -1   2 -14   10.20    0.36
  -5  -3  14    9.73    0.52
   5  -3 -14    9.69    0.33
   5  -3 -14    9.69    0.37
  -5   3  14    9.17    0.40
  -5   3  14    8.84    0.64
   4  -3 -14    3.62    0.16
   4  -3 -14    3.60    0.17
  -4  -3  14    3.31    0.21
   4  -3 -14    3.53    0.14
  -4   3  14    3.39    0.17
   4   3 -14    3.28    0.14
  -4   3  14    3.50    0.28
   4   3 -14    3.17    0.17
  -3  -3  14    3.27    0.22
   3  -3 -14    3.46    0.14
   3  -3 -14    3.47    0.15
   3  -3 -14    3.26    0.16
  -3  -3  14    3.18    0.16
   3   3 -14    3.16    0.17
   3   3 -14    3.30    0.17
  -3   3  14    3.33    0.17
   3   3 -14    3.29    0.14
  -3   3  14    3.43    0.27
   2  -3 -14    5.33    0.22
   2  -3 -14    5.13    0.22
  -2  -3  14    5.14    0.30
  -2  -3  14    5.25    0.24
   2  -3 -14    5.43    0.19
  -2   3  14    5.21    0.37
   2   3 -14    5.08    0.20
   2   3 -14    4.89    0.24
   2   3 -14    4.61    0.23
  -2   3  14    4.97    0.24
  -2   3  14    4.33    0.23
   1  -3 -14    8.56    0.33
  -1  -3  14    8.62    0.37
   1  -3 -14    8.43    0.30
   1  -3 -14    8.21    0.35
  -1  -3  14    8.83    0.45
   1   3 -14    8.30    0.31
  -1   3  14    7.42    0.36
  -1   3  14    8.22    0.57
  -1   3  14    7.97    0.37
   1   3 -14    8.61    0.37
   0  -3 -14    6.05    0.24
   0  -3  14    5.64    0.44
   0  -3 -14    5.76    0.22
   0   3 -14    5.95    0.23
   0   3 -14    6.20    0.27
   6   0 -15   19.01    0.68
   6   0 -15   19.05    0.79
  -6   0  15   18.40    1.00
   5   0 -15    2.32    0.14
  -5   0  15    2.25    0.14
   5   0 -15    2.40    0.11
  -5   0  15    2.21    0.16
   4   0 -15    9.82    0.37
  -4   0  15    9.38    0.51
   4   0 -15   10.03    0.43
  -3   0  15   14.36    0.63
  -3   0  15   14.33    0.63
   3   0 -15   16.02    0.64
  -3   0  15   14.15    0.99
  -3   0  15   15.29    0.75
   3   0 -15   14.56    0.54
  -2   0  15    0.79    0.14
   2   0 -15    0.59    0.07
  -2   0  15    0.58    0.07
  -2   0  15    0.79    0.08
  -2   0  15    0.73    0.10
   2   0 -15    0.69    0.07
  -1   0  15    1.16    0.15
   1   0 -15    1.01    0.08
   1   0 -15    1.21    0.08
  -1   0  15    1.03    0.11
  -1   0  15    1.25    0.10
   0   0 -15    0.23    0.04
   0   0  15    0.17    0.09
   0   0  15    0.24    0.05
   0   0 -15    0.28    0.05
   0   0 -15    0.20    0.04
   0   0  15    0.30    0.06
   1   0  15    5.53    0.41
  -1   0 -15    5.82    0.21
   1   0  15    5.82    0.26
  -1   0 -15    5.51    0.22
  -6  -1  15    0.42    0.06
   6  -1 -15    0.42    0.05
  -6   1  15    0.35    0.06
   6   1 -15    0.55    0.05
  -5  -1  15    2.90    0.20
  -5  -1  15    3.23    0.16
   5  -1 -15    3.31    0.16
   5   1 -15    3.25    0.14
   5   1 -15    3.20    0.17
  -4  -1  15    0.82    0.08
  -4  -1  15    1.20    0.12
   4  -1 -15    1.01    0.09
  -4   1  15    0.70    0.09
   4   1 -15    1.13    0.09
   4   1 -15    1.08    0.08
  -4   1  15    0.91    0.13
  -4   1  15    1.07    0.10
  -3  -1  15   13.57    0.61
   3  -1 -15   13.42    0.49
   3  -1 -15   13.61    0.60
  -3  -1  15   14.32    0.72
   3   1 -15   14.75    0.61
  -3   1  15   13.72    0.94
  -3   1  15   14.29    0.72
  -3   1  15   14.59    0.60
   3   1 -15   14.59    0.52
   2  -1 -15    2.29    0.14
  -2  -1  15    2.52    0.25
   2  -1 -15    2.42    0.12
  -2  -1  15    2.71    0.19
  -2   1  15    2.39    0.16
  -2   1  15    2.40    0.25
   2   1 -15    2.58    0.15
   2   1 -15    2.61    0.13
  -2   1  15    2.77    0.18
  -1  -1  15    5.16    0.25
   1  -1 -15    5.25    0.24
  -1  -1  15    5.45    0.31
   1  -1 -15    5.33    0.21
  -1  -1  15    5.15    0.41
   1   1 -15    5.72    0.22
  -1   1  15    5.57    0.26
  -1   1  15    5.55    0.26
  -1   1  15    5.14    0.40
   1   1 -15    5.26    0.25
   0  -1  15    2.86    0.15
   0  -1  15    2.70    0.18
   0  -1 -15    2.89    0.13
   0  -1  15    2.67    0.26
   0  -1 -15    2.70    0.14
   0   1  15    2.64    0.17
   0   1  15    2.84    0.25
   0   1  15    2.86    0.15
   0   1 -15    2.80    0.14
   0   1 -15    2.94    0.13
   1  -1  15    5.79    0.42
  -1  -1 -15    5.37    0.21
  -1   1 -15    5.51    0.21
  -5   2  15    1.99    0.12
   5   2 -15    2.34    0.10
  -4  -2  15    0.51    0.06
   4  -2 -15    0.50    0.05
  -4  -2  15    0.48    0.07
   4  -2 -15    0.45    0.05
   4   2 -15    0.46    0.05
  -4   2  15    0.50    0.07
   4   2 -15    0.38    0.05
  -4   2  15    0.61    0.10
  -4   2  15    0.56    0.06
   3  -2 -15   20.10    0.71
   3  -2 -15   19.74    0.86
  -3  -2  15   20.98    1.04
  -3  -2  15   21.08    0.87
   3  -2 -15   20.03    0.79
   3   2 -15   21.15    0.87
   3   2 -15   23.05    0.75
  -3   2  15   19.99    1.03
  -3   2  15   20.86    0.87
  -3   2  15   20.24    1.35
   2  -2 -15   13.49    0.58
  -2  -2  15   13.35    0.59
   2  -2 -15   13.25    0.53
   2  -2 -15   13.54    0.48
  -2  -2  15   14.48    0.71
  -2   2  15   13.78    0.92
  -2   2  15   13.74    0.59
   2   2 -15   14.07    0.51
  -2   2  15   13.65    0.69
   2   2 -15   14.07    0.59
   1  -2 -15    0.71    0.06
   1  -2 -15    0.62    0.06
  -1  -2  15    0.67    0.12
   1  -2 -15    0.89    0.06
  -1  -2  15    0.63    0.09
  -1   2  15    0.74    0.08
  -1   2  15    0.61    0.11
  -1   2  15    0.77    0.08
   1   2 -15    0.81    0.06
   1   2 -15    0.80    0.07
   0  -2  15    5.32    0.40
   0  -2 -15    5.40    0.20
   0   2 -15    5.50    0.21
   0   2 -15    5.15    0.24
   5   0 -16    8.39    0.31
  -5   0  16    8.08    0.45
   4   0 -16    4.34    0.17
  -4   0  16    3.91    0.24
   4   0 -16    4.36    0.20
  -4   0  16    3.94    0.24
   3   0 -16    0.10    0.04
  -3   0  16    0.20    0.09
   3   0 -16    0.05    0.04
  -3   0  16    0.14    0.06
  -2   0  16    5.82    0.44
  -2   0  16    5.84    0.27
  -2   0  16    6.55    0.33
   2   0 -16    6.01    0.23
  -1   0  16    0.22    0.05
   1   0 -16    0.21    0.04
  -1   0  16    0.36    0.10
  -1   0  16    0.29    0.06
   4   1 -16    5.61    0.25
   4   1 -16    5.48    0.21
  -3  -1  16   26.51    1.30
   3   1 -16   26.63    1.09
  -3   1  16   26.65    1.09
  -3   1  16   26.07    1.29
   3   1 -16   26.58    0.94
  -3   1  16   26.15    1.09
  -3   1  16   25.13    1.70
  -2  -1  16   25.61    1.20
   2   1 -16   24.68    0.87
  -2   1  16   22.99    1.58
   2   1 -16   24.26    1.01
  -2   1  16   24.31    1.20
  -2   1  16   24.12    1.01
  -2   1  16   24.10    1.01
   1   1 -16    1.65    0.08
  -1   1  16    1.61    0.10
   0   0   0    0.00    0.00
;
_shelx_hkl_checksum              41156
#END Tags that were not found in dictionaries
loop_
_space_group_symop_operation_xyz
'x, y, z'
'-x, y+1/2, -z'
loop_
_atom_site_label
_atom_site_type_symbol
_atom_site_fract_x
_atom_site_fract_y
_atom_site_fract_z
_atom_site_U_iso_or_equiv
_atom_site_adp_type
_atom_site_occupancy
_atom_site_site_symmetry_order
_atom_site_calc_flag
_atom_site_refinement_flags_posn
_atom_site_refinement_flags_adp
O1 O 0.09248(14) 1.06759(19) 0.61240(9) 0.0166(3) Uani 1 1 d D .
H1O H 0.024(3) 1.031(5) 0.5579(17) 0.038(7) Uiso 1 1 d D .
O2 O 0.11682(14) 0.5013(2) 0.57301(8) 0.0165(3) Uani 1 1 d D .
H2O H 0.132(3) 0.375(3) 0.5997(17) 0.026(6) Uiso 1 1 d D .
C1 C 0.0965(2) 0.9097(3) 0.68866(13) 0.0157(4) Uani 1 1 d . .
H1A H -0.0060 0.8190 0.6686 0.019 Uiso 1 1 calc R U
H1B H 0.0981 0.9868 0.7517 0.019 Uiso 1 1 calc R U
C2 C 0.2499(2) 0.7591(3) 0.70739(12) 0.0150(4) Uani 1 1 d . .
H2 H 0.3514 0.8537 0.7304 0.018 Uiso 1 1 calc R U
C3 C 0.25881(19) 0.6398(3) 0.61046(12) 0.0133(3) Uani 1 1 d . .
H3 H 0.2517 0.7567 0.5587 0.016 Uiso 1 1 calc R U
C4 C 0.42409(19) 0.5238(3) 0.62319(11) 0.0141(3) Uani 1 1 d . .
C5 C 0.5471(2) 0.6251(3) 0.58833(12) 0.0171(4) Uani 1 1 d . .
H5 H 0.5257 0.7642 0.5561 0.021 Uiso 1 1 calc R U
C6 C 0.7005(2) 0.5242(3) 0.60030(12) 0.0207(4) Uani 1 1 d . .
H6 H 0.7832 0.5944 0.5761 0.025 Uiso 1 1 calc R U
C7 C 0.7337(2) 0.3214(3) 0.64736(13) 0.0214(4) Uani 1 1 d . .
H7 H 0.8389 0.2526 0.6558 0.026 Uiso 1 1 calc R U
C8 C 0.6116(2) 0.2196(3) 0.68202(13) 0.0204(4) Uani 1 1 d . .
H8 H 0.6333 0.0802 0.7139 0.024 Uiso 1 1 calc R U
C9 C 0.4588(2) 0.3195(3) 0.67045(13) 0.0179(4) Uani 1 1 d . .
H9 H 0.3766 0.2487 0.6948 0.021 Uiso 1 1 calc R U
C10 C 0.2483(2) 0.6082(3) 0.78972(12) 0.0166(4) Uani 1 1 d . .
C11 C 0.2419(2) 0.4964(3) 0.85954(12) 0.0188(4) Uani 1 1 d . .
C12 C 0.2419(2) 0.3695(3) 0.94708(13) 0.0180(4) Uani 1 1 d . .
C13 C 0.3164(2) 0.1627(3) 0.96376(14) 0.0242(4) Uani 1 1 d . .
H13 H 0.3650 0.1011 0.9157 0.029 Uiso 1 1 calc R U
C14 C 0.3197(2) 0.0468(4) 1.05024(16) 0.0299(5) Uani 1 1 d . .
H14 H 0.3713 -0.0937 1.0614 0.036 Uiso 1 1 calc R U
C15 C 0.2484(2) 0.1346(4) 1.12037(15) 0.0318(5) Uani 1 1 d . .
H15 H 0.2514 0.0547 1.1797 0.038 Uiso 1 1 calc R U
C16 C 0.1731(2) 0.3382(4) 1.10408(14) 0.0280(5) Uani 1 1 d . .
H16 H 0.1239 0.3977 1.1523 0.034 Uiso 1 1 calc R U
C17 C 0.1684(2) 0.4570(3) 1.01808(13) 0.0215(4) Uani 1 1 d . .
H17 H 0.1157 0.5968 1.0072 0.026 Uiso 1 1 calc R U
loop_
_atom_site_aniso_label
_atom_site_aniso_U_11
_atom_site_aniso_U_22
_atom_site_aniso_U_33
_atom_site_aniso_U_23
_atom_site_aniso_U_13
_atom_site_aniso_U_12
O1 0.0187(6) 0.0100(6) 0.0190(6) 0.0004(5) 0.0016(5) 0.0004(5)
O2 0.0166(6) 0.0117(6) 0.0192(6) 0.0018(5) 0.0021(4) 0.0006(5)
C1 0.0168(8) 0.0134(9) 0.0177(8) 0.0000(6) 0.0061(6) 0.0001(7)
C2 0.0156(8) 0.0126(9) 0.0168(8) 0.0004(7) 0.0046(6) -0.0007(6)
C3 0.0153(8) 0.0084(8) 0.0163(7) 0.0016(6) 0.0045(6) -0.0006(6)
C4 0.0154(7) 0.0123(8) 0.0140(7) -0.0022(6) 0.0033(6) -0.0002(7)
C5 0.0210(8) 0.0150(9) 0.0153(7) -0.0039(7) 0.0052(6) -0.0025(7)
C6 0.0186(8) 0.0267(10) 0.0183(8) -0.0077(8) 0.0077(6) -0.0044(8)
C7 0.0148(8) 0.0253(10) 0.0226(9) -0.0105(8) 0.0027(6) 0.0042(7)
C8 0.0224(9) 0.0144(10) 0.0209(8) -0.0028(8) 0.0007(7) 0.0044(7)
C9 0.0173(8) 0.0142(9) 0.0213(8) 0.0000(7) 0.0042(6) 0.0004(7)
C10 0.0174(8) 0.0145(9) 0.0180(8) -0.0012(8) 0.0050(6) 0.0016(7)
C11 0.0200(8) 0.0178(9) 0.0182(8) 0.0008(8) 0.0049(6) 0.0019(7)
C12 0.0180(8) 0.0176(9) 0.0169(8) 0.0036(7) 0.0021(6) -0.0024(7)
C13 0.0227(9) 0.0220(10) 0.0270(9) 0.0024(8) 0.0057(7) 0.0000(8)
C14 0.0250(9) 0.0221(10) 0.0374(10) 0.0126(8) 0.0003(7) 0.0011(8)
C15 0.0280(10) 0.0397(13) 0.0242(9) 0.0155(9) 0.0015(7) -0.0090(9)
C16 0.0267(9) 0.0383(12) 0.0196(9) 0.0007(9) 0.0074(7) -0.0077(9)
C17 0.0227(9) 0.0206(10) 0.0209(8) 0.0005(7) 0.0053(7) -0.0011(7)
loop_
_atom_type_symbol
_atom_type_description
_atom_type_scat_dispersion_real
_atom_type_scat_dispersion_imag
_atom_type_scat_source
C C 0.0181 0.0091 'International Tables Vol C Tables 4.2.6.8 and 6.1.1.4'
H H 0.0000 0.0000 'International Tables Vol C Tables 4.2.6.8 and 6.1.1.4'
O O 0.0492 0.0322 'International Tables Vol C Tables 4.2.6.8 and 6.1.1.4'
loop_
_geom_angle_atom_site_label_1
_geom_angle_atom_site_label_2
_geom_angle_atom_site_label_3
_geom_angle
C1 O1 H1O 111.0(19)
C3 O2 H2O 111.8(16)
O1 C1 C2 111.84(13)
O1 C1 H1A 109.2
C2 C1 H1A 109.2
O1 C1 H1B 109.2
C2 C1 H1B 109.2
H1A C1 H1B 107.9
C10 C2 C1 108.33(13)
C10 C2 C3 113.34(14)
C1 C2 C3 111.98(13)
C10 C2 H2 107.7
C1 C2 H2 107.7
C3 C2 H2 107.7
O2 C3 C4 113.82(13)
O2 C3 C2 110.73(12)
C4 C3 C2 112.46(13)
O2 C3 H3 106.4
C4 C3 H3 106.4
C2 C3 H3 106.4
C5 C4 C9 118.63(15)
C5 C4 C3 119.33(15)
C9 C4 C3 122.04(15)
C6 C5 C4 120.57(17)
C6 C5 H5 119.7
C4 C5 H5 119.7
C7 C6 C5 120.35(17)
C7 C6 H6 119.8
C5 C6 H6 119.8
C6 C7 C8 119.33(16)
C6 C7 H7 120.3
C8 C7 H7 120.3
C9 C8 C7 120.56(18)
C9 C8 H8 119.7
C7 C8 H8 119.7
C8 C9 C4 120.57(17)
C8 C9 H9 119.7
C4 C9 H9 119.7
C11 C10 C2 175.49(18)
C10 C11 C12 176.69(19)
C13 C12 C17 119.24(17)
C13 C12 C11 121.19(17)
C17 C12 C11 119.56(17)
C14 C13 C12 120.15(19)
C14 C13 H13 119.9
C12 C13 H13 119.9
C15 C14 C13 120.4(2)
C15 C14 H14 119.8
C13 C14 H14 119.8
C16 C15 C14 119.90(18)
C16 C15 H15 120.1
C14 C15 H15 120.1
C15 C16 C17 120.67(18)
C15 C16 H16 119.7
C17 C16 H16 119.7
C16 C17 C12 119.67(18)
C16 C17 H17 120.2
C12 C17 H17 120.2
loop_
_geom_bond_atom_site_label_1
_geom_bond_atom_site_label_2
_geom_bond_distance
O1 C1 1.423(2)
O1 H1O 0.84(2)
O2 C3 1.428(2)
O2 H2O 0.85(2)
C1 C2 1.536(2)
C1 H1A 0.9900
C1 H1B 0.9900
C2 C10 1.468(2)
C2 C3 1.549(2)
C2 H2 1.0000
C3 C4 1.516(2)
C3 H3 1.0000
C4 C5 1.397(2)
C4 C9 1.397(3)
C5 C6 1.388(3)
C5 H5 0.9500
C6 C7 1.387(3)
C6 H6 0.9500
C7 C8 1.390(3)
C7 H7 0.9500
C8 C9 1.381(3)
C8 H8 0.9500
C9 H9 0.9500
C10 C11 1.197(3)
C11 C12 1.439(2)
C12 C13 1.394(3)
C12 C17 1.404(3)
C13 C14 1.385(3)
C13 H13 0.9500
C14 C15 1.384(3)
C14 H14 0.9500
C15 C16 1.379(3)
C15 H15 0.9500
C16 C17 1.386(3)
C16 H16 0.9500
C17 H17 0.9500
loop_
_geom_hbond_atom_site_label_D
_geom_hbond_atom_site_label_H
_geom_hbond_atom_site_label_A
_geom_hbond_distance_DH
_geom_hbond_distance_HA
_geom_hbond_distance_DA
_geom_hbond_angle_DHA
_geom_hbond_site_symmetry_A
O1 H1O O2 0.84(2) 1.88(2) 2.7031(15) 169(3) 2_556
O2 H2O O1 0.85(2) 1.91(2) 2.7130(17) 157(2) 1_545
loop_
_geom_torsion_atom_site_label_1
_geom_torsion_atom_site_label_2
_geom_torsion_atom_site_label_3
_geom_torsion_atom_site_label_4
_geom_torsion
O1 C1 C2 C10 177.57(13)
O1 C1 C2 C3 -56.71(18)
C10 C2 C3 O2 61.15(17)
C1 C2 C3 O2 -61.77(17)
C10 C2 C3 C4 -67.43(17)
C1 C2 C3 C4 169.64(13)
O2 C3 C4 C5 133.92(14)
C2 C3 C4 C5 -99.12(17)
O2 C3 C4 C9 -47.20(19)
C2 C3 C4 C9 79.76(19)
C9 C4 C5 C6 0.1(2)
C3 C4 C5 C6 179.05(14)
C4 C5 C6 C7 -0.2(2)
C5 C6 C7 C8 0.3(2)
C6 C7 C8 C9 -0.4(3)
C7 C8 C9 C4 0.4(3)
C5 C4 C9 C8 -0.2(2)
C3 C4 C9 C8 -179.13(15)
C17 C12 C13 C14 -0.9(3)
C11 C12 C13 C14 177.82(18)
C12 C13 C14 C15 0.4(3)
C13 C14 C15 C16 0.2(3)
C14 C15 C16 C17 -0.2(3)
C15 C16 C17 C12 -0.3(3)
C13 C12 C17 C16 0.9(3)
C11 C12 C17 C16 -177.86(16)
