#------------------------------------------------------------------------------
#$Date: 2016-03-22 21:51:41 +0200 (Tue, 22 Mar 2016) $
#$Revision: 179026 $
#$URL: svn://www.crystallography.net/cod/cif/4/12/24/4122416.cif $
#------------------------------------------------------------------------------
#
# This file is available in the Crystallography Open Database (COD),
# http://www.crystallography.net/
#
# All data on this site have been placed in the public domain by the
# contributors.
#
data_4122416
loop_
_publ_author_name
'Vo, Thao T.'
'Parrish, Damon A.'
'Shreeve, Jean'ne M.'
_publ_section_title
;
 Tetranitroacetimidic Acid: A High Oxygen Oxidizer and Potential
 Replacement for Ammonium Perchlorate.
;
_journal_issue                   34
_journal_name_full               'Journal of the American Chemical Society'
_journal_page_first              11934
_journal_paper_doi               10.1021/ja5074036
_journal_volume                  136
_journal_year                    2014
_chemical_formula_moiety         'C N3 O6, C5 H4 N'
_chemical_formula_sum            'C6 H4 N4 O6'
_chemical_formula_weight         228.13
_chemical_name_systematic
;
 ?
;
_space_group_crystal_system      monoclinic
_space_group_IT_number           14
_space_group_name_Hall           '-P 2ybc'
_space_group_name_H-M_alt        'P 1 21/c 1'
_symmetry_space_group_name_Hall  '-P 2ybc'
_symmetry_space_group_name_H-M   'P 1 21/c 1'
_atom_sites_solution_hydrogens   geom
_atom_sites_solution_primary     direct
_audit_creation_date             2013-05-16
_audit_creation_method
;
Olex2 1.2
(compiled 2014.03.20 svn.r2914 for OlexSys, GUI svn.r4816)
;
_cell_angle_alpha                90
_cell_angle_beta                 90.944(7)
_cell_angle_gamma                90
_cell_formula_units_Z            4
_cell_length_a                   8.416(4)
_cell_length_b                   8.646(4)
_cell_length_c                   12.186(5)
_cell_measurement_reflns_used    4026
_cell_measurement_temperature    150(2)
_cell_measurement_theta_max      22.393
_cell_measurement_theta_min      2.890
_cell_volume                     886.6(7)
_computing_molecular_graphics    'Olex2 (Dolomanov et al., 2009)'
_computing_publication_material  'Olex2 (Dolomanov et al., 2009)'
_computing_structure_refinement  'XL (Sheldrick, 2008)'
_computing_structure_solution    'XS (Sheldrick, 2008)'
_diffrn_ambient_temperature      149.98
_diffrn_measured_fraction_theta_full 1.013
_diffrn_measured_fraction_theta_max 0.996
_diffrn_measurement_device_type  'Bruker APEX-II CCD'
_diffrn_measurement_method       '\f and \w scans'
_diffrn_radiation_type           MoK\a
_diffrn_radiation_wavelength     0.71073
_diffrn_reflns_av_R_equivalents  0.1700
_diffrn_reflns_av_unetI/netI     0.0983
_diffrn_reflns_Laue_measured_fraction_full 1.013
_diffrn_reflns_Laue_measured_fraction_max 0.996
_diffrn_reflns_limit_h_max       11
_diffrn_reflns_limit_h_min       -11
_diffrn_reflns_limit_k_max       11
_diffrn_reflns_limit_k_min       -11
_diffrn_reflns_limit_l_max       16
_diffrn_reflns_limit_l_min       -16
_diffrn_reflns_number            13102
_diffrn_reflns_point_group_measured_fraction_full 1.013
_diffrn_reflns_point_group_measured_fraction_max 0.996
_diffrn_reflns_theta_full        26.000
_diffrn_reflns_theta_max         29.100
_diffrn_reflns_theta_min         1.671
_diffrn_standards_number         0
_exptl_absorpt_coefficient_mu    0.156
_exptl_absorpt_correction_T_max  0.7452
_exptl_absorpt_correction_T_min  0.4825
_exptl_absorpt_correction_type   numerical
_exptl_absorpt_process_details
;
SADABS-2012/1 (Bruker,2012) was used for absorption correction.
wR2(int) was 0.1343 before and 0.0860 after correction.
The Ratio of minimum to maximum transmission is 0.6475.
The \l/2 correction factor is 0.0015.
;
_exptl_crystal_colour            yellow
_exptl_crystal_colour_primary    yellow
_exptl_crystal_density_diffrn    1.709
_exptl_crystal_description       prism
_exptl_crystal_F_000             464
_exptl_crystal_size_max          0.175
_exptl_crystal_size_mid          0.17
_exptl_crystal_size_min          0.071
_refine_diff_density_max         0.677
_refine_diff_density_min         -0.611
_refine_diff_density_rms         0.125
_refine_ls_extinction_method     none
_refine_ls_goodness_of_fit_ref   1.151
_refine_ls_hydrogen_treatment    constr
_refine_ls_matrix_type           full
_refine_ls_number_parameters     146
_refine_ls_number_reflns         2360
_refine_ls_number_restraints     0
_refine_ls_restrained_S_all      1.151
_refine_ls_R_factor_all          0.1349
_refine_ls_R_factor_gt           0.0987
_refine_ls_shift/su_max          0.000
_refine_ls_shift/su_mean         0.000
_refine_ls_structure_factor_coef Fsqd
_refine_ls_weighting_details
'w=1/[\s^2^(Fo^2^)+(0.2000P)^2^] where P=(Fo^2^+2Fc^2^)/3'
_refine_ls_weighting_scheme      calc
_refine_ls_wR_factor_gt          0.2784
_refine_ls_wR_factor_ref         0.3233
_reflns_Friedel_coverage         0.000
_reflns_number_gt                1558
_reflns_number_total             2360
_reflns_threshold_expression     'I > 2\s(I)'
_cod_data_source_file            ja5074036_si_004.cif
_cod_data_source_block           tvo1922_0m
_cod_depositor_comments
'Adding full bibliography for 4122416--4122419.cif.'
_cod_original_cell_volume        886.7(6)
_cod_database_code               4122416
#BEGIN Tags that were not found in dictionaries:
_shelxl_version_number           2013-3
_shelx_space_group_comment
;
The symmetry employed for this shelxl refinement is uniquely defined
by the following loop, which should always be used as a source of
symmetry information in preference to the above space-group names.
They are only intended as comments.
;
_shelx_estimated_absorpt_t_max   0.989
_shelx_estimated_absorpt_t_min   0.973
_olex2_refinement_description
;
1. Fixed Uiso
 At 1.2 times of:
  All C(H) groups, All N(H) groups
2.a Aromatic/amide H refined with riding coordinates:
 N2(H2), C2(H2A), C3(H3), C4(H4)
;
_shelx_res_file
;
TITL tvo1922_0m in P2(1)/c
CELL 0.71073 8.4165 8.6462 12.1861 90 90.944 90
ZERR 4 0.0035 0.0036 0.0051 0 0.007 0
LATT 1
SYMM -X,0.5+Y,0.5-Z
 
SFAC C H N O
UNIT 24 16 16 24
 
L.S. 5
PLAN  -5 0 0
SIZE 0.071 0.17 0.175
TEMP -123.17
HTAB
BOND $H
CONF
MORE -1
fmap 2
ACTA 52
TWIN -1 0 0 0 -1 0 0 0 1 2
REM <HKL>C:/Frames/NRC/2014/Shreeve/tvo1922/work/tvo1922_0m.hkl</HKL>
 
WGHT    0.200000
BASF   0.23960
FVAR       0.34339
O1    4    0.563155    0.820206    0.096531    11.00000    0.04173    0.01925 =
         0.02467    0.00089    0.00934   -0.00279
O2    4    0.871563    1.115381   -0.050256    11.00000    0.04869    0.02382 =
         0.01291    0.00207    0.00494   -0.00151
O3    4    0.657052    0.885036   -0.062210    11.00000    0.05510    0.02634 =
         0.01004   -0.00221   -0.00096   -0.00411
O4    4    0.941464    1.176849    0.118403    11.00000    0.04204    0.01884 =
         0.02021   -0.00289    0.00104   -0.00203
O5    4    0.830735    0.911437    0.263679    11.00000    0.06754    0.02708 =
         0.01908    0.00590   -0.00326    0.00929
O6    4    0.646982    1.086413    0.254609    11.00000    0.05849    0.03115 =
         0.02194   -0.00059    0.01277    0.00679
C1    1    0.690572    0.439305    0.222499    11.00000    0.04353    0.01674 =
         0.01466    0.00284    0.00283    0.00067
N2    3    0.810759    0.539083    0.231257    11.00000    0.04712    0.02099 =
         0.01277   -0.00302    0.00041    0.00183
AFIX  43
H2    2    0.846170    0.563834    0.297298    11.00000   -1.20000
AFIX   0
 
N3    3    0.653515    0.898710    0.038548    11.00000    0.03594    0.01799 =
         0.01285   -0.00024    0.00161    0.00255
N4    3    0.857829    1.099223    0.051189    11.00000    0.03730    0.01465 =
         0.01436   -0.00055    0.00410    0.00071
C2    1    0.704461    0.461813    0.028591    11.00000    0.04355    0.03145 =
         0.01552   -0.00362   -0.00141    0.01254
AFIX  43
H2A   2    0.667765    0.433445   -0.042750    11.00000   -1.20000
AFIX   0
C3    1    0.635152    0.399625    0.119087    11.00000    0.03422    0.01901 =
         0.02811   -0.00435   -0.00177    0.00125
AFIX  43
H3    2    0.549071    0.329284    0.110839    11.00000   -1.20000
AFIX   0
C4    1    0.879922    0.603199    0.144815    11.00000    0.03892    0.01759 =
         0.02938    0.00221    0.00770    0.00414
AFIX  43
H4    2    0.964862    0.674388    0.155027    11.00000   -1.20000
AFIX   0
C5    1    0.827533    0.565630    0.040863    11.00000    0.05310    0.02728 =
         0.01961    0.00892    0.01212    0.01303
 
C6    1    0.750453    1.000719    0.093880    11.00000    0.04091    0.02137 =
         0.00916    0.00002    0.00253   -0.00369
N7    3    0.742002    0.998771    0.212646    11.00000    0.04798    0.01519 =
         0.01093   -0.00018    0.00405   -0.00142
HKLF 4
 
REM  tvo1922_0m in P2(1)/c
REM R1 =  0.0987 for    1558 Fo > 4sig(Fo)  and  0.1349 for all    2360 data
REM    146 parameters refined using      0 restraints
 
END  
     
WGHT      0.2000      0.0000 

REM Instructions for potential hydrogen bonds
EQIV $1 x, -y+3/2, z+1/2
HTAB N2 O2_$1
HTAB N2 O3_$1
EQIV $2 -x+2, y-1/2, -z+1/2
HTAB N2 O4_$2
EQIV $3 -x+1, -y+1, -z
HTAB C3 O3_$3
EQIV $4 -x+2, -y+2, -z
HTAB C4 O2_$4

REM Highest difference peak  0.677,  deepest hole -0.611,  1-sigma level  0.125
Q1    1   0.6843  0.4847  0.2381  11.00000  0.05    0.68
Q2    1   0.5339  0.8910 -0.0563  11.00000  0.05    0.64
Q3    1   0.4401  0.8260  0.0947  11.00000  0.05    0.63
Q4    1   0.7556  1.1284 -0.0627  11.00000  0.05    0.62
Q5    1   0.9466  0.9131  0.2598  11.00000  0.05    0.57

REM The information below was added by Olex2.
REM
REM R1 = 0.0987 for 1558 Fo > 4sig(Fo) and 0.1349 for all 13102 data
REM n/a parameters refined using n/a restraints
REM Highest difference peak 0.68, deepest hole -0.61
REM Mean Shift 0, Max Shift 0.000.

REM +++ Tabular Listing of Refinement Information +++
REM R1_all = 0.1349
REM R1_gt = 0.0987
REM wR_ref = 0.3233
REM GOOF = 1.151
REM Shift_max = 0.000
REM Shift_mean = 0
REM Reflections_all = 13102
REM Reflections_gt = 1558
REM Parameters = n/a
REM Hole = -0.61
REM Peak = 0.68
REM Flack = n/a

;
#END Tags that were not found in dictionaries
loop_
_space_group_symop_operation_xyz
'x, y, z'
'-x, y+1/2, -z+1/2'
'-x, -y, -z'
'x, -y-1/2, z-1/2'
loop_
_atom_site_label
_atom_site_type_symbol
_atom_site_fract_x
_atom_site_fract_y
_atom_site_fract_z
_atom_site_U_iso_or_equiv
_atom_site_adp_type
_atom_site_occupancy
_atom_site_site_symmetry_order
_atom_site_calc_flag
_atom_site_refinement_flags_posn
O1 O 0.5632(4) 0.8202(3) 0.0965(3) 0.0284(8) Uani 1 1 d .
O2 O 0.8716(5) 1.1154(4) -0.0503(3) 0.0284(8) Uani 1 1 d .
O3 O 0.6571(5) 0.8850(4) -0.0622(3) 0.0305(9) Uani 1 1 d .
O4 O 0.9415(4) 1.1768(3) 0.1184(3) 0.0270(8) Uani 1 1 d .
O5 O 0.8307(6) 0.9114(4) 0.2637(3) 0.0379(10) Uani 1 1 d .
O6 O 0.6470(5) 1.0864(4) 0.2546(3) 0.0371(10) Uani 1 1 d .
C1 C 0.6906(6) 0.4393(5) 0.2225(4) 0.0250(10) Uani 1 1 d .
N2 N 0.8108(5) 0.5391(4) 0.2313(3) 0.0270(9) Uani 1 1 d .
H2 H 0.8462 0.5638 0.2973 0.032 Uiso 1 1 calc R
N3 N 0.6535(5) 0.8987(4) 0.0385(3) 0.0222(9) Uani 1 1 d .
N4 N 0.8578(5) 1.0992(4) 0.0512(3) 0.0221(9) Uani 1 1 d .
C2 C 0.7045(6) 0.4618(6) 0.0286(4) 0.0302(11) Uani 1 1 d .
H2A H 0.6678 0.4334 -0.0428 0.036 Uiso 1 1 calc R
C3 C 0.6352(6) 0.3996(5) 0.1191(4) 0.0271(11) Uani 1 1 d .
H3 H 0.5491 0.3293 0.1108 0.033 Uiso 1 1 calc R
C4 C 0.8799(7) 0.6032(5) 0.1448(4) 0.0286(11) Uani 1 1 d .
H4 H 0.9649 0.6744 0.1550 0.034 Uiso 1 1 calc R
C5 C 0.8275(7) 0.5656(6) 0.0409(4) 0.0332(12) Uani 1 1 d .
C6 C 0.7505(6) 1.0007(6) 0.0939(3) 0.0238(9) Uani 1 1 d .
N7 N 0.7420(6) 0.9988(4) 0.2126(3) 0.0247(8) Uani 1 1 d .
loop_
_atom_site_aniso_label
_atom_site_aniso_U_11
_atom_site_aniso_U_22
_atom_site_aniso_U_33
_atom_site_aniso_U_23
_atom_site_aniso_U_13
_atom_site_aniso_U_12
O1 0.042(2) 0.0192(16) 0.0247(16) 0.0009(12) 0.0093(15) -0.0028(14)
O2 0.049(2) 0.0238(17) 0.0129(14) 0.0021(12) 0.0049(14) -0.0015(15)
O3 0.055(2) 0.0263(18) 0.0100(13) -0.0022(12) -0.0010(14) -0.0041(16)
O4 0.042(2) 0.0188(17) 0.0202(15) -0.0029(12) 0.0010(15) -0.0020(14)
O5 0.068(3) 0.0271(18) 0.0191(16) 0.0059(14) -0.0033(18) 0.0093(17)
O6 0.058(3) 0.0312(19) 0.0219(17) -0.0006(14) 0.0128(18) 0.0068(16)
C1 0.044(3) 0.0167(19) 0.0147(19) 0.0028(15) 0.0028(18) 0.001(2)
N2 0.047(3) 0.0210(19) 0.0128(16) -0.0030(14) 0.0004(16) 0.0018(18)
N3 0.036(2) 0.0180(19) 0.0128(16) -0.0002(13) 0.0016(15) 0.0025(15)
N4 0.037(2) 0.0147(17) 0.0144(16) -0.0006(13) 0.0041(16) 0.0007(15)
C2 0.044(3) 0.031(3) 0.016(2) -0.0036(17) -0.0014(18) 0.013(2)
C3 0.034(3) 0.019(2) 0.028(2) -0.0044(17) -0.002(2) 0.0013(19)
C4 0.039(3) 0.018(2) 0.029(2) 0.0022(17) 0.008(2) 0.0041(19)
C5 0.053(3) 0.027(2) 0.020(2) 0.0089(18) 0.012(2) 0.013(2)
C6 0.041(2) 0.0214(19) 0.0092(16) 0.0000(16) 0.0025(19) -0.0037(18)
N7 0.048(2) 0.0152(16) 0.0109(16) -0.0002(14) 0.0040(17) -0.0014(16)
loop_
_atom_type_symbol
_atom_type_description
_atom_type_scat_dispersion_real
_atom_type_scat_dispersion_imag
_atom_type_scat_source
C C 0.0033 0.0016 'International Tables Vol C Tables 4.2.6.8 and 6.1.1.4'
H H 0.0000 0.0000 'International Tables Vol C Tables 4.2.6.8 and 6.1.1.4'
N N 0.0061 0.0033 'International Tables Vol C Tables 4.2.6.8 and 6.1.1.4'
O O 0.0106 0.0060 'International Tables Vol C Tables 4.2.6.8 and 6.1.1.4'
loop_
_geom_angle_atom_site_label_1
_geom_angle_atom_site_label_2
_geom_angle_atom_site_label_3
_geom_angle
N2 C1 C3 118.6(4)
C1 N2 H2 118.4
C1 N2 C4 123.2(4)
C4 N2 H2 118.4
O1 N3 C6 115.8(3)
O3 N3 O1 122.4(4)
O3 N3 C6 121.8(4)
O2 N4 O4 121.4(4)
O2 N4 C6 121.6(4)
O4 N4 C6 117.0(4)
C3 C2 H2A 120.0
C3 C2 C5 120.0(5)
C5 C2 H2A 120.0
C1 C3 H3 120.1
C2 C3 C1 119.8(5)
C2 C3 H3 120.1
N2 C4 H4 120.2
N2 C4 C5 119.5(5)
C5 C4 H4 120.2
C4 C5 C2 118.9(5)
N3 C6 N7 116.4(4)
N4 C6 N3 127.7(4)
N4 C6 N7 115.8(4)
O5 N7 C6 118.3(4)
O6 N7 O5 124.7(4)
O6 N7 C6 117.0(4)
loop_
_geom_bond_atom_site_label_1
_geom_bond_atom_site_label_2
_geom_bond_distance
O1 N3 1.247(5)
O2 N4 1.251(5)
O3 N3 1.234(5)
O4 N4 1.264(5)
O5 N7 1.224(6)
O6 N7 1.220(5)
C1 N2 1.332(6)
C1 C3 1.380(7)
N2 H2 0.8800
N2 C4 1.333(6)
N3 C6 1.371(6)
N4 C6 1.352(6)
C2 H2A 0.9500
C2 C3 1.366(7)
C2 C5 1.377(8)
C3 H3 0.9500
C4 H4 0.9500
C4 C5 1.373(8)
C6 N7 1.450(5)
loop_
_geom_torsion_atom_site_label_1
_geom_torsion_atom_site_label_2
_geom_torsion_atom_site_label_3
_geom_torsion_atom_site_label_4
_geom_torsion
O1 N3 C6 N4 -179.6(4)
O1 N3 C6 N7 3.2(7)
O2 N4 C6 N3 5.6(8)
O2 N4 C6 N7 -177.2(4)
O3 N3 C6 N4 1.0(9)
O3 N3 C6 N7 -176.2(4)
O4 N4 C6 N3 -175.9(4)
O4 N4 C6 N7 1.3(7)
C1 N2 C4 C5 -0.4(7)
N2 C1 C3 C2 0.5(7)
N2 C4 C5 C2 -0.2(7)
N3 C6 N7 O5 89.6(6)
N3 C6 N7 O6 -91.1(5)
N4 C6 N7 O5 -87.9(6)
N4 C6 N7 O6 91.4(6)
C3 C1 N2 C4 0.3(7)
C3 C2 C5 C4 0.9(7)
C5 C2 C3 C1 -1.0(7)
loop_
_refln_index_h
_refln_index_k
_refln_index_l
_refln_F_squared_meas
_refln_F_squared_sigma
0 0 -1 0.02 0.15
0 0 -1 -0.03 0.13
0 0 1 0 0.18
0 0 -2 41.67 1.03
0 0 -2 40.99 1.27
0 0 2 42.66 0.93
0 0 2 43.5 1.33
0 0 -3 0.69 0.54
0 0 -3 0.22 0.59
0 0 3 0.58 0.57
0 0 3 0.67 0.72
0 0 -4 358.46 3.68
0 0 -4 327.92 4.34
0 0 4 360.59 3.24
0 0 4 346.62 4.53
0 0 -5 0.04 0.59
0 0 -5 0.81 0.83
0 0 5 0.26 0.55
0 0 5 0.07 0.85
0 0 -6 1182.7 8.08
0 0 -6 1148.45 9.95
0 0 6 1203.62 7.05
0 0 6 1202.96 10.21
0 0 -7 -0.25 0.57
0 0 -7 -0.37 0.91
0 0 7 0.16 0.56
0 0 7 0.03 0.87
0 0 -8 10.04 1.35
0 0 -8 10.66 1.86
0 0 8 11.05 1.16
0 0 8 11.76 1.81
0 0 -9 0.03 0.71
0 0 -9 -0.04 1.03
0 0 -9 0.59 0.81
0 0 9 -0.23 0.87
0 0 -10 143.29 3.84
0 0 -10 142.22 5.01
0 0 10 146.73 5.02
0 0 -11 0.27 0.89
0 0 -11 -1.16 1.14
0 0 11 -0.38 1.06
0 0 -12 70.17 4.25
0 0 12 74.09 4.32
0 0 -13 -0.48 1.39
0 0 13 -0.4 1.44
0 0 -14 17.61 3.23
0 0 14 19.88 3.48
0 0 -15 0.78 1.9
0 0 15 -0.32 1.59
0 0 -16 6.72 2.45
0 0 16 7.94 2.57
0 -1 0 0.66 0.33
0 -1 0 1.06 0.32
0 1 0 1.02 0.26
0 1 0 1.29 0.47
0 -1 -1 317.91 2.68
0 -1 -1 307.79 2.25
0 -1 1 326.28 2.65
0 -1 1 320.78 2.46
0 1 -1 312.32 2.34
0 1 -1 314.14 2.68
0 1 1 312.23 2.52
0 1 1 320.31 2.56
0 -1 -2 5.51 0.76
0 -1 -2 6.75 0.81
0 -1 2 5.12 0.76
0 -1 2 5.38 0.95
0 1 -2 4.71 0.87
0 1 -2 6.4 1
0 1 2 3.76 0.88
0 1 2 5.27 0.93
0 -1 -3 108 2.06
0 -1 -3 105.45 2.27
0 -1 3 109.79 2.01
0 -1 3 107.93 2.35
0 1 -3 105.2 2.32
0 1 -3 108.32 2.05
0 1 3 106.82 1.86
0 1 3 112.3 2.52
0 -1 -4 8.57 1.01
0 -1 -4 7.97 1.2
0 -1 4 7.29 1.01
0 -1 4 8.69 1.41
0 1 -4 6.78 1.24
0 1 -4 8.05 1.12
0 1 4 7.56 0.98
0 1 4 8.68 1.38
0 -1 -5 257.44 3.73
0 -1 -5 253.32 4.36
0 -1 5 260.74 3.65
0 -1 5 264.1 4.48
0 1 -5 242.32 4.31
0 1 -5 268.17 3.55
0 1 5 262.76 3.22
0 1 5 257.83 4.5
0 -1 -6 20 1.46
0 -1 -6 17.4 1.74
0 -1 6 20.4 1.44
0 -1 6 18.43 1.8
0 1 -6 17.86 1.83
0 1 -6 20.2 1.57
0 1 6 18.93 1.24
0 1 6 19.87 1.88
0 -1 -7 115.51 3
0 -1 -7 116.07 3.65
0 -1 7 125.22 3.03
0 -1 7 113.94 3.68
0 1 -7 114.33 3.6
0 1 -7 125.15 2.83
0 1 7 118.74 2.54
0 1 7 122.97 3.85
0 -1 -8 13.93 1.51
0 -1 -8 14.3 1.81
0 -1 8 15.55 1.51
0 -1 8 13.82 1.9
0 1 -8 16.65 2.02
0 1 -8 13.84 1.42
0 1 8 15.28 1.43
0 1 8 16.38 2.03
0 -1 -9 106.96 3.29
0 -1 -9 104.26 4.1
0 -1 9 108.9 3.24
0 -1 9 99.19 3.94
0 1 -9 99.46 4.01
0 1 -9 106.52 2.94
0 1 9 107.05 2.72
0 1 9 99.78 4.04
0 -1 -10 5.75 1.46
0 -1 -10 7.68 1.94
0 -1 10 6.5 1.5
0 -1 10 5.99 1.63
0 1 -10 6.81 1.77
0 1 10 4.31 1.41
0 -1 -11 28.49 2.28
0 -1 -11 28.39 3.02
0 -1 11 29.93 2.26
0 -1 11 27.92 2.95
0 1 -11 23.62 2.86
0 1 11 26.32 2.82
0 -1 -12 0.56 1.53
0 -1 12 1.09 1.53
0 1 -12 1.56 1.6
0 1 12 3.17 1.69
0 -1 -13 23.32 3.25
0 -1 13 27.3 3.31
0 1 -13 24.4 3.22
0 1 13 22.79 3.18
0 -1 -14 7.76 2.3
0 -1 14 6.99 2.24
0 1 -14 8.88 2.57
0 1 14 7.76 2.36
0 -1 -15 24.83 3.7
0 -1 15 24.47 3.72
0 1 -15 22.98 3.67
0 1 15 24.48 3.77
0 -1 -16 -0.15 1.88
0 -1 16 -0.29 1.68
0 1 -16 0.72 2.02
0 1 16 0.84 1.85
0 -2 0 2264.43 18.62
0 -2 0 2156.24 17.26
0 2 0 2203.47 14.29
0 2 0 2271.31 19.31
0 -2 -1 7 1.06
0 -2 -1 7.95 0.69
0 -2 1 8.41 0.97
0 -2 1 7.97 0.9
0 2 -1 7.81 0.79
0 2 -1 9.11 1.39
0 2 1 5.49 1.2
0 2 1 8.39 0.95
0 -2 -2 145.14 2.67
0 -2 -2 149.59 2.31
0 -2 2 148.67 2.65
0 -2 2 149.64 2.5
0 2 -2 148.32 2.38
0 2 -2 150.06 2.85
0 2 2 144.51 2.59
0 2 2 149.61 2.61
0 -2 -3 0.23 0.64
0 -2 -3 0.86 0.58
0 -2 3 0.14 0.64
0 -2 3 0.32 0.71
0 2 -3 0.4 0.66
0 2 -3 0.83 0.8
0 2 3 0.82 0.75
0 2 3 0.2 0.7
0 -2 -4 821.74 6.82
0 -2 -4 816.43 6.93
0 -2 4 838.3 6.65
0 -2 4 832.89 7.14
0 2 -4 799.91 6.97
0 2 -4 837.89 6.67
0 2 4 822.05 6.08
0 2 4 862.83 7.55
0 -2 -5 14.16 1.38
0 -2 -5 13.16 1.48
0 -2 5 15.03 1.39
0 -2 5 14.36 1.68
0 2 -5 13.14 1.53
0 2 -5 14.07 1.52
0 2 5 13.97 1.25
0 2 5 14.88 1.68
0 -2 -6 85.69 2.63
0 -2 -6 83.29 2.96
0 -2 6 89.08 2.61
0 -2 6 85.44 3.06
0 2 -6 88.17 3.07
0 2 -6 88.04 2.62
0 2 6 84.06 2.29
0 2 6 87.5 3.18
0 -2 -7 -0.06 0.73
0 -2 -7 0.04 0.79
0 -2 7 -0.14 0.72
0 -2 7 1.2 0.99
0 2 -7 0.67 0.94
0 2 -7 -0.17 0.79
0 2 7 -0.19 0.68
0 2 7 0.59 0.98
0 -2 -8 0.27 0.83
0 -2 -8 0.16 1.06
0 -2 8 0.03 0.79
0 -2 8 0.67 0.96
0 2 -8 0.57 1.06
0 2 -8 1.4 0.95
0 2 8 0.63 0.74
0 2 8 -0.03 1.02
0 -2 -9 2.63 1.02
0 -2 -9 2.25 1.25
0 -2 9 3.06 1.08
0 -2 9 2.88 1.32
0 2 -9 1.78 1.26
0 2 -9 1.76 1.08
0 2 9 2.13 0.94
0 2 9 2.41 1.35
0 -2 -10 27.81 2.23
0 -2 -10 28.17 2.8
0 -2 10 27.89 2.29
0 -2 10 26.09 2.69
0 2 -10 25.78 2.55
0 2 -10 27.53 2.18
0 2 10 26.41 2.73
0 -2 -11 47.06 2.79
0 -2 -11 49.71 3.6
0 -2 11 47.89 2.84
0 -2 11 49.21 3.53
0 2 -11 43.07 3.37
0 2 11 44.56 3.49
0 -2 -12 9.01 2.57
0 -2 12 7.29 2.08
0 2 -12 7.39 2.21
0 2 12 5.34 1.81
0 -2 -13 11.13 2.85
0 -2 13 8.62 2.75
0 2 -13 11.37 2.78
0 2 13 9.44 2.98
0 -2 -14 0.27 1.71
0 -2 14 -0.36 1.57
0 2 -14 -0.06 1.73
0 2 14 0.55 1.72
0 -2 -15 2.33 2.03
0 -2 15 3.04 1.95
0 2 -15 3.3 2.01
0 2 15 2.81 2.17
0 -2 -16 21.91 3.82
0 -2 16 25.06 4.09
0 2 -16 21.18 3.74
0 2 16 20.45 3.98
0 -3 0 0.81 0.7
0 -3 0 0.32 0.5
0 3 0 -0.09 0.36
0 3 0 1 0.94
0 -3 -1 514.41 5.63
0 -3 -1 533.42 4.04
0 -3 -1 496.46 4.65
0 -3 1 501.85 5.51
0 -3 1 523.4 4.68
0 3 -1 518.87 4.08
0 3 -1 516.88 5.74
0 3 1 523.23 5.66
0 -3 -2 6.25 1.23
0 -3 -2 6.31 0.85
0 -3 2 6.03 1.12
0 -3 2 5.84 1.2
0 3 -2 4.74 0.91
0 3 -2 5.29 1.53
0 3 2 4.41 1.14
0 3 2 6.01 1.13
0 -3 -3 105.1 2.86
0 -3 -3 108.89 2.46
0 -3 3 115.48 2.94
0 -3 3 110.62 2.7
0 3 -3 108.54 2.54
0 3 -3 108.72 3.06
0 3 3 107.69 2.8
0 3 3 108.59 2.8
0 -3 -4 -0.15 0.75
0 -3 -4 0.05 0.65
0 -3 4 0.18 0.71
0 -3 4 0.12 0.76
0 3 -4 -0.19 0.74
0 3 -4 0.6 0.99
0 3 4 0.52 0.87
0 3 4 0.25 0.8
0 -3 -5 27.9 1.84
0 -3 -5 25.23 1.73
0 -3 5 28.33 1.86
0 -3 5 27.8 1.87
0 3 -5 27.75 1.86
0 3 -5 27.66 1.98
0 3 5 27.03 1.78
0 3 5 26.85 2.05
0 -3 -6 0.18 0.76
0 -3 -6 -0.02 0.78
0 -3 6 -0.11 0.69
0 -3 6 0.76 0.91
0 3 -6 0.05 0.85
0 3 -6 0.57 0.91
0 3 6 -0.18 0.78
0 3 6 0.97 0.98
0 -3 -7 12.81 1.56
0 -3 -7 11.24 1.75
0 -3 7 12.29 1.49
0 -3 7 12.04 1.77
0 3 -7 10.77 1.69
0 3 -7 13.22 1.71
0 3 7 13.1 1.47
0 3 7 13.91 2.08
0 -3 -8 71.12 3
0 -3 -8 66.28 3.22
0 -3 8 72.24 2.91
0 -3 8 70.37 3.31
0 3 -8 61.05 3.14
0 3 -8 69.49 2.9
0 3 8 71.52 2.59
0 3 8 70.11 3.43
0 -3 -9 4.76 1.58
0 -3 -9 3.18 1.48
0 -3 9 5.42 1.6
0 -3 9 3.45 1.44
0 3 -9 4.98 1.61
0 3 -9 4.97 1.45
0 3 9 4.22 1.36
0 3 9 4.64 1.51
0 -3 -10 1.55 1.13
0 -3 -10 1.39 1.45
0 -3 10 1.33 1.18
0 -3 10 1.2 1.43
0 3 -10 2.77 1.5
0 3 -10 1.34 1.31
0 3 10 1.45 1.42
0 -3 -11 33 2.65
0 -3 -11 32.2 3.21
0 -3 11 33.15 2.62
0 -3 11 35.44 3.38
0 3 -11 31.08 3.12
0 3 11 31.39 3.16
0 -3 -12 0.57 1.57
0 -3 12 0.56 1.51
0 3 -12 0.36 1.58
0 3 12 -0.24 1.37
0 -3 -13 9.01 2.75
0 -3 13 9.87 2.97
0 3 -13 8.5 2.75
0 3 13 10.52 3.12
0 -3 -14 -0.29 1.71
0 -3 14 -0.82 1.58
0 3 -14 -0.18 1.77
0 3 14 0.47 1.89
0 -3 -15 5.16 2.43
0 -3 15 8.17 2.56
0 3 -15 7.74 2.59
0 3 15 6.65 2.64
0 -3 -16 2.17 2.13
0 3 -16 1.26 2.1
0 -4 0 725.51 7.69
0 -4 0 709.83 6.17
0 4 0 718.46 5.15
0 4 0 721.83 7.75
0 -4 -1 0.97 0.87
0 -4 -1 0.76 0.49
0 -4 -1 1.32 0.64
0 -4 1 0.01 0.81
0 -4 1 0.63 0.67
0 4 -1 1.08 0.5
0 4 -1 1.02 1.28
0 4 1 -0.19 1.19
0 -4 -2 181.5 4.04
0 -4 -2 182.11 2.95
0 -4 2 182.69 4.06
0 -4 2 182.67 3.41
0 4 -2 185.48 3.06
0 4 -2 184.79 4.37
0 4 2 180.75 4.08
0 4 2 186.12 3.59
0 -4 -3 4.97 1.24
0 -4 -3 2.98 0.97
0 -4 3 3.88 1.16
0 -4 3 4.01 0.99
0 4 -3 3.24 1.06
0 4 -3 4.75 1.51
0 4 3 6.18 1.39
0 4 3 4.12 1.26
0 -4 -4 0.49 0.88
0 -4 -4 -0.29 0.63
0 -4 4 0.8 0.91
0 -4 4 -0.28 0.79
0 4 -4 0.69 0.76
0 4 -4 0.96 1.2
0 4 4 0.09 0.98
0 4 4 0.23 0.83
0 -4 -5 30.96 2.12
0 -4 -5 31.31 1.93
0 -4 5 30.8 2.1
0 -4 5 32.39 2.13
0 4 -5 30.41 1.96
0 4 -5 31.38 2.36
0 4 5 30.35 2.06
0 4 5 30.86 2.22
0 -4 -6 24.61 2.05
0 -4 -6 24.84 1.99
0 -4 6 27.39 2.08
0 -4 6 23.89 2.11
0 4 -6 24.06 1.98
0 4 -6 25.08 2.33
0 4 6 25.94 2.01
0 4 6 25.77 2.27
0 -4 -7 0.36 0.92
0 -4 -7 0.54 0.99
0 -4 7 -0.11 0.93
0 -4 7 0.7 1.06
0 4 -7 0.94 1.06
0 4 -7 0.76 1.23
0 4 7 0.39 0.93
0 4 7 -0.05 1.1
0 -4 -8 5.28 1.59
0 -4 -8 7.54 1.84
0 -4 8 8.95 1.86
0 -4 8 5.57 1.81
0 4 -8 5.56 1.76
0 4 -8 7.71 1.75
0 4 8 7.37 1.57
0 4 8 6.1 1.62
0 -4 -9 7.64 1.8
0 -4 -9 6.28 2.02
0 -4 9 7.35 1.92
0 -4 9 6.98 1.76
0 4 -9 5.64 1.66
0 4 -9 5.57 1.79
0 4 9 5.59 1.58
0 4 9 7.39 2.13
0 -4 -10 178.85 5.24
0 -4 -10 170.84 5.56
0 -4 10 183.78 5.12
0 -4 10 174.07 5.75
0 4 -10 163.25 5.51
0 4 -10 182.61 5.18
0 4 10 170.85 5.8
0 -4 -11 36.34 2.9
0 -4 -11 35.47 3.28
0 -4 11 40.03 3.1
0 -4 11 38.26 3.48
0 4 -11 38.39 3.38
0 4 11 37.99 3.47
0 -4 -12 13.66 2.52
0 -4 -12 14.09 2.79
0 -4 12 11.38 2.87
0 4 -12 12.56 2.77
0 4 12 14.78 2.92
0 -4 -13 1.88 1.82
0 -4 13 1.63 1.75
0 4 -13 1 1.87
0 4 13 1.97 1.87
0 -4 -14 4.41 2.17
0 -4 14 7.39 2.45
0 4 -14 4.41 2.14
0 4 14 6.76 2.35
0 -4 -15 1.41 2.04
0 -4 15 0.72 1.86
0 4 -15 0.62 2.08
0 4 15 0.55 1.95
0 -5 0 0.51 1.04
0 -5 0 0.06 0.57
0 5 0 -0.26 0.4
0 5 0 0.09 1.25
0 -5 -1 2.06 1.13
0 -5 -1 1.72 0.56
0 -5 -1 1.78 0.74
0 -5 1 1.5 1.11
0 -5 1 2.01 0.78
0 5 -1 1.09 0.54
0 5 -1 1.92 1.38
0 5 1 1.98 1.36
0 -5 -2 0.1 1.03
0 -5 -2 0.72 0.56
0 -5 2 0.94 1.01
0 -5 2 0.12 0.64
0 5 -2 0.38 0.5
0 5 -2 0.2 1.33
0 5 2 0.01 1.16
0 5 2 0.05 0.76
0 -5 -3 443.14 7.05
0 -5 -3 440.49 5.25
0 -5 3 446.86 6.98
0 -5 3 458.48 6.05
0 5 -3 440.59 5.41
0 5 -3 452.46 7.25
0 5 3 446.21 6.88
0 5 3 451.93 6.29
0 -5 -4 -0.73 0.97
0 -5 -4 0.54 0.7
0 -5 4 0.89 1.07
0 -5 4 -0.28 0.84
0 5 -4 0.35 0.77
0 5 -4 0.09 1.41
0 5 4 -0.92 1.04
0 5 4 0.3 0.87
0 -5 -5 36.43 2.4
0 -5 -5 39.21 2.22
0 -5 5 37.47 2.54
0 -5 5 40.15 2.39
0 5 -5 39.54 2.2
0 5 -5 36.85 2.95
0 5 5 38.26 2.58
0 5 5 43.88 2.59
0 -5 -6 6.46 1.77
0 -5 -6 4.77 1.41
0 -5 6 8.85 1.86
0 -5 6 6.91 1.55
0 5 -6 7.94 1.52
0 5 -6 5.66 1.8
0 5 6 7.39 1.72
0 5 6 6.99 1.85
0 -5 -7 6.76 1.87
0 -5 -7 9.44 1.88
0 -5 7 9.57 1.94
0 -5 7 10.19 2
0 5 -7 6.83 1.68
0 5 -7 7.12 1.89
0 5 7 7.32 1.89
0 5 7 7.44 1.88
0 -5 -8 -0.07 1.16
0 -5 -8 -0.04 1.21
0 -5 8 0.98 1.27
0 -5 8 -0.34 1.09
0 5 -8 -0.03 1.04
0 5 -8 0.27 1.5
0 5 8 0.3 1.15
0 5 8 -0.32 1.17
0 -5 -9 265.26 6.52
0 -5 -9 248.1 6.3
0 -5 9 265.95 6.33
0 -5 9 269.3 6.71
0 5 -9 252.55 6.48
0 5 -9 252.36 6.27
0 5 9 262.73 5.72
0 5 9 263.12 6.9
0 -5 -10 0.07 1.25
0 -5 -10 -0.16 1.36
0 -5 10 -0.36 1.35
0 -5 10 -0.05 1.32
0 5 -10 0.09 1.38
0 5 -10 -0.32 1.6
0 5 10 -0.64 1.29
0 -5 -11 12.81 2.35
0 -5 -11 12.67 2.6
0 -5 11 12.24 2.8
0 5 -11 13.9 2.68
0 5 11 13.06 2.84
0 -5 -12 3.05 1.6
0 -5 -12 2.34 1.86
0 -5 12 0.4 1.56
0 5 -12 2.02 1.78
0 5 12 1.06 1.69
0 -5 -13 8.66 2.88
0 -5 13 9.1 2.48
0 5 -13 7.6 2.38
0 5 13 8.65 2.47
0 -5 -14 5.94 2.37
0 -5 14 5.72 2.28
0 5 -14 9.63 2.97
0 5 14 3.84 2.24
0 -5 -15 5.32 2.52
0 -6 0 91.63 3.79
0 -6 0 92.41 2.94
0 6 0 92.39 2.33
0 6 0 97.25 3.99
0 -6 -1 0.57 1.2
0 -6 -1 0.55 0.56
0 -6 -1 1.06 0.76
0 -6 1 1.03 1.1
0 -6 1 1.05 0.81
0 6 -1 0.63 0.57
0 6 -1 0.53 1.47
0 6 1 1.44 1.44
0 -6 -2 -0.35 1.15
0 -6 -2 0 0.6
0 -6 2 0.47 1.16
0 -6 2 0.2 0.74
0 6 -2 0.67 0.59
0 6 -2 0.01 1.46
0 6 2 0.8 1.4
0 6 2 -0.12 0.79
0 -6 -3 3.77 1.53
0 -6 -3 4.68 1.12
0 -6 3 3.43 1.42
0 -6 3 5.21 1.17
0 6 -3 6.61 1.16
0 6 -3 6.46 1.9
0 6 3 5.1 1.77
0 6 3 5.99 1.48
0 -6 -4 162.24 4.98
0 -6 -4 168.42 3.79
0 -6 4 169.72 4.99
0 -6 4 167.38 4.24
0 6 -4 163.49 3.82
0 6 -4 166.08 5.3
0 6 4 165.69 4.95
0 6 4 165.61 4.45
0 -6 -5 1.66 1.41
0 -6 -5 1.9 1.02
0 -6 5 2.61 1.45
0 -6 5 2.91 1.21
0 6 -5 2.53 1.05
0 6 -5 0.62 1.65
0 6 5 1.58 1.58
0 6 5 0.59 1.04
0 -6 -6 4.16 1.58
0 -6 -6 4.39 1.27
0 -6 6 1.27 1.39
0 -6 6 3.25 1.3
0 6 -6 2.94 1.17
0 6 -6 3.64 1.96
0 6 6 3.55 1.81
0 6 6 4.1 1.37
0 -6 -7 0.6 1.37
0 -6 -7 1.78 1.23
0 -6 7 2.24 1.43
0 -6 7 1.76 1.27
0 6 -7 1.16 1.11
0 6 -7 1.7 1.92
0 6 7 2.03 1.6
0 6 7 1.43 1.33
0 -6 -8 1.18 1.43
0 -6 -8 1.61 1.36
0 -6 8 1.51 1.48
0 -6 8 0.56 1.21
0 6 -8 0.78 1.21
0 6 -8 1.98 1.9
0 6 8 1.76 1.47
0 6 8 1.17 1.31
0 -6 -9 8.23 2.25
0 -6 -9 8.47 2.39
0 -6 9 10 2.54
0 -6 9 10.63 2.39
0 6 -9 10.44 2.12
0 6 -9 9.08 2.93
0 6 9 7.61 2.18
0 6 9 9.22 2.52
0 -6 -10 166.88 5.79
0 -6 -10 159.18 5.61
0 -6 10 163.43 5.65
0 -6 10 170.53 5.92
0 6 -10 162.1 5.72
0 6 -10 157.2 5.81
0 6 10 162.99 6.04
0 -6 -11 2.8 1.71
0 -6 -11 2.76 1.75
0 -6 11 3.79 1.79
0 6 -11 7.46 2.31
0 6 11 3.13 1.85
0 -6 -12 2.88 1.79
0 -6 -12 4.71 2.08
0 -6 12 3.68 1.88
0 6 -12 4.52 1.94
0 6 12 4.36 2.1
0 -6 -13 0.25 1.77
0 -6 13 1.72 1.8
0 6 -13 0.5 1.67
0 6 13 0.04 1.73
0 -6 -14 3.64 2.22
0 -6 14 5.95 2.34
0 6 -14 5.35 2.38
0 6 14 5.62 2.39
0 -7 0 1.61 1.47
0 -7 0 -0.98 0.79
0 7 0 -0.26 1.6
0 -7 -1 37.93 2.9
0 -7 1 44.22 3.12
0 -7 1 41.27 2.37
0 7 -1 43.84 3.48
0 7 1 41.42 3.44
0 7 1 41.51 2.46
0 -7 -2 0.06 1.19
0 -7 2 0.56 1.42
0 -7 2 0.2 0.86
0 7 -2 0.52 1.76
0 7 2 -1.3 1.53
0 7 2 0.24 0.9
0 -7 -3 10.76 2.38
0 -7 3 10.55 2.43
0 -7 3 10.28 1.72
0 7 -3 9.48 1.36
0 7 -3 11.5 2.59
0 7 3 11.86 2.83
0 7 3 8.67 1.83
0 -7 -4 1.19 1.54
0 -7 4 2.51 1.56
0 -7 4 3.06 1.15
0 7 -4 2.74 1.01
0 7 -4 2.06 2
0 7 4 1.69 1.81
0 7 4 1.83 1.14
0 -7 -5 6.33 2
0 -7 5 6.67 1.92
0 -7 5 5.81 1.81
0 7 -5 6.88 1.53
0 7 -5 7.73 2.45
0 7 5 6.87 2.22
0 7 5 6.94 1.93
0 -7 -6 0.16 1.39
0 -7 6 0.52 1.51
0 -7 6 -0.63 1.06
0 7 -6 0.28 0.99
0 7 -6 -0.32 1.93
0 7 6 -0.49 1.82
0 7 6 -0.3 1.12
0 -7 -7 39.91 3.42
0 -7 7 40.09 3.43
0 -7 7 41.17 3.09
0 7 -7 39.23 2.75
0 7 -7 41.72 4.08
0 7 7 44.55 3.7
0 7 7 37.57 3.14
0 -7 -8 48.24 3.72
0 -7 8 47.31 3.79
0 -7 8 44.92 3.32
0 7 -8 45.47 3.09
0 7 -8 47.68 4.23
0 7 8 43.93 3.49
0 7 8 42.67 3.41
0 -7 -9 15.76 2.82
0 -7 9 18.24 3.11
0 -7 9 14.28 2.56
0 7 -9 14.92 2.47
0 7 -9 13.46 3.57
0 7 9 16.86 2.76
0 7 9 17.33 2.9
0 -7 -10 9.7 2.83
0 -7 10 8.03 2.28
0 -7 10 8.71 2.15
0 7 -10 11.03 2.3
0 7 -10 9.89 2.95
0 7 10 7.36 2.13
0 -7 -11 15.17 2.94
0 -7 11 13.23 2.84
0 7 -11 16.72 2.89
0 7 -11 17.59 3.83
0 7 11 19.26 3.26
0 -7 -12 2.68 1.93
0 -7 12 4.88 2
0 7 -12 5.82 2.09
0 7 12 6.04 2.23
0 -7 13 2.65 1.86
0 7 -13 1.03 1.87
0 7 13 0.74 1.93
0 -8 0 1.51 1.62
0 -8 0 -0.14 0.98
0 8 0 -1.43 1.69
0 -8 -1 1.07 1.41
0 -8 1 1.34 1.49
0 -8 1 2.51 1.19
0 8 -1 1.7 2.02
0 8 1 2.31 2.02
0 8 1 2.35 1.13
0 -8 -2 13.13 2.47
0 -8 2 14.98 2.87
0 -8 2 14.44 2.04
0 8 -2 19.02 3.47
0 8 2 17.25 3.36
0 8 2 16.26 2.13
0 -8 -3 5.79 2.07
0 -8 3 4.9 1.84
0 -8 3 5.58 1.76
0 8 -3 5.23 2.37
0 8 3 9.24 2.61
0 8 3 5.08 1.42
0 -8 -4 0.76 1.62
0 -8 4 -1.61 1.46
0 -8 4 0.14 1.01
0 8 -4 1.1 2.14
0 8 4 -0.09 1.88
0 8 4 0.71 1.06
0 -8 -5 0.46 1.66
0 -8 5 0.06 1.63
0 -8 5 0.83 1.14
0 8 -5 -0.99 2.02
0 8 5 2.14 2.2
0 8 5 0.28 1.2
0 -8 -6 2.36 1.92
0 -8 6 2.57 1.91
0 -8 6 0.79 1.24
0 8 -6 2.43 2.36
0 8 6 2.25 2.21
0 8 6 1.83 1.41
0 -8 -7 13.3 2.93
0 -8 7 11.07 2.54
0 -8 7 10.1 2.56
0 8 -7 8.32 2.86
0 8 7 11.31 2.76
0 8 7 9.23 2.43
0 -8 -8 26.31 3.36
0 -8 8 27.29 3.48
0 8 -8 25.43 4.21
0 8 8 34.1 3.62
0 8 8 29.16 3.22
0 -8 -9 2.34 1.89
0 -8 9 0.93 1.88
0 8 -9 -0.39 2.49
0 8 9 0.59 1.54
0 -8 -10 3.87 2.09
0 -8 10 6.05 2.36
0 8 -10 1.31 2.67
0 8 10 0.81 1.7
0 -8 -11 5.13 2.25
0 8 11 7.62 2.33
0 8 12 -2.02 1.57
0 -9 0 2.24 1.94
0 9 0 -0.37 2
0 -9 -1 30.69 3.54
0 -9 1 33.47 3.67
0 9 -1 31.86 4.1
0 9 1 30.72 4.14
0 -9 -2 2.58 1.92
0 -9 2 -0.12 1.76
0 9 -2 3.01 2.22
0 9 2 1.09 2.32
0 -9 -3 34.72 3.75
0 -9 3 40.31 3.67
0 9 -3 38.93 4.27
0 9 3 41.79 4.56
0 -9 -4 6.36 2.2
0 -9 4 7.12 2.19
0 9 -4 7.69 2.81
0 9 4 12.68 3.82
0 -9 -5 39.2 3.95
0 -9 5 36.18 3.89
0 9 -5 30.81 4.5
0 9 5 44.21 4.61
0 -9 -6 0.45 1.85
0 -9 6 0.2 1.83
0 9 -6 -1.65 2.11
0 9 6 2.35 2.49
0 -9 -7 74.29 5
0 -9 7 78.62 5.07
0 9 -7 80.69 5.87
0 9 7 84.66 5.48
0 -9 -8 10.65 2.81
0 -9 8 9.89 3.24
0 9 -8 13.05 3.59
0 9 8 10.28 2.8
0 -9 -9 10.86 3.23
0 -9 9 12.37 3.38
0 9 -9 11.87 3.61
0 -9 -10 3.33 2.22
0 -9 10 1.05 2.17
0 9 -10 6.99 3.22
0 -10 0 85.26 5.34
0 10 0 94.02 6.06
0 -10 -1 1.9 2.11
0 -10 1 2.37 2.13
0 10 -1 1.65 2.46
0 -10 -2 6.91 2.45
0 -10 2 6.8 2.53
0 10 -2 4.82 2.81
0 10 2 4.84 2.93
0 -10 -3 5.27 2.41
0 -10 3 5.43 2.44
0 10 -3 6.22 2.89
0 10 3 5.68 3.11
0 -10 -4 6.44 2.53
0 -10 4 3.07 2.15
0 10 -4 5.98 2.85
0 10 4 10.79 3.4
0 -10 -5 0.11 2.04
0 -10 5 -0.36 1.96
0 10 -5 3.18 2.53
0 10 5 0.23 2.61
0 -10 -6 6.87 2.66
0 -10 6 9.22 2.64
0 10 -6 9.85 3.21
0 10 6 16.6 4.39
0 -10 -7 6.7 2.58
0 -10 7 5.74 2.59
0 10 -7 5.64 3.01
0 10 7 11.55 3.3
0 -10 -8 0.99 2.12
0 -10 8 2.82 2.37
0 10 -8 1.93 2.56
0 10 8 3.88 2.45
0 -11 0 0.19 2.12
0 11 0 0.47 2.54
0 -11 -1 27.85 4.09
0 -11 1 25.17 3.73
0 11 -1 20.72 4.7
0 11 1 27.41 4.97
0 -11 -2 -0.4 2.08
0 -11 2 -0.36 1.91
0 11 -2 -0.14 2.65
0 11 2 2.85 2.9
0 -11 -3 -0.25 1.91
0 -11 3 1.2 2.19
0 11 -3 3.6 2.92
0 11 3 0.99 2.69
0 -11 -4 6.53 2.69
0 -11 4 5.72 2.54
0 11 -4 14.51 4.71
0 11 4 8.95 3.5
0 -11 -5 -0.5 2.1
0 -11 5 0.48 2.08
0 11 -5 0.17 2.68
0 11 5 1.15 2.86
0 11 -6 3.29 2.77
0 11 6 2.67 2.91
-1 0 16 2.49 2.13
1 0 -16 3.74 2.27
-1 0 15 1.35 1.97
1 0 -15 1.28 1.83
-1 0 14 10.02 3.21
1 0 -14 8.92 2.82
-1 0 13 -0.22 1.47
1 0 -13 -0.46 1.43
-1 0 12 31.79 3.2
1 0 -12 32.48 2.6
1 0 -12 32.05 3.06
-1 0 11 -0.66 1.14
1 0 -11 -0.55 0.93
1 0 -11 2.27 1.46
-1 0 10 152.76 5.08
1 0 -10 159.7 4.46
1 0 -10 152.21 5.15
-1 0 9 0.25 1.06
1 0 -9 0.27 0.86
1 0 -9 0.17 1.08
-1 0 8 7.88 1.74
1 0 -8 8.18 1.49
1 0 -8 7.43 1.73
1 0 -8 8.2 0.91
-1 0 7 0.25 0.95
1 0 -7 0.16 0.76
1 0 -7 -0.34 0.9
1 0 -7 -0.35 0.45
-1 0 6 48.81 2.43
1 0 -6 49.5 2.21
1 0 -6 44.44 2.33
1 0 -6 51.51 1.22
-1 0 5 -0.62 0.77
1 0 -5 0.09 0.74
1 0 -5 -0.17 0.75
-1 0 4 4.47 0.98
1 0 -4 4.24 1.16
1 0 -4 3.39 1.01
-1 0 3 0.78 0.7
1 0 -3 -0.6 0.68
1 0 -3 -0.58 0.54
-1 0 2 945.67 5.33
1 0 -2 1008.54 5.8
1 0 -2 540.1 4.21
-1 0 1 0.02 0.29
1 0 -1 0.01 0.46
1 0 -1 -0.08 0.38
1 0 -1 -0.46 0.38
1 0 0 11.01 0.58
1 0 0 5.04 0.45
1 0 0 11.28 0.72
1 0 0 3.92 0.43
-1 0 -1 0.03 0.32
1 0 1 0.19 0.57
1 0 1 -0.27 0.4
-1 0 -2 567.47 4.39
1 0 2 1038.4 5.73
1 0 2 911.24 5.49
-1 0 -3 0.01 0.32
-1 0 -3 0.16 0.53
1 0 3 0.14 0.71
1 0 3 -0.1 0.7
-1 0 -4 3.5 0.63
1 0 4 3.41 1.11
1 0 4 4.16 1.26
-1 0 -5 -0.43 0.42
-1 0 -5 -0.31 0.62
1 0 5 -0.31 0.82
1 0 5 -0.05 0.86
-1 0 -6 53.13 1.58
-1 0 -6 50.08 2.46
1 0 6 53.37 2.17
1 0 6 51.62 2.53
-1 0 -7 -0.15 0.5
-1 0 -7 0.35 0.95
1 0 7 0.03 0.69
1 0 7 -0.24 0.89
-1 0 -8 7.86 1.01
-1 0 -8 9.04 1.82
1 0 8 7.59 1.4
1 0 8 6.02 1.66
-1 0 -9 -0.09 0.6
-1 0 -9 -0.11 1.07
1 0 9 0.05 0.85
1 0 9 -1.14 0.95
-1 0 -10 144.28 5.09
1 0 10 157.32 4.04
1 0 10 145.47 5.05
-1 0 -11 1.15 1.54
1 0 11 -0.34 1.2
-1 0 -12 27.77 3.2
1 0 12 31.65 3.38
-1 0 -13 0 1.61
1 0 13 -0.48 1.43
-1 0 -14 7.52 2.46
1 0 14 7.83 2.29
-1 0 -15 1.42 1.82
1 0 15 2.37 1.92
-1 0 -16 3.56 2.32
1 0 16 3.93 2.11
-1 -1 16 2.02 2.08
-1 1 16 2.48 2.26
1 -1 -16 1.99 2.13
1 1 -16 3.34 2.26
-1 -1 15 -1.5 1.6
-1 1 15 2.52 2.15
1 -1 -15 1.46 1.86
1 1 -15 1.4 1.87
-1 -1 14 4.21 2.06
-1 1 14 0.65 1.85
1 -1 -14 1.54 1.74
1 1 -14 3.11 1.75
-1 -1 13 24.67 3.32
-1 1 13 25.56 3.3
1 -1 -13 26.04 2.93
1 -1 -13 20.7 3.06
1 1 -13 24.02 3.25
-1 -1 12 19.51 2.44
-1 -1 12 18.72 2.85
-1 1 12 17.87 2.79
1 -1 -12 15.27 2.23
1 -1 -12 15.62 2.78
1 1 -12 12.91 2.66
-1 -1 11 1 1.25
-1 -1 11 0.05 1.25
-1 1 11 1.25 1.4
1 -1 -11 1.19 1.18
1 -1 -11 0.95 1.4
1 1 -11 1.56 1.43
-1 -1 10 7.02 1.76
-1 -1 10 4.7 1.43
-1 1 10 6.34 1.75
1 -1 -10 5.35 1.68
1 -1 -10 4.05 1.4
1 1 -10 3.93 1.51
-1 -1 9 15.2 1.87
-1 -1 9 15.6 2.12
-1 1 9 14.57 2.18
1 -1 -9 11.02 1.69
1 -1 -9 13.87 2.1
1 1 -9 13.62 2.09
-1 -1 8 38.94 2.24
-1 -1 8 36.71 2.48
-1 1 8 37.41 1.23
-1 1 8 36.8 2.6
1 -1 -8 36.76 2.28
1 -1 -8 32.71 2.42
1 1 -8 33.79 2.09
1 1 -8 32.58 2.33
1 1 -8 36.89 1.53
-1 -1 7 95.59 3.39
-1 1 7 101.17 1.79
-1 1 7 101.61 3.63
1 -1 -7 98.95 3.09
1 -1 -7 92.98 3.33
1 1 -7 94.72 3
1 1 -7 98.87 3.49
1 1 -7 100.54 2.13
-1 -1 6 34.16 2.13
-1 1 6 32.2 1.03
-1 1 6 32.22 2.19
1 -1 -6 30.86 1.87
1 -1 -6 29.56 1.91
1 1 -6 32.1 1.88
1 1 -6 32.01 2.02
1 1 -6 33.15 1.36
-1 -1 5 8.66 1.51
-1 1 5 9.21 0.7
-1 1 5 8.22 1.48
1 -1 -5 9.6 1.35
1 -1 -5 8.46 1.39
1 1 -5 8.15 1.31
1 1 -5 8.5 1.45
1 1 -5 9.18 1
-1 -1 4 10.14 1.29
-1 -1 4 10.2 1.35
-1 1 4 9.55 0.71
-1 1 4 10.31 1.47
1 -1 -4 10.65 1.3
1 -1 -4 8.66 1.2
1 1 -4 8.63 1.29
1 1 -4 7.63 1.17
1 1 -4 10.13 1.01
-1 -1 3 109.72 2.47
-1 -1 3 111.41 2.27
-1 1 3 109.3 1.4
-1 1 3 103.14 2.46
1 -1 -3 108.24 2.47
1 -1 -3 103.29 2.22
1 1 -3 92.78 2.3
1 1 -3 108.38 1.78
-1 -1 2 41.67 1.56
-1 -1 2 41.89 1.28
-1 1 2 42.48 1.14
-1 1 2 36.52 1.5
1 -1 -2 41.23 1.56
1 -1 -2 35.42 1.22
1 1 -2 13.49 1.06
1 1 -2 41.75 1.3
-1 -1 1 7.31 0.81
-1 -1 1 15.87 0.62
-1 1 1 14.95 0.92
1 -1 -1 9.78 0.97
1 -1 -1 6.64 0.78
1 1 -1 6.68 0.86
1 1 -1 12.84 1.03
-1 -1 0 1.96 0.63
-1 1 0 3.43 0.82
1 -1 0 1.85 0.47
1 -1 0 2.12 0.51
1 1 0 1.51 0.44
1 1 0 3.97 0.75
-1 -1 -1 11.46 0.8
-1 -1 -1 8.62 0.77
-1 1 -1 11.7 0.64
-1 1 -1 14.23 1.32
1 -1 1 10.41 0.74
1 -1 1 10.44 0.98
1 1 1 14.6 1.21
1 1 1 14.58 0.8
-1 -1 -2 32.82 1.03
-1 -1 -2 33.78 1.39
-1 1 -2 43.55 1.36
1 -1 2 38.22 1.01
1 -1 2 47.87 1.76
1 -1 2 38.8 1.57
1 1 2 42.77 1.64
1 1 2 46.45 1.47
-1 -1 -3 95.95 1.66
-1 -1 -3 90.25 2.3
-1 1 -3 105.24 2.3
1 -1 3 83.98 1.43
1 -1 3 111.02 2.49
1 -1 3 107.17 2.56
1 1 3 112.46 2.43
1 1 3 111.68 2.48
-1 -1 -4 8.32 0.82
-1 -1 -4 8.49 1.24
-1 1 -4 10.88 1.26
1 -1 4 10.12 0.81
1 -1 4 10.32 1.32
1 -1 4 9.74 1.44
1 1 4 9.37 1.3
1 1 4 11.55 1.4
-1 -1 -5 7.3 0.91
-1 -1 -5 7.69 1.39
-1 1 -5 8.07 1.37
1 -1 5 8.06 0.89
1 -1 5 7.94 1.27
1 -1 5 9.72 1.52
1 1 5 7.84 1.26
1 1 5 8.28 1.49
-1 -1 -6 34.7 1.48
-1 -1 -6 33.99 2.17
-1 1 -6 33.16 2.14
1 -1 6 35.98 1.44
1 -1 6 35.43 1.86
1 -1 6 34.7 2.23
1 1 6 32.16 1.75
1 1 6 34.46 2.27
-1 -1 -7 94.56 2.4
-1 -1 -7 91.7 3.39
-1 1 -7 90.44 3.32
1 -1 7 92.43 2.28
1 -1 7 96.36 2.84
1 -1 7 96.1 3.48
1 1 7 95.54 2.78
1 1 7 97.8 3.47
-1 -1 -8 39.33 1.82
-1 -1 -8 35.86 2.58
-1 1 -8 36.47 2.6
-1 1 -8 40.19 2.24
1 -1 8 39.29 1.73
1 -1 8 41.33 2.78
1 1 8 35.43 2.01
1 1 8 37.09 2.55
-1 -1 -9 13.56 1.37
-1 -1 -9 13.92 2.21
-1 1 -9 13.04 2.17
-1 1 -9 14.12 1.88
1 -1 9 12.74 1.38
1 -1 9 10.93 2.05
1 1 9 14.64 1.81
1 1 9 14.74 2.13
-1 -1 -10 4.25 1.27
-1 -1 -10 4.19 1.68
-1 1 -10 3.73 1.48
-1 1 -10 7.89 1.76
1 -1 10 4.53 1.5
1 1 10 5.4 1.67
1 1 10 6.84 2.13
-1 -1 -11 1.77 1.54
-1 1 -11 0.31 1.32
1 -1 11 0.77 1.38
1 1 11 0.63 1.28
-1 -1 -12 15.76 2.64
-1 1 -12 16.89 2.86
1 -1 12 19.22 2.93
1 1 12 16.75 2.82
-1 -1 -13 21.85 3.25
-1 1 -13 24.15 3.29
1 -1 13 27.01 3.38
1 1 13 22.34 3.38
-1 -1 -14 2.69 2
-1 1 -14 -0.69 1.73
1 -1 14 3.46 1.95
1 1 14 1.68 1.83
-1 -1 -15 -1.15 1.78
-1 1 -15 1.91 2.06
1 -1 15 1.68 1.93
1 1 15 -0.15 1.71
-1 -1 -16 3.11 2.16
-1 1 -16 4.5 2.48
1 -1 16 4.7 2.2
1 1 16 2.52 2.03
-1 -2 16 0.36 1.84
-1 2 16 2.62 2.29
1 -2 -16 2.52 2.16
1 2 -16 2.11 2.14
-1 -2 15 -0.31 1.7
-1 2 15 2.72 2.23
1 -2 -15 0.64 1.86
1 2 -15 0.6 1.88
-1 -2 14 8.46 2.4
-1 2 14 6.33 2.27
1 -2 -14 11.04 2.87
1 2 -14 6.56 2.25
-1 -2 13 -0.35 1.49
-1 2 13 0.54 1.67
1 -2 -13 1.28 1.44
1 -2 -13 1.42 1.75
1 2 -13 1.69 1.73
-1 -2 12 5.25 1.63
-1 -2 12 2.98 1.71
-1 2 12 2.97 1.69
1 -2 -12 4.48 1.63
1 -2 -12 2.75 1.68
1 2 -12 3.48 1.72
-1 -2 11 64.67 3.39
-1 -2 11 60.29 3.88
-1 2 11 58.35 3.86
1 -2 -11 62.28 3.37
1 -2 -11 56.87 3.7
1 2 -11 54.39 3.71
-1 -2 10 39.53 2.7
-1 -2 10 39.8 3.04
-1 2 10 41.22 3.21
1 -2 -10 34.59 2.66
1 -2 -10 35.62 2.95
1 2 -10 37.02 3.05
-1 -2 9 5.56 1.56
-1 -2 9 6.78 1.88
-1 2 9 3.27 1.39
1 -2 -9 5.32 1.69
1 -2 -9 4.07 1.4
1 2 -9 3.13 1.36
1 2 -9 3.33 1.04
-1 -2 8 13.93 1.7
-1 -2 8 11.76 1.97
-1 2 8 13.49 1.08
-1 2 8 14.03 2.11
1 -2 -8 9.89 1.73
1 -2 -8 11.47 1.85
1 2 -8 11.16 1.91
1 2 -8 12.17 1.41
-1 -2 7 10.2 1.58
-1 -2 7 10.2 1.75
-1 2 7 9.08 0.99
-1 2 7 10.03 1.8
1 -2 -7 7.39 1.42
1 -2 -7 7.55 1.58
1 2 -7 7.43 1.46
1 2 -7 8.87 1.32
-1 -2 6 172.69 3.88
-1 -2 6 174.96 4.01
-1 2 6 171.41 2.64
-1 2 6 175.54 4.35
1 -2 -6 164.45 3.92
1 -2 -6 166.46 3.92
1 2 -6 161.03 4.09
1 2 -6 164.69 3.1
-1 -2 5 166.37 3.63
-1 -2 5 169.5 3.6
-1 2 5 165.84 2.56
-1 2 5 168.82 4
1 -2 -5 157.9 3.63
1 -2 -5 155.98 3.45
1 2 -5 157.48 3.76
1 2 -5 162 3.03
-1 -2 4 0.84 0.82
-1 -2 4 1.26 0.74
-1 2 4 0.78 0.65
-1 2 4 -0.19 0.73
1 -2 -4 0.6 0.74
1 -2 -4 1.66 0.73
1 2 -4 0.79 0.75
1 2 -4 1.17 0.85
-1 -2 3 343.06 4.55
-1 -2 3 357.89 3.88
-1 2 3 352.47 3.62
-1 2 3 325.18 4.51
1 -2 -3 324.78 4.48
1 -2 -3 333.98 3.73
1 2 -3 304.84 4.23
1 2 -3 344.13 3.99
-1 -2 2 149.44 2.93
-1 -2 2 150.96 2.13
-1 2 2 163.79 2.69
-1 2 2 134.73 2.81
1 -2 -2 138.95 2.87
1 -2 -2 152.67 2.09
1 2 -2 82.23 2.15
1 2 -2 151.25 2.75
-1 -2 1 49.94 1.75
-1 -2 1 103.46 1.39
-1 2 1 111.65 2.37
1 -2 -1 99.05 2.34
1 -2 -1 96.49 1.14
1 -2 -1 48.15 1.64
1 2 -1 47.26 1.56
1 2 -1 99.96 2.31
-1 -2 0 0.99 0.68
-1 2 0 1.8 0.88
1 -2 0 0.73 0.61
1 -2 0 0.04 0.53
1 2 0 0.45 0.48
1 2 0 0.04 0.73
-1 -2 -1 69.25 1.9
-1 2 -1 106.49 1.36
-1 2 -1 114.48 2.63
1 -2 1 100 2.13
1 -2 1 105.95 2.38
1 2 1 60.88 1.67
1 2 1 103.74 2.42
1 2 1 120.26 1.76
-1 -2 -2 105.04 2.22
-1 -2 -2 106.54 2.34
-1 2 -2 162.53 2.3
-1 2 -2 161.02 3.17
1 -2 2 155.5 2.56
1 -2 2 156.34 3
1 2 2 155.05 3.03
1 2 2 168.67 2.56
-1 -2 -3 291.94 3.64
-1 -2 -3 306.19 4.21
-1 2 -3 347.48 3.97
-1 2 -3 357.53 4.68
1 -2 3 351.31 3.76
1 -2 3 344.12 4.62
1 2 3 349.96 4.46
1 2 3 374.79 4.34
-1 -2 -4 1.15 0.68
-1 -2 -4 0.82 0.73
-1 2 -4 1.16 0.79
-1 2 -4 1.84 1
1 -2 4 0.38 0.63
1 -2 4 0.82 0.85
1 2 4 1.06 0.93
1 2 4 0.66 0.83
-1 -2 -5 170.87 3.11
-1 -2 -5 165.14 3.81
-1 2 -5 165.86 3.66
-1 2 -5 171.17 3.68
1 -2 5 179.44 3
1 -2 5 174.66 3.98
1 2 5 172.16 3.47
1 2 5 177.09 3.88
-1 -2 -6 158.62 3.18
-1 -2 -6 160.9 4.07
-1 2 -6 164.23 3.99
-1 2 -6 169.83 3.84
1 -2 6 163.13 3.03
1 -2 6 168.58 4.22
1 2 6 165.71 3.57
1 2 6 167.39 4.11
-1 -2 -7 9.55 1.28
-1 -2 -7 8.81 1.68
-1 2 -7 7.81 1.63
-1 2 -7 6.73 1.58
1 -2 7 8.77 1.11
1 -2 7 8.43 1.7
1 2 7 8.05 1.43
1 2 7 8.54 1.7
-1 -2 -8 14.15 1.44
-1 -2 -8 13.85 2.02
-1 2 -8 13.88 2.02
-1 2 -8 13.87 1.85
1 -2 8 12.03 1.29
1 -2 8 12.18 2
1 2 8 14.07 1.58
1 2 8 12.51 1.99
-1 -2 -9 4.33 1.31
-1 -2 -9 5.12 1.64
-1 2 -9 7.05 1.75
-1 2 -9 4.68 1.39
1 -2 9 5.33 1.24
1 -2 9 5.08 1.57
1 2 9 4.71 1.43
1 2 9 4.52 1.49
-1 -2 -10 41.01 2.33
-1 -2 -10 36.77 3.12
-1 2 -10 34.73 3.05
-1 2 -10 39.49 2.74
1 -2 10 36.25 3.08
1 2 10 40.95 2.47
1 2 10 42.06 3.21
-1 -2 -11 63.79 4.02
-1 2 -11 62.91 3.94
-1 2 -11 63.28 3.35
1 -2 11 62.52 3.95
1 2 11 60.76 3.92
-1 -2 -12 2.69 1.74
-1 2 -12 2.71 1.73
1 -2 12 4.38 1.83
1 2 12 2.82 1.68
-1 -2 -13 1.27 1.79
-1 2 -13 -0.06 1.62
1 -2 13 0.47 1.59
1 2 13 0.48 1.64
-1 -2 -14 7.22 2.48
-1 2 -14 10.1 2.99
1 -2 14 8.44 2.36
1 2 14 7.96 2.42
-1 -2 -15 1.98 2.11
-1 2 -15 1 1.92
1 -2 15 1.8 1.87
1 2 15 2.12 1.99
-1 -2 -16 0.86 2.13
-1 2 -16 3.64 2.37
1 -2 16 2.94 1.93
1 2 16 0.77 2
1 -3 -16 0.8 1.87
-1 -3 15 2.05 1.97
-1 3 15 4.51 2.45
1 -3 -15 1.99 2.07
1 3 -15 3.78 2.3
-1 -3 14 4.68 2.08
-1 3 14 3.49 2.17
1 -3 -14 4.18 2.08
1 3 -14 2.76 2.07
-1 -3 13 19.04 3.13
-1 3 13 15.73 3.12
1 -3 -13 18.61 2.6
1 -3 -13 16.45 3.02
1 3 -13 17.29 3.02
-1 -3 12 2.01 1.6
-1 -3 12 1.16 1.6
-1 3 12 1.43 1.69
1 -3 -12 1.15 1.42
1 -3 -12 3.52 1.75
1 3 -12 -0.11 1.48
-1 -3 11 15.24 2.39
-1 -3 11 13.82 2.71
-1 3 11 13.73 2.69
1 -3 -11 16.49 2.29
1 -3 -11 15.31 2.57
1 3 -11 15.38 2.68
-1 -3 10 7.94 2.01
-1 -3 10 4.98 1.63
-1 3 10 4.68 1.66
1 -3 -10 4.58 1.48
1 -3 -10 4.17 1.57
1 3 -10 2.74 1.58
-1 -3 9 50.88 2.97
-1 -3 9 47.76 3.13
-1 3 9 54.37 3.45
1 -3 -9 46.66 2.82
1 -3 -9 47.21 3.03
1 3 -9 45.82 3.09
1 3 -9 48.74 2.6
-1 -3 8 1.58 1.1
-1 -3 8 0.42 1.11
-1 3 8 1.11 0.75
-1 3 8 1.64 1.26
1 -3 -8 0.77 1.06
1 -3 -8 0.82 1.09
1 3 -8 -0.45 1.11
1 3 -8 0.92 1.08
-1 -3 7 7.63 1.55
-1 -3 7 8.45 1.62
-1 3 7 8.06 1.19
-1 3 7 7.87 1.83
1 -3 -7 7.5 1.6
1 -3 -7 9.14 1.6
1 3 -7 5.94 1.64
1 3 -7 5.91 1.55
-1 -3 6 13.26 1.63
-1 -3 6 10.01 1.62
-1 3 6 10.69 1.26
-1 3 6 11.87 1.77
1 -3 -6 10.53 1.57
1 -3 -6 10.49 1.46
1 3 -6 9.95 1.49
1 3 -6 11.36 1.62
-1 -3 5 6.84 1.43
-1 -3 5 8.25 1.39
-1 3 5 6.46 1.21
-1 3 5 7.47 1.51
1 -3 -5 7.17 1.42
1 -3 -5 6.22 1.26
1 3 -5 5.82 1.39
1 3 -5 7.3 1.55
-1 -3 4 12.9 1.54
-1 -3 4 14.13 1.4
-1 3 4 14.8 1.48
-1 3 4 16.69 1.72
1 -3 -4 14.62 1.63
1 -3 -4 15.28 1.31
1 3 -4 15.64 1.54
1 3 -4 14.17 1.72
-1 -3 3 22.2 1.75
-1 -3 3 22.9 1.36
-1 3 3 21.51 1.74
-1 3 3 21.61 1.64
1 -3 -3 22.27 1.73
1 -3 -3 22.02 1.23
1 3 -3 19.75 1.5
1 3 -3 22.9 1.85
-1 -3 2 131.27 3.14
-1 -3 2 135.1 2.26
-1 3 2 133.58 3.04
-1 3 2 130.72 3.08
1 -3 -2 125.61 3.14
1 -3 -2 127.25 1.94
1 -3 -2 95.4 2.61
1 3 -2 82.21 2.29
1 3 -2 131.27 3.17
-1 -3 1 0.55 0.79
-1 -3 1 0 0.41
-1 3 1 0.07 1.06
1 -3 -1 0.02 0.68
1 -3 -1 0.22 0.28
1 -3 -1 -0.02 0.54
1 3 -1 -0.73 0.48
1 3 -1 0.07 0.91
-1 -3 0 1.06 0.8
-1 -3 0 0.85 0.41
-1 3 0 2.92 1.15
1 -3 0 1.87 0.89
1 -3 0 2.47 0.8
1 3 0 1.4 0.58
1 3 0 2.5 1.02
-1 -3 -1 0.13 0.73
-1 3 -1 -0.2 0.35
-1 3 -1 1.22 1.11
1 -3 1 1.32 0.79
1 -3 1 0.47 0.71
1 3 1 0.67 0.54
1 3 1 -0.36 0.94
1 3 1 0.74 0.52
-1 -3 -2 78.51 2.39
-1 -3 -2 75.96 2.16
-1 3 -2 131.37 2.13
-1 3 -2 130.87 3.37
1 -3 2 133.5 2.94
1 -3 2 133.31 3.08
1 3 2 126.21 3.12
1 3 2 142.69 2.6
-1 -3 -3 20.15 1.48
-1 -3 -3 22.59 1.48
-1 3 -3 24.06 1.38
-1 3 -3 24.98 1.98
1 -3 3 23.38 1.54
1 -3 3 22.01 1.82
1 3 3 23.22 1.83
1 3 3 26.87 1.65
-1 -3 -4 13.85 1.38
-1 -3 -4 12.47 1.45
-1 3 -4 13.47 1.38
-1 3 -4 14.83 1.81
1 -3 4 15.11 1.45
1 -3 4 13.83 1.76
1 3 4 14.92 1.75
1 3 4 13.35 1.51
-1 -3 -5 7.74 1.3
-1 -3 -5 8.28 1.4
-1 3 -5 7.48 1.32
-1 3 -5 8.34 1.67
1 -3 5 6.58 1.23
1 -3 5 9.22 1.67
1 3 5 8.6 1.49
1 3 5 8.26 1.55
-1 -3 -6 13.01 1.39
-1 -3 -6 11.89 1.63
-1 3 -6 12.02 1.66
-1 3 -6 11.01 1.84
1 -3 6 14.1 1.44
1 -3 6 13.58 1.81
1 3 6 11.06 1.61
1 3 6 11.33 1.73
-1 -3 -7 6.08 1.25
-1 -3 -7 6.39 1.66
-1 3 -7 8.26 1.63
-1 3 -7 7.5 1.86
1 -3 7 5.5 1.27
1 -3 7 7.48 1.87
1 3 7 8.08 1.55
1 3 7 6.68 1.65
-1 -3 -8 0.35 0.81
-1 -3 -8 0.64 1.04
-1 3 -8 0.65 1.15
-1 3 -8 0.67 1.16
1 -3 8 1.12 0.86
1 -3 8 0.97 1.16
1 3 8 0.83 1
1 3 8 0.07 1.06
-1 -3 -9 51.49 2.57
-1 -3 -9 49.76 3.25
-1 3 -9 49.38 3.16
-1 3 -9 51.27 3.04
1 -3 9 51.9 2.5
1 -3 9 50.72 3.32
1 3 9 52.42 2.68
1 3 9 47.7 3.16
-1 -3 -10 5.45 1.51
-1 -3 -10 3.32 1.69
-1 3 -10 6.38 1.81
-1 3 -10 5.39 1.72
1 -3 10 4.96 1.69
1 3 10 5.87 1.58
1 3 10 3.96 1.58
-1 -3 -11 12.7 2.69
-1 3 -11 12.52 2.58
-1 3 -11 12.23 2.52
1 -3 11 15.56 2.7
1 3 11 12.57 2.73
-1 -3 -12 2.48 1.8
-1 3 -12 0.7 1.59
1 -3 12 1.21 1.66
1 3 12 1.52 1.65
-1 -3 -13 16.94 3.15
-1 3 -13 13.27 2.91
1 -3 13 18.81 3.21
1 3 13 13.73 3.24
-1 -3 -14 2.6 2.15
-1 3 -14 3.25 2.19
1 -3 14 4.79 2.14
1 3 14 3.13 2.1
-1 -3 -15 4.21 2.43
-1 3 -15 3.86 2.33
1 -3 15 4.15 2.22
1 3 15 2.94 2.22
-1 -4 15 3.42 2.19
-1 4 15 0.1 2.03
1 -4 -15 4.96 2.23
1 4 -15 3.13 2.25
-1 -4 14 11.15 3.3
-1 4 14 13.12 3.38
1 -4 -14 13.8 3.19
1 4 -14 14.89 3.27
-1 -4 13 10.89 3.01
-1 4 13 5.01 2.23
1 -4 -13 12.59 2.72
1 -4 -13 7.42 2.25
1 4 -13 11.76 2.98
-1 -4 12 8.08 2.45
-1 -4 12 9.14 2.74
-1 4 12 8.8 2.34
1 -4 -12 11.97 2.38
1 -4 -12 8.7 2.55
1 4 -12 9.36 2.68
-1 -4 11 -0.69 1.3
-1 -4 11 -0.86 1.38
-1 4 11 1.19 1.56
1 -4 -11 0.22 1.24
1 -4 -11 2.02 1.56
1 4 -11 0.02 1.48
-1 -4 10 6.19 2.04
-1 -4 10 6.15 1.77
-1 4 10 4.98 1.85
1 -4 -10 4.98 1.59
1 -4 -10 3.74 1.58
1 4 -10 4.85 1.79
-1 -4 9 6.76 1.92
-1 -4 9 6.47 1.69
-1 4 9 5.16 1.76
1 -4 -9 7.27 1.95
1 -4 -9 4.28 1.45
1 4 -9 4.8 1.53
1 4 -9 6.63 1.72
-1 -4 8 77.6 3.54
-1 -4 8 69.29 3.31
-1 4 8 70.52 2.62
-1 4 8 66.13 3.54
1 -4 -8 70.8 3.41
1 -4 -8 68.89 3.29
1 4 -8 66.05 3.4
1 4 -8 65.12 3.14
-1 -4 7 107.6 3.84
-1 -4 7 110.2 3.7
-1 4 7 107.9 3.14
-1 4 7 111.5 4.18
1 -4 -7 102.03 3.79
1 -4 -7 96.87 3.43
1 4 -7 101.93 3.79
1 4 -7 108.88 3.64
-1 -4 6 136.81 4.12
-1 -4 6 133.22 3.69
-1 4 6 128.1 3.39
-1 4 6 132.86 4.19
1 -4 -6 128.35 4.05
1 -4 -6 125.92 3.51
1 4 -6 121.53 3.82
1 4 -6 131.53 3.84
-1 -4 5 1.63 1.1
-1 -4 5 2.02 0.88
-1 4 5 2.29 1.03
-1 4 5 3.12 1.1
1 -4 -5 1.84 1.08
1 -4 -5 1.28 0.76
1 4 -5 1.51 0.94
1 4 -5 1.72 1.16
-1 -4 4 1.02 1.02
-1 -4 4 0.17 0.74
-1 4 4 1.02 1.12
-1 4 4 0.93 0.85
1 -4 -4 1.22 1.01
1 -4 -4 0.73 0.62
1 4 -4 0.53 0.8
1 4 -4 0.72 1.11
-1 -4 3 12.85 1.77
-1 -4 3 13.8 1.25
-1 4 3 12.2 1.8
-1 4 3 11.94 1.48
1 -4 -3 12.16 1.52
1 -4 -3 12.75 1.07
1 4 -3 11.31 1.31
1 4 -3 13.23 1.93
-1 -4 2 28.06 2.09
-1 -4 2 28.44 1.37
-1 4 2 27.74 2.3
1 -4 -2 30.23 1.96
1 -4 -2 29.15 1.14
1 -4 -2 26.65 1.71
1 4 -2 26.51 1.52
1 4 -2 26.92 2.22
-1 -4 1 50.05 2.45
-1 -4 1 48.18 1.54
-1 4 1 51.97 2.76
1 -4 -1 47.54 2.28
1 -4 -1 46.24 1.04
1 -4 -1 44.77 1.98
1 4 -1 45.8 1.82
1 4 -1 47.36 2.51
-1 -4 0 2.36 0.96
-1 -4 0 2.84 0.77
-1 4 0 4.28 1.58
1 -4 0 2.79 1.01
1 -4 0 2.04 0.44
1 -4 0 1.9 0.73
1 4 0 2.04 0.68
1 4 0 1.78 1.16
-1 -4 -1 44.7 2.28
-1 4 -1 36.89 1.02
-1 4 -1 53.16 2.91
1 -4 1 52.63 2.31
1 -4 1 47.91 2.12
1 4 1 38.96 1.68
1 4 1 47.57 2.54
1 4 1 53.21 1.75
-1 -4 -2 24.72 1.88
-1 4 -2 26.14 1.17
-1 4 -2 28.1 2.4
1 -4 2 25.63 1.87
1 -4 2 26.31 1.76
1 4 2 25.87 2.12
1 4 2 27.07 1.49
-1 -4 -3 10.85 1.5
-1 -4 -3 11.94 1.33
-1 4 -3 12.18 1.15
-1 4 -3 13 2.06
1 -4 3 12.39 1.65
1 -4 3 13.5 1.62
1 4 3 14.98 1.87
1 4 3 13.27 1.44
-1 -4 -4 0.77 0.87
-1 -4 -4 0.97 0.74
-1 4 -4 1.48 0.76
-1 4 -4 1.45 1.26
1 -4 4 0.22 0.84
1 -4 4 1.27 0.97
1 4 4 1.1 1.18
1 4 4 1.4 0.88
-1 -4 -5 2.68 1.03
-1 -4 -5 1.68 0.87
-1 4 -5 2.15 0.92
-1 4 -5 3.17 1.38
1 -4 5 3.54 1.08
1 -4 5 3.03 1.22
1 4 5 2.96 1.26
1 4 5 2.73 1.03
-1 -4 -6 122.04 3.66
-1 -4 -6 117.76 3.73
-1 4 -6 118.76 3.54
-1 4 -6 119.87 4.03
1 -4 6 123.24 3.51
1 -4 6 122.67 3.98
1 4 6 125.92 3.81
1 4 6 123.51 3.85
-1 -4 -7 114.37 3.65
-1 -4 -7 106.56 3.85
-1 4 -7 112.36 3.73
-1 4 -7 113.81 4.11
1 -4 7 117.24 3.54
1 -4 7 111.04 4.08
1 4 7 115.31 3.75
1 4 7 117.17 4.03
-1 -4 -8 66.38 3.02
-1 -4 -8 65.57 3.38
-1 4 -8 66.92 3.29
-1 4 -8 68.13 3.51
1 -4 8 68.02 2.94
1 -4 8 71.16 3.58
1 4 8 65.43 3.02
1 4 8 66.84 3.39
-1 -4 -9 6.17 1.71
-1 -4 -9 6.08 1.76
-1 4 -9 7.18 2.04
-1 4 -9 8.38 1.97
1 -4 9 7.11 1.75
1 -4 9 8.71 2.35
1 4 9 5.67 1.8
1 4 9 6.18 1.74
-1 -4 -10 6.16 1.88
-1 -4 -10 5.87 1.86
-1 4 -10 4.1 1.69
-1 4 -10 7.13 2.03
1 -4 10 7.63 2.33
1 4 10 5.54 1.67
1 4 10 5.46 1.77
-1 -4 -11 1.38 1.67
-1 4 -11 2.22 1.62
-1 4 -11 -0.34 1.67
1 -4 11 2.79 1.63
1 4 11 1.57 1.55
-1 -4 -12 6.73 2.16
-1 4 -12 10.22 2.84
1 -4 12 10.62 2.95
1 4 12 9.48 2.72
-1 -4 -13 10.01 2.62
-1 4 -13 9.19 2.97
1 -4 13 12.2 3.19
1 4 13 9.52 3.11
-1 -4 -14 9.69 2.64
-1 4 -14 12.76 3.11
1 -4 14 11.57 3.11
1 4 14 13.33 3.46
-1 -4 -15 3.79 2.36
-1 4 -15 4.21 2.27
1 -4 15 4.92 2.26
1 4 15 5.02 2.39
-1 -5 14 3.37 2.05
-1 5 14 0.64 2.1
1 -5 -14 1.95 1.91
1 5 -14 1.43 1.93
-1 -5 13 16.51 3.04
-1 5 13 13.27 3.52
1 -5 -13 17.88 3.07
1 -5 -13 18.76 3.11
1 5 -13 16.58 3.13
-1 -5 12 3.77 1.9
-1 -5 12 6.47 2.03
-1 5 12 6.66 2.26
1 -5 -12 4.77 1.85
1 -5 -12 5.13 1.92
1 5 -12 1.96 1.85
-1 -5 11 9.58 2.59
-1 -5 11 14.38 2.79
-1 5 11 11.4 2.97
1 -5 -11 11.46 2.43
1 -5 -11 9.68 2.57
1 5 -11 10.77 2.56
-1 -5 10 10.23 2.34
-1 -5 10 8.94 2.37
-1 5 10 8.83 2.56
1 -5 -10 8.19 2.28
1 -5 -10 8.99 2.35
1 5 -10 10.27 2.38
-1 -5 9 59.31 3.66
-1 -5 9 62.1 3.52
-1 5 9 59.78 3.91
1 -5 -9 59.11 3.6
1 -5 -9 56.22 3.26
1 5 -9 55.71 3.5
1 5 -9 59.13 3.52
-1 -5 8 6.56 2.07
-1 -5 8 7.63 2.05
-1 5 8 6.84 1.73
-1 5 8 7.97 1.88
1 -5 -8 6.85 1.98
1 -5 -8 6.7 1.87
1 5 -8 4.66 1.48
1 5 -8 6.34 1.85
-1 -5 7 12.4 2.15
-1 -5 7 14.15 1.93
-1 5 7 15.06 2.17
-1 5 7 13.06 2.27
1 -5 -7 12.41 2.16
1 -5 -7 15.09 1.89
1 5 -7 9.75 2.02
1 5 -7 14.91 2.41
-1 -5 6 6.64 1.96
-1 -5 6 4.96 1.64
-1 5 6 6.48 1.61
-1 5 6 4.74 1.44
1 -5 -6 6.49 1.66
1 -5 -6 3.75 1.08
1 5 -6 5.19 1.53
1 5 -6 6.83 1.74
-1 -5 5 55.03 3.05
-1 -5 5 58.22 2.54
-1 5 5 55.61 2.81
-1 5 5 55.82 2.91
1 -5 -5 58.66 3.11
1 -5 -5 52.49 2.27
1 5 -5 54.47 2.63
1 5 -5 57.09 3.16
-1 -5 4 2.59 1.21
-1 -5 4 0.2 0.83
-1 5 4 0.74 1.32
-1 5 4 1.19 0.94
1 -5 -4 0.45 1.1
1 -5 -4 0.58 0.64
1 5 -4 0.59 0.79
1 5 -4 -0.19 1.21
-1 -5 3 173.28 4.66
-1 -5 3 178.14 3.47
-1 5 3 170.7 4.42
-1 5 3 177.46 4.33
1 -5 -3 168.69 4.59
1 -5 -3 162.21 2.82
1 5 -3 165.37 3.76
1 5 -3 174.26 4.66
-1 -5 2 23.15 2.17
-1 -5 2 23.27 1.39
-1 5 2 23.77 2.45
1 -5 -2 24.53 2.18
1 -5 -2 19.45 1.04
1 -5 -2 20.65 1.72
1 5 -2 19.09 1.48
1 5 -2 22.23 2.34
-1 -5 1 21.3 2.09
-1 -5 1 17.49 1.25
-1 5 1 18.09 2.42
1 -5 -1 19.37 1.87
1 -5 -1 17.31 0.83
1 -5 -1 17.5 1.62
1 5 -1 19.62 1.44
1 5 -1 17.17 2.19
-1 -5 0 0.05 1
-1 -5 0 0.18 0.5
-1 5 0 0.75 1.55
1 -5 0 0.44 0.93
1 -5 0 0.1 0.29
1 -5 0 0.31 0.75
1 5 0 0.35 0.53
1 5 0 -0.22 1.11
-1 -5 -1 17.14 1.93
-1 -5 -1 19.69 1.45
-1 5 -1 10.78 0.78
-1 5 -1 19.73 2.6
1 -5 1 19.99 2.02
1 -5 1 18.83 1.7
1 5 1 16.26 2.04
1 5 1 20.34 1.43
-1 -5 -2 24.97 2.11
-1 -5 -2 26.3 1.61
-1 5 -2 25.5 1.16
-1 5 -2 24.78 2.77
1 -5 2 26.29 2.14
1 -5 2 24.91 1.87
1 5 2 26.24 2.38
1 5 2 27.27 1.67
-1 -5 -3 160.46 4.33
-1 -5 -3 162.65 3.69
-1 5 -3 171.08 3.06
-1 5 -3 182.27 5
1 -5 3 170.02 4.35
1 -5 3 169.95 4.15
1 5 3 167.99 4.53
1 5 3 174.37 3.73
-1 -5 -4 -0.05 0.99
-1 -5 -4 0.33 0.75
-1 5 -4 0.7 0.72
-1 5 -4 1.18 1.59
1 -5 4 -0.19 1.01
1 -5 4 1.05 1.01
1 5 4 1.15 1.29
1 5 4 0.81 0.86
-1 -5 -5 53.14 2.82
-1 -5 -5 51.78 2.6
-1 5 -5 54.49 2.38
-1 5 -5 56.78 3.47
1 -5 5 52.86 2.72
1 -5 5 53.25 2.89
1 5 5 58.87 3.14
1 5 5 56.24 2.71
-1 -5 -6 7.38 1.83
-1 -5 -6 6.14 1.58
-1 5 -6 5.44 1.49
-1 5 -6 7.26 2
1 -5 6 6.2 1.67
1 -5 6 5.35 1.52
1 5 6 5.77 1.88
1 5 6 4.56 1.3
-1 -5 -7 12.4 1.97
-1 -5 -7 17.54 2.13
-1 5 -7 12.24 1.89
-1 5 -7 11.87 2.76
1 -5 7 13.04 2.05
1 -5 7 12.76 2.13
1 5 7 14.07 2.25
1 5 7 13.93 2.17
-1 -5 -8 7.24 1.9
-1 -5 -8 7.34 1.99
-1 5 -8 7.24 1.95
-1 5 -8 7.61 2.22
1 -5 8 6.14 1.54
1 -5 8 8.02 2.26
1 5 8 7.42 1.83
1 5 8 6.09 2.01
-1 -5 -9 60.35 3.33
-1 -5 -9 58.87 3.59
-1 5 -9 54 3.29
-1 5 -9 62.07 3.98
1 -5 9 61.05 3.25
1 -5 9 58.14 3.78
1 5 9 57.05 3.21
1 5 9 62.51 3.69
-1 -5 -10 7.21 2.06
-1 -5 -10 8.84 2.46
-1 5 -10 10.56 2.48
-1 5 -10 8.54 2.48
1 -5 10 12.65 2.71
1 5 10 11.03 2.18
1 5 10 8.89 2.53
-1 -5 -11 12.53 2.71
-1 5 -11 10.96 2.71
-1 5 -11 10.31 3.18
1 -5 11 12.25 2.85
1 5 11 10.08 2.71
-1 -5 -12 4.91 2.1
-1 5 -12 5.17 2.02
1 -5 12 8.15 2.66
1 5 12 4.48 2.01
-1 -5 -13 16.84 3.3
-1 5 -13 22.15 3.24
1 -5 13 16.7 3.33
1 5 13 17.04 3.45
-1 -5 -14 3.17 2.24
-1 5 -14 4.53 2.27
1 -5 14 0.71 1.78
1 5 14 2.48 2.01
-1 -6 14 14.51 3.28
-1 6 14 11.58 3.01
1 6 -14 12.45 3.41
-1 -6 13 1.57 1.59
-1 6 13 -0.66 1.79
1 -6 -13 -0.13 1.69
1 -6 -13 0.5 1.76
1 6 -13 -1.56 1.7
-1 -6 12 0.81 1.95
-1 -6 12 1.23 1.49
-1 6 12 0.37 1.72
1 -6 -12 0.77 1.57
1 -6 -12 1.6 1.7
1 6 -12 1.88 1.71
-1 -6 11 0.15 1.56
-1 -6 11 0.7 1.39
-1 6 11 -0.74 1.6
1 -6 -11 -0.4 1.49
1 -6 -11 1.37 1.53
1 6 -11 1.06 1.59
-1 -6 10 -0.52 1.55
-1 -6 10 0.06 1.27
-1 6 10 -0.48 1.4
1 -6 -10 1.79 1.61
1 -6 -10 1.02 1.36
1 6 -10 0.58 1.47
1 6 -10 -0.33 1.66
-1 -6 9 -0.94 1.48
-1 -6 9 0.85 1.25
-1 6 9 1.08 1.5
1 -6 -9 2.68 1.74
1 -6 -9 1.25 1.28
1 6 -9 -1.13 1.2
1 6 -9 -0.04 1.61
-1 -6 8 86.99 4.29
-1 -6 8 89.21 3.85
-1 6 8 88.44 3.83
-1 6 8 87.53 4.31
1 -6 -8 83.37 4.26
1 -6 -8 83.93 3.63
1 6 -8 85.64 3.96
1 6 -8 89.12 4.38
-1 -6 7 1.68 1.51
-1 -6 7 3.69 1.34
-1 6 7 2.31 1.71
-1 6 7 1.81 1.33
1 -6 -7 1.49 1.33
1 -6 -7 2.02 1.16
1 6 -7 1.73 1.21
1 6 -7 1.25 1.71
-1 -6 6 0.17 1.31
-1 -6 6 0.13 1.03
-1 6 6 0.92 1.56
-1 6 6 1.32 1.18
1 -6 -6 -0.35 1.14
1 -6 -6 -0.1 0.9
1 6 -6 -0.35 0.91
1 6 -6 0.28 1.61
-1 -6 5 31.6 2.84
-1 -6 5 32.64 2.2
-1 6 5 30.98 2.77
-1 6 5 30.54 2.5
1 -6 -5 29.93 2.59
1 -6 -5 29.88 1.93
1 6 -5 28.88 2.25
1 6 -5 29.83 3
-1 -6 4 8.21 2.07
-1 -6 4 9.69 1.47
-1 6 4 8.47 2.3
-1 6 4 9.19 1.83
1 -6 -4 8.8 1.83
1 -6 -4 6.88 1.25
1 6 -4 7.91 1.47
1 6 -4 10.66 2.46
-1 -6 3 2.88 1.34
-1 -6 3 5.15 1.2
-1 6 3 5.28 1.8
-1 6 3 3.27 1.17
1 -6 -3 4.05 1.38
1 -6 -3 2.93 0.94
1 6 -3 3 0.92
1 6 -3 3.59 1.63
-1 -6 2 11.67 1.9
-1 -6 2 14.38 1.38
-1 6 2 12.57 2.58
-1 6 2 14.92 1.85
1 -6 -2 12.47 1.88
1 -6 -2 12.44 1.12
1 -6 -2 14.13 1.67
1 6 -2 14.24 1.5
1 6 -2 15.3 2.45
-1 -6 1 10.93 2.06
-1 -6 1 12.11 1.26
-1 6 1 11.96 2.46
1 -6 -1 15.72 2.17
1 -6 -1 12.1 1.63
1 6 -1 12.86 1.37
1 6 -1 13.87 2.31
-1 -6 0 0.98 1.22
-1 -6 0 -0.16 0.52
-1 6 0 -0.23 1.57
1 -6 0 -0.65 0.99
1 -6 0 -0.34 0.76
1 6 0 0.35 0.59
1 6 0 0.57 1.28
-1 -6 -1 14.11 2.13
-1 -6 -1 14 1.42
-1 6 -1 10.92 0.82
-1 6 -1 14.32 2.54
1 -6 1 12.99 1.88
1 -6 1 11.51 1.65
1 6 1 10.67 2.3
1 6 1 14.72 1.49
-1 -6 -2 11.89 2.03
-1 -6 -2 11.64 1.4
-1 6 -2 12.24 2.94
1 -6 2 14.09 2.14
1 -6 2 10.84 1.7
1 6 2 14.05 2.28
1 6 2 12.34 1.46
-1 -6 -3 3.87 1.46
-1 -6 -3 4.29 1.05
-1 6 -3 4.91 0.95
-1 6 -3 3.06 2.06
1 -6 3 5 1.55
1 -6 3 4.57 1.24
1 6 3 5.97 1.86
1 6 3 4.6 1.13
-1 -6 -4 6.64 1.93
-1 -6 -4 7.75 1.49
-1 6 -4 6.76 1.25
-1 6 -4 8.16 2.71
1 -6 4 7.41 1.93
1 -6 4 8.53 1.76
1 6 4 9.39 2.42
1 6 4 7.99 1.65
-1 -6 -5 31.99 2.69
-1 -6 -5 35.01 2.39
-1 6 -5 29.81 1.97
-1 6 -5 32.36 3.33
1 -6 5 34.1 2.83
1 -6 5 33.89 2.54
1 6 5 34.14 3.09
1 6 5 36.98 2.48
-1 -6 -6 0.55 1.26
-1 -6 -6 0.79 1.11
-1 6 -6 -0.02 0.88
-1 6 -6 0.9 1.93
1 -6 6 0.22 1.2
1 -6 6 -0.01 1.15
1 6 6 1.13 1.61
1 6 6 1.05 1.11
-1 -6 -7 1.92 1.4
-1 -6 -7 2.18 1.36
-1 6 -7 1.28 1.1
-1 6 -7 3.64 2.09
1 -6 7 2.04 1.41
1 -6 7 3.24 1.43
1 6 7 0.58 1.45
1 6 7 1.64 1.21
-1 -6 -8 83.52 4.01
-1 -6 -8 81.91 4.01
-1 6 -8 85.33 3.74
-1 6 -8 82.94 4.7
1 -6 8 80.46 3.83
1 -6 8 79.84 4.01
1 6 8 83.69 4.12
1 6 8 78.1 3.93
-1 -6 -9 -0.01 1.35
-1 -6 -9 1.95 1.59
-1 6 -9 1.48 1.3
-1 6 -9 -0.14 1.99
1 -6 9 1.44 1.4
1 -6 9 -0.15 1.43
1 6 9 1.68 1.6
1 6 9 1.31 1.35
-1 -6 -10 0.14 1.45
-1 -6 -10 0.75 1.63
-1 6 -10 -0.33 1.32
-1 6 -10 -1.8 1.82
1 -6 10 -0.42 1.42
1 6 10 0.09 1.36
1 6 10 0.37 1.35
-1 -6 -11 -0.08 1.56
-1 6 -11 -0.99 1.33
-1 6 -11 -2.04 1.95
1 -6 11 -1.25 1.32
1 6 11 -0.94 1.35
-1 -6 -12 2.57 1.95
-1 6 -12 1.24 1.73
1 -6 12 2.72 1.86
1 6 12 -0.68 1.58
-1 -6 -13 -0.13 1.92
-1 6 -13 0.68 1.61
1 -6 13 0.35 1.63
1 6 13 2.55 1.83
-1 -6 -14 13.78 3.64
-1 6 -14 15.02 3.37
1 -6 14 11.01 3.44
1 6 14 13.07 3.3
-1 7 13 1.27 1.96
1 -7 -13 2.85 1.99
1 7 -13 0.47 1.74
-1 7 12 0.39 1.79
1 -7 -12 3.49 2.08
1 7 -12 2.57 1.78
-1 -7 11 16.12 3.4
-1 7 11 19.6 3.52
1 -7 -11 16.88 3.15
1 7 -11 19.46 2.92
-1 -7 10 2.04 1.82
-1 7 10 -0.86 1.55
1 -7 -10 1.61 1.84
1 7 -10 -0.17 1.37
1 7 -10 1.31 1.93
-1 -7 9 11.24 2.89
-1 7 9 10 2.79
1 -7 -9 11.87 2.75
1 7 -9 7.76 2.36
1 7 -9 11 2.62
-1 -7 8 2.28 1.82
-1 -7 8 3.98 1.56
-1 7 8 3.8 1.89
-1 7 8 4.06 1.69
1 -7 -8 4.28 1.94
1 7 -8 3.99 1.61
1 7 -8 5.61 2.16
-1 -7 7 -0.23 1.57
-1 -7 7 1.75 1.19
-1 7 7 0.61 1.86
-1 7 7 0.21 1.32
1 -7 -7 1.22 1.49
1 7 -7 0 1.14
1 7 -7 1.15 1.82
-1 -7 6 60.06 3.95
-1 -7 6 57.02 2.99
-1 7 6 57.47 3.74
-1 7 6 54.27 3.39
1 -7 -6 54.51 3.8
1 7 -6 56.61 3.14
1 7 -6 52.51 3.92
-1 -7 5 2.39 1.76
-1 -7 5 2.26 1.08
-1 7 5 5.28 2.21
-1 7 5 1.91 1.26
1 -7 -5 2.23 1.69
1 7 -5 2.98 1.18
1 7 -5 2.7 1.94
-1 -7 4 7 2.17
-1 -7 4 6.96 1.47
-1 7 4 8.24 2.74
-1 7 4 6.93 1.9
1 -7 -4 6.36 1.95
1 7 -4 9.98 1.7
1 7 -4 7.12 2.1
-1 -7 3 -0.21 1.39
-1 -7 3 0.33 0.79
-1 7 3 -0.49 1.8
-1 7 3 0.58 1.01
1 -7 -3 2.18 1.54
1 7 -3 0.53 0.87
1 7 -3 -0.19 1.53
-1 -7 2 71.71 3.92
-1 -7 2 68.34 2.6
-1 7 2 70.66 4.15
-1 7 2 71.65 3.35
1 -7 -2 69.19 3.8
1 7 -2 70.63 2.8
1 7 -2 65.72 3.94
-1 -7 1 8.94 2.34
-1 -7 1 8.27 1.36
-1 7 1 7.27 2.29
1 -7 -1 8.17 1.98
1 -7 -1 8.03 1.73
1 7 -1 6.57 1.34
1 7 -1 7.64 2.38
-1 -7 0 1.24 1.31
-1 7 0 -1.16 1.79
1 -7 0 1.2 1.45
1 -7 0 0.08 0.91
1 7 0 0.07 0.68
1 7 0 -1.07 1.44
-1 -7 -1 8.81 2.07
-1 -7 -1 7.01 1.38
-1 7 -1 9.6 2.83
1 -7 1 8.93 2.29
1 -7 1 6.8 1.73
1 7 1 8.68 2.19
1 7 1 10.17 1.54
-1 -7 -2 67.8 3.79
-1 -7 -2 65.12 2.68
-1 7 -2 63.6 4.1
1 -7 2 63.16 3.65
1 -7 2 67.19 3.16
1 7 2 66.34 4.01
1 7 2 72.3 2.88
-1 -7 -3 1.74 1.51
-1 -7 -3 0.37 0.92
-1 7 -3 0.96 1.94
1 -7 3 1.84 1.58
1 -7 3 0.94 1.09
1 7 3 0.42 1.77
1 7 3 0.48 0.94
-1 -7 -4 5.6 1.85
-1 -7 -4 7.55 1.71
-1 7 -4 8.04 2.57
1 -7 4 7.31 2.24
1 -7 4 6.54 1.9
1 7 4 10.51 2.47
1 7 4 7 1.74
-1 -7 -5 2.63 1.61
-1 -7 -5 3.71 1.31
-1 7 -5 5.32 2.59
1 -7 5 3.33 1.58
1 -7 5 2.76 1.4
1 7 5 3.26 2.11
1 7 5 1.28 1.12
-1 -7 -6 60.3 3.9
-1 -7 -6 57.56 3.2
-1 7 -6 56.7 4.6
1 -7 6 60.88 3.7
1 -7 6 62.11 3.55
1 7 6 61.6 4.08
1 7 6 60.45 3.37
-1 -7 -7 1.49 1.59
-1 -7 -7 -0.88 1.25
-1 7 -7 0.66 2.35
1 -7 7 -0.7 1.36
1 -7 7 -0.76 1.2
1 7 7 1.14 1.7
1 7 7 -0.06 1.17
-1 -7 -8 5.05 1.92
-1 -7 -8 3.43 1.63
-1 7 -8 2.99 2.61
1 -7 8 3.93 1.77
1 -7 8 2.93 1.59
1 7 8 4.92 2.02
1 7 8 4.55 1.56
-1 -7 -9 8.85 2.24
-1 -7 -9 10.44 2.63
-1 7 -9 14.61 3.28
1 -7 9 12.2 2.76
1 -7 9 13.23 2.73
1 7 9 13.79 2.93
1 7 9 9.65 2.45
-1 -7 -10 1 1.59
-1 -7 -10 -0.03 1.65
-1 7 -10 -0.91 2.38
1 -7 10 0.59 1.49
1 7 10 -0.76 1.32
-1 -7 -11 15.16 3.19
-1 7 -11 12.68 4.1
1 -7 11 22.61 3.39
1 7 11 17.37 3.17
-1 -7 -12 0.88 1.92
1 -7 12 1.38 1.85
1 7 12 1.61 1.88
-1 -7 -13 2.23 2.21
1 -7 13 0.52 1.78
1 7 13 2.55 1.94
-1 8 12 4.8 2.29
-1 -8 11 -0.59 2.06
-1 8 11 -0.11 1.85
1 -8 -11 1.36 2.04
-1 -8 10 -3.11 1.76
-1 8 10 -0.81 1.66
1 -8 -10 -2.09 1.69
1 8 -10 1.72 2.06
-1 -8 9 4.94 2.33
-1 8 9 3.19 1.86
1 -8 -9 5.28 2.23
1 8 -9 5.82 2.3
-1 -8 8 1.58 1.99
-1 8 8 6.98 2.43
-1 8 8 3.21 1.68
1 -8 -8 4.63 2.1
1 8 -8 4.9 2.3
-1 -8 7 11.78 3.08
-1 8 7 17.7 3.66
-1 8 7 15.22 2.71
1 -8 -7 14.84 3.02
1 8 -7 13.3 3.22
-1 -8 6 5.22 2.11
-1 8 6 3.84 2.4
-1 8 6 5.8 1.69
1 -8 -6 6.7 2.19
1 8 -6 6.1 2.27
-1 -8 5 4.3 2.01
-1 8 5 9.49 2.79
-1 8 5 4.1 1.49
1 -8 -5 8.86 2.72
1 8 -5 6.08 2.23
-1 -8 4 13.79 2.97
-1 8 4 13.08 3.42
-1 8 4 13.61 2.29
1 -8 -4 14.57 2.86
1 8 -4 18.22 3.35
-1 -8 3 9.69 2.48
-1 8 3 14.59 3.4
-1 8 3 7.74 2.03
1 -8 -3 10.64 2.37
1 8 -3 11.74 2.94
-1 -8 2 1.67 1.74
-1 8 2 -0.44 2.12
-1 8 2 1.04 1.12
1 -8 -2 0.58 1.45
1 8 -2 1.02 1.84
-1 -8 1 4.5 1.81
-1 8 1 6.31 2.49
1 -8 -1 4.95 1.95
1 -8 -1 7.23 2.02
1 8 -1 6.49 2.15
-1 -8 0 -0.76 1.55
-1 8 0 -0.14 2.16
1 -8 0 2.4 1.57
1 -8 0 1.73 1.18
1 8 0 0.47 1.75
-1 -8 -1 7.11 2.18
-1 8 -1 6.28 2.58
1 -8 1 7.34 2.24
1 -8 1 8.4 1.92
1 8 1 8.61 2.75
-1 -8 -2 0.13 1.56
-1 8 -2 0.08 2.12
1 -8 2 0.89 1.66
1 -8 2 0.8 1.19
1 8 2 1.49 1.92
-1 -8 -3 9.74 2.61
-1 8 -3 9.78 2.78
1 -8 3 15.29 2.78
1 -8 3 10.44 2.18
1 8 3 12.74 2.88
-1 -8 -4 12.16 2.72
-1 8 -4 13.3 3.73
1 -8 4 12.44 2.72
1 -8 4 12.01 2.34
1 8 4 17.55 3.47
-1 -8 -5 7.81 2.26
-1 8 -5 6.85 2.88
1 -8 5 8.29 2.59
1 -8 5 9.54 2.28
1 8 5 10.6 2.93
-1 -8 -6 4.95 2
-1 8 -6 10.26 3.16
1 -8 6 6.69 2.12
1 -8 6 6.93 2.21
1 8 6 7.25 2.61
-1 -8 -7 10.87 2.74
-1 8 -7 12.87 4.2
1 -8 7 12.65 2.8
1 -8 7 14.52 2.58
1 8 7 17.04 3.36
1 8 7 14.19 2.54
-1 -8 -8 4.95 2.05
-1 8 -8 5.9 3.15
1 -8 8 5.39 2.04
1 -8 8 4.75 1.83
1 8 8 4.29 2.22
1 8 8 4.19 1.68
-1 -8 -9 5.95 2.19
-1 8 -9 4.26 3.05
1 -8 9 3.15 1.98
1 -8 9 3.88 1.88
1 8 9 6.08 2.43
1 8 9 4.06 1.74
-1 -8 -10 -1.1 1.67
-1 8 -10 -1.25 2.86
1 -8 10 -0.65 1.52
1 8 10 0.95 1.54
-1 8 -11 0.23 3.11
1 -8 11 0.51 1.73
1 8 11 0.17 1.69
-1 -9 10 1.89 2.42
-1 9 10 1.42 1.94
1 -9 -10 2.46 2.27
1 9 -10 -0.42 2.13
-1 -9 9 -0.84 2.03
-1 9 9 2.64 1.9
1 -9 -9 2.23 2.14
1 9 -9 2.73 2.29
-1 -9 8 0.85 2.2
-1 9 8 2.6 1.71
1 -9 -8 0.38 1.91
1 9 -8 2.78 2.34
-1 -9 7 2.65 2.23
-1 9 7 5.08 2.66
-1 9 7 4.6 1.82
1 -9 -7 3.54 2.03
1 9 -7 5.57 2.53
-1 -9 6 4.88 2.32
-1 9 6 12.76 4.11
-1 9 6 7.58 2.43
1 -9 -6 4.72 2.19
1 9 -6 5.88 2.54
-1 -9 5 35.39 4.02
-1 9 5 32.36 4.34
-1 9 5 31.26 3.08
1 -9 -5 32.13 3.76
1 9 -5 37.06 4.27
-1 -9 4 1.88 1.87
-1 9 4 4.25 2.7
-1 9 4 2.29 1.4
1 -9 -4 3.48 2.05
1 9 -4 5.05 2.46
-1 -9 3 22.4 3.47
-1 9 3 30.24 4.37
-1 9 3 19.27 2.52
1 -9 -3 19.36 3.24
1 9 -3 22.3 3.75
-1 -9 2 12.61 3.11
-1 9 2 18.83 3.87
-1 9 2 14.8 2.33
1 -9 -2 15.56 3.09
1 9 -2 12 3.29
-1 -9 1 9.69 2.7
-1 9 1 12.42 3.17
-1 9 1 12.5 2.17
1 -9 -1 8.83 2.87
1 9 -1 14.76 3.29
-1 -9 0 1.48 1.93
-1 9 0 -2.54 2.15
1 -9 0 -0.02 1.69
1 -9 0 -0.1 1.26
1 9 0 -0.09 2.01
-1 -9 -1 12.59 3.02
-1 9 -1 15.38 3.39
1 -9 1 12.82 3
1 -9 1 12.91 2.4
1 9 1 13.32 3.31
-1 -9 -2 16.88 3.2
-1 9 -2 14.39 4.39
1 -9 2 14.91 3.1
1 -9 2 15.42 2.37
1 9 2 15.11 3.69
-1 -9 -3 20.93 3.34
-1 9 -3 16.43 4.19
1 -9 3 23.77 3.36
1 -9 3 20.88 2.76
1 9 3 22.28 4.06
-1 -9 -4 2.73 1.97
-1 9 -4 3.14 2.85
1 -9 4 4.4 2
1 -9 4 3.3 1.58
1 9 4 4.47 2.61
-1 -9 -5 31.24 3.63
-1 9 -5 31.94 5.03
1 -9 5 31.21 3.67
1 -9 5 35.67 3.22
1 9 5 40.45 4.58
-1 -9 -6 7.04 2.43
-1 9 -6 7.65 3.44
1 -9 6 9.01 2.56
1 9 6 9.52 2.93
-1 -9 -7 4.97 2.2
-1 9 -7 2.77 3.27
1 -9 7 2.06 1.94
1 9 7 6.47 2.56
-1 -9 -8 3.67 2.06
-1 9 -8 3.72 3.4
1 -9 8 0.84 1.94
1 9 8 3.17 2.34
-1 -9 -9 1.31 2.01
-1 9 -9 -2.76 3.07
1 -9 9 -0.58 1.89
1 9 9 2.09 2.16
-1 -9 -10 -0.46 1.84
-1 9 -10 1.25 3.48
-1 -10 8 0.35 2.29
1 -10 -8 2.35 2.11
1 10 -8 3.12 2.47
-1 -10 7 -0.05 2.23
-1 10 7 3.5 2.78
1 -10 -7 0.72 2.11
1 10 -7 0.09 2.29
-1 -10 6 2.56 2.32
-1 10 6 17.92 4.34
1 -10 -6 5.94 2.6
1 10 -6 7.41 2.84
-1 -10 5 -1.9 1.98
-1 10 5 3.22 2.78
1 -10 -5 -1.5 1.87
1 10 -5 -0.26 2.13
-1 -10 4 -1.16 1.73
-1 10 4 3.35 3.1
1 -10 -4 0.94 1.8
1 10 -4 5.03 2.58
-1 -10 3 24.55 3.82
-1 10 3 32.3 4.94
1 -10 -3 29.61 3.66
1 10 -3 27.25 4.4
-1 -10 2 9.46 2.96
-1 10 2 17.34 4.39
1 -10 -2 10.3 3.2
1 10 -2 12.51 3.85
-1 -10 1 3.47 2.36
-1 10 1 4.88 2.96
1 -10 -1 4.01 2.28
1 10 -1 2.65 2.35
-1 -10 0 -0.84 1.91
-1 10 0 1.4 2.58
1 -10 0 0.78 1.96
1 10 0 3.37 2.4
-1 -10 -1 3.89 2.24
-1 10 -1 4.47 2.92
1 -10 1 1.51 1.8
1 10 1 5.06 2.67
-1 -10 -2 8.07 2.62
-1 10 -2 11.85 3.5
1 -10 2 15.68 3.41
1 10 2 14.4 4.11
-1 -10 -3 19.59 3.58
-1 10 -3 28.22 4.93
1 -10 3 23.95 3.7
1 10 3 34.63 4.72
-1 -10 -4 0.57 1.91
-1 10 -4 0.74 2.94
1 -10 4 1.39 2.01
1 10 4 2.45 2.68
-1 -10 -5 0.55 1.85
-1 10 -5 2.31 3.19
1 -10 5 0.53 1.84
1 10 5 4.09 2.76
-1 -10 -6 4.54 2.39
-1 10 -6 6.29 3.59
1 -10 6 5.03 2.31
1 10 6 6.58 2.84
-1 -10 -7 1.41 2.1
-1 10 -7 -0.51 3.26
1 -10 7 1.63 2.13
1 10 7 4.66 2.5
-1 -10 -8 0.39 2.01
-1 10 -8 -1.63 3.23
1 -10 8 0.99 2.15
1 10 8 0.76 2.34
-1 -11 5 40.42 4.74
-1 11 5 41.5 5.35
1 -11 -5 39.37 4.68
1 11 -5 39.75 5.04
-1 -11 4 -1.1 2.26
-1 11 4 2.49 3.02
1 -11 -4 -0.61 2.15
1 11 -4 1.36 2.49
-1 -11 3 0.12 2.12
-1 11 3 6.27 3.39
1 -11 -3 0.23 1.96
1 11 -3 -0.36 2.29
-1 -11 2 11.9 3.59
-1 11 2 18.43 5.07
1 -11 -2 13.09 3.61
1 11 -2 8.46 3.01
-1 -11 1 22.7 4.03
-1 11 1 36.03 5.39
1 -11 -1 29.88 4.3
1 11 -1 38.61 5.07
-1 -11 0 0.01 2.07
-1 11 0 4.54 3.26
1 -11 0 0.55 2.13
1 11 0 3.5 2.74
-1 -11 -1 32.27 4.37
-1 11 -1 37.01 5.56
1 -11 1 31.14 4.24
1 11 1 30.22 4.99
-1 -11 -2 9.94 2.94
-1 11 -2 15.94 4.71
1 -11 2 8.19 2.75
1 11 2 15.55 3.89
-1 -11 -3 0.25 2.19
-1 11 -3 5.88 3.31
1 -11 3 0.57 2.21
1 11 3 4.33 2.88
-1 -11 -4 0.88 2.14
-1 11 -4 1.02 2.95
1 -11 4 0.51 2.08
1 11 4 1.51 2.7
-1 -11 -5 37.22 4.6
-1 11 -5 28.74 5.7
1 -11 5 34.75 4.43
1 11 5 36.99 5.63
-2 0 16 21.75 4.06
2 0 -16 14.84 3.47
-2 0 15 -0.52 1.8
2 0 -15 1.35 1.78
-2 0 14 3.29 1.92
2 0 -14 3.12 1.83
-2 0 13 -1.24 1.37
2 0 -13 0.44 1.29
2 0 -13 0.22 1.49
-2 0 12 29.48 3.23
2 0 -12 35.4 2.97
2 0 -12 34.18 3.31
-2 0 11 -0.77 1.25
2 0 -11 0.58 1.09
2 0 -11 -0.57 1.14
-2 0 10 42.26 3.17
2 0 -10 36.53 2.75
2 0 -10 37.58 3
-2 0 9 -0.63 1.04
2 0 -9 -0.36 0.99
2 0 -9 -0.08 0.91
-2 0 7 0.09 1.01
2 0 -7 -0.11 0.91
2 0 -7 0.04 0.93
-2 0 6 96.2 3.17
2 0 -6 94.08 3.15
2 0 -6 92.81 3.18
-2 0 5 -0.13 0.86
2 0 -5 -0.08 0.75
2 0 -5 0.13 0.82
-2 0 4 702.08 6.62
2 0 -4 870.83 7.73
2 0 -4 513.97 5.9
-2 0 3 0.22 0.57
2 0 -3 0.55 0.79
2 0 -3 -0.13 0.7
2 0 -3 0.52 0.56
-2 0 2 35.91 1.39
2 0 -2 93.2 2.43
2 0 -2 35.13 1.55
2 0 -2 98.86 1.7
2 0 -1 -0.58 0.71
2 0 -1 0.02 0.46
2 0 -1 -0.16 0.79
2 0 -1 0.05 0.43
2 0 0 1350.18 7.66
2 0 0 674.15 4.89
2 0 0 1433.11 7.13
2 0 0 693.75 4.59
-2 0 -1 0.11 0.48
2 0 1 -0.37 0.48
2 0 1 -0.2 0.46
2 0 1 -0.02 0.92
2 0 1 -0.28 0.55
-2 0 -2 65.71 0.96
-2 0 -2 63.43 1.88
2 0 2 96.98 2.54
2 0 2 60.3 1.88
-2 0 -3 0.29 0.56
2 0 3 -0.19 0.89
2 0 3 -0.14 0.77
-2 0 -4 478.43 5.77
2 0 4 866.66 7.49
2 0 4 884.18 7.7
-2 0 -5 -0.14 0.72
2 0 5 0 0.92
2 0 5 -0.69 0.83
-2 0 -6 57.99 2.64
2 0 6 94.99 3.09
2 0 6 92.72 3.28
-2 0 -7 0.27 0.89
2 0 7 -0.3 0.32
2 0 7 0.14 1.09
2 0 7 0.15 0.96
-2 0 -8 18.88 2.04
2 0 8 21.09 1.05
2 0 8 19.4 1.97
2 0 8 20.75 2.2
-2 0 -9 -0.66 1.17
2 0 9 -0.43 1.15
2 0 9 -0.33 1.05
2 0 10 37.38 2.71
2 0 10 37.47 3.06
-2 0 -11 0.33 1.51
2 0 11 -0.74 1.43
2 0 11 -0.2 1.28
-2 0 -12 31.4 3.41
2 0 12 31.41 3.48
-2 0 -13 -0.1 1.72
2 0 13 0.25 1.64
-2 0 -14 6.43 2.3
2 0 14 9.2 2.95
-2 0 -15 0.22 1.94
2 0 15 0.56 1.74
-2 0 -16 14.32 3.62
2 0 16 20.94 3.73
-2 -1 16 1.55 1.92
-2 1 16 1.73 2.28
2 -1 -16 -0.48 1.81
2 1 -16 -0.13 1.83
-2 -1 15 15.99 3.49
-2 1 15 15.96 3.57
2 -1 -15 10.97 3.05
2 1 -15 16.61 3.28
-2 -1 14 3.81 1.93
-2 1 14 4.39 2.1
2 -1 -14 4.36 1.77
2 -1 -14 4.49 2.07
2 1 -14 3.01 1.88
-2 -1 13 6.35 1.98
-2 -1 13 2.06 1.75
-2 1 13 4.09 2
2 -1 -13 4.76 1.73
2 -1 -13 4.98 1.93
2 1 -13 3.81 1.9
-2 -1 12 15.29 2.44
-2 -1 12 13.86 2.85
-2 1 12 10.78 2.7
2 -1 -12 10.36 2.17
2 -1 -12 12.23 2.6
2 1 -12 10.52 2.33
-2 -1 11 25.96 2.65
-2 -1 11 25.84 2.87
-2 1 11 26.98 3.06
2 -1 -11 27.35 2.65
2 -1 -11 27.43 2.95
2 1 -11 24.05 2.85
-2 -1 10 8.28 2.09
-2 -1 10 6.94 2.15
-2 1 10 6.02 1.73
2 -1 -10 6.73 1.87
2 -1 -10 5.33 1.65
2 1 -10 4.25 1.5
-2 -1 9 38.15 2.87
-2 1 9 37.98 3.01
2 -1 -9 40.31 2.71
2 -1 -9 34.74 2.7
2 1 -9 39.96 2.72
2 1 -9 37.4 2.83
-2 -1 8 98.24 3.71
-2 1 8 101.99 3.92
2 -1 -8 91.78 3.48
2 -1 -8 83.65 3.46
2 1 -8 95.9 3.52
2 1 -8 80.82 3.42
-2 -1 7 18.07 1.98
-2 1 7 15.29 1.94
2 -1 -7 16.63 1.85
2 -1 -7 17 1.83
2 1 -7 17.67 1.86
2 1 -7 16.21 1.9
-2 -1 6 24.76 1.95
-2 1 6 25.48 2.04
2 -1 -6 25.07 1.95
2 -1 -6 24.31 1.88
2 1 -6 24.38 1.95
2 1 -6 24.25 2.01
-2 -1 5 38.64 2
-2 1 5 39.18 2.14
2 -1 -5 37.96 2.16
2 -1 -5 38.05 2.03
2 1 -5 40.78 2.1
2 1 -5 37.53 2.17
2 1 -5 39.11 1.24
-2 -1 4 73.45 2.23
-2 1 4 62.42 2.32
2 -1 -4 66.91 2.42
2 -1 -4 68.38 2.29
2 1 -4 75.26 2.54
2 1 -4 58.06 2.36
2 1 -4 78.12 1.64
-2 1 3 3.79 0.78
-2 1 3 1.96 0.79
2 -1 -3 1.49 0.72
2 1 -3 1.77 0.89
2 1 -3 17.9 1.14
-2 -1 2 688.93 6.05
-2 -1 2 536.11 3.92
-2 1 2 590.12 4.01
-2 1 2 347.56 4.27
2 -1 -2 555.19 5.47
2 -1 -2 335.51 3.59
2 -1 -2 330.3 4.15
2 1 -2 327.92 4.24
2 1 -2 762.21 4.97
-2 -1 1 11.99 1.23
-2 -1 1 12.27 0.71
2 -1 -1 12.74 1.14
2 -1 -1 10.55 0.85
2 -1 -1 13.11 1.41
2 -1 -1 12.18 1.09
2 1 -1 11.63 1.15
2 1 -1 12.09 1.32
-2 -1 0 30.73 1.34
2 -1 0 52.95 1.59
2 -1 0 26.98 0.99
2 -1 0 57.63 2.02
2 -1 0 29.55 1.41
2 1 0 27.16 1.36
2 1 0 59.46 1.98
2 1 0 27.88 0.85
-2 -1 -1 1.17 0.47
-2 1 -1 0.79 0.4
2 -1 1 11.67 1.53
2 -1 1 0.78 0.75
2 1 1 0.22 0.45
2 1 1 13.03 1.54
2 1 1 0.22 0.53
-2 -1 -2 443.16 3.36
-2 -1 -2 401.32 4.66
-2 1 -2 424.36 4.13
2 -1 2 730.78 3.89
2 -1 2 740.79 6.39
2 -1 2 409.12 4.73
2 1 2 739.5 6.35
2 1 2 436.48 4.02
-2 -1 -3 17.98 0.83
-2 -1 -3 17.33 1.32
-2 1 -3 15.91 1.26
2 -1 3 18.32 0.76
2 -1 3 18.48 1.71
2 -1 3 17.51 1.57
2 1 3 19.1 1.7
2 1 3 18.14 1.46
-2 -1 -4 22.51 0.92
-2 -1 -4 20.81 1.6
-2 1 -4 37.35 1.8
2 -1 4 66.8 1.05
2 -1 4 73.55 2.63
2 -1 4 72.07 2.6
2 1 4 73.77 2.59
2 1 4 76.13 2.49
-2 -1 -5 -0.14 0.66
2 -1 5 35.44 2.14
2 -1 5 33.18 2.14
2 1 5 34.66 2.08
2 1 5 36.58 2.08
-2 -1 -6 0.51 0.78
2 -1 6 24.79 1.99
2 -1 6 22.57 2.04
2 1 6 22.77 1.87
2 1 6 22.58 2.02
-2 -1 -7 16.62 1.06
-2 -1 -7 0.66 0.87
2 -1 7 17.12 1.94
2 -1 7 16.19 1.97
2 1 7 14.54 1.73
2 1 7 15.63 1.93
-2 -1 -8 105.64 2.29
-2 -1 -8 98.54 3.89
-2 1 -8 101.39 3.84
2 -1 8 103.16 2.06
2 -1 8 104.49 3.59
2 -1 8 114.57 4.15
2 1 8 105.16 3.47
2 1 8 111.01 4.02
-2 -1 -9 27.27 2.51
2 -1 9 37.5 2.56
2 -1 9 33.58 2.82
2 1 9 37.17 2.53
2 1 9 35.33 2.8
-2 -1 -10 4.1 1.54
-2 1 -10 5.72 1.82
-2 1 -10 7.85 2.1
2 -1 10 6.08 1.79
2 1 10 8.43 2.14
2 1 10 6.42 2.14
-2 -1 -11 24.44 2.98
-2 1 -11 22.8 3
-2 1 -11 28.13 2.75
2 -1 11 27.25 3.12
2 1 11 25.23 2.71
2 1 11 23.56 2.9
-2 -1 -12 14.25 2.88
-2 1 -12 14.94 2.9
2 -1 12 14.53 2.93
2 1 12 13.07 2.86
-2 -1 -13 3.21 1.71
-2 1 -13 0.93 1.77
2 -1 13 3.93 1.88
2 1 13 4.99 1.98
-2 -1 -14 2.63 2.07
-2 1 -14 2.4 1.98
2 -1 14 4.11 1.98
2 1 14 4.02 2.02
-2 -1 -15 11.68 3.34
-2 1 -15 14.77 3.46
2 -1 15 17.78 3.66
2 1 15 13.72 3.48
-2 -1 -16 1.78 2.04
-2 1 -16 0.29 1.87
2 -1 16 2.51 1.99
2 1 16 1.53 1.94
-2 -2 16 20.47 3.78
-2 2 16 22.14 4.04
2 -2 -16 15.85 3.46
2 2 -16 21.33 3.82
-2 -2 15 1.2 1.94
-2 2 15 4.83 2.34
2 -2 -15 5.48 2.2
2 2 -15 3.64 2.2
-2 -2 14 0.1 1.66
-2 2 14 1.77 1.91
2 -2 -14 0.46 1.54
2 -2 -14 1.34 1.77
2 2 -14 1.05 1.85
-2 -2 13 9.07 2.53
-2 -2 13 7.39 2.2
-2 2 13 5.42 2.05
2 -2 -13 8.22 2.32
2 -2 -13 6.02 2.14
2 2 -13 6.37 2.26
-2 -2 12 7.75 2.4
-2 -2 12 5.65 1.99
-2 2 12 7.79 2.18
2 -2 -12 7.3 1.94
2 -2 -12 6.22 1.94
2 2 -12 6.74 2.06
-2 -2 11 181.33 5.58
-2 -2 11 166.36 5.71
-2 2 11 170.97 6.1
2 -2 -11 171.29 5.51
2 -2 -11 140.1 5.27
2 2 -11 150.74 5.67
-2 -2 10 14.46 2.19
-2 -2 10 14.69 2.41
-2 2 10 11.19 2.42
2 -2 -10 14.99 2.37
2 -2 -10 8.94 2.13
2 2 -10 11.27 2.09
-2 -2 9 25.56 2.35
-2 -2 9 26.95 2.43
-2 2 9 24.8 2.68
2 -2 -9 17.32 2.32
-2 -2 8 6.41 1.62
-2 -2 8 7.74 1.68
-2 2 8 7.36 1.9
2 -2 -8 6.81 1.7
2 -2 -8 7.14 1.69
2 2 -8 5.06 1.55
2 2 -8 8.46 1.26
-2 -2 7 84.33 3.26
-2 -2 7 84.15 3.14
-2 2 7 86.73 3.53
2 -2 -7 81.83 3.28
2 -2 -7 81.08 3.12
2 2 -7 76.35 3.31
2 2 -7 86.68 2.27
-2 -2 6 102.16 3.38
-2 -2 6 105.06 3.17
-2 2 6 82.17 3.21
2 -2 -6 95.31 3.32
2 -2 -6 87.98 2.96
2 2 -6 93.56 3.37
2 2 -6 104.33 2.42
-2 -2 5 40.98 2.28
-2 -2 5 42.12 2
-2 2 5 40.29 1.34
-2 2 5 40.57 2.28
2 -2 -5 43.6 2.35
2 -2 -5 40.33 1.97
2 2 -5 42.13 2.32
2 2 -5 41.69 1.74
-2 -2 4 41.65 2.16
-2 -2 4 43.17 1.78
-2 2 4 44.54 1.6
-2 2 4 39.65 2.09
2 -2 -4 41.52 2.12
2 -2 -4 40.5 1.79
2 2 -4 41.19 2.17
2 2 -4 42.12 1.78
-2 2 3 37.97 1.57
-2 2 3 0.16 0.7
2 2 -3 0.96 0.73
2 2 -3 43.21 1.83
-2 -2 2 18.84 1.58
-2 -2 2 20.98 0.96
-2 2 2 22.29 1.42
2 -2 -2 21.35 1.64
2 -2 -2 8.83 0.88
2 -2 -2 8.36 1.14
2 2 -2 8.98 1.26
2 2 -2 20.34 1.56
-2 -2 1 1465.15 9.11
-2 2 1 2139.7 13.82
2 -2 -1 1581.45 12.29
2 -2 -1 1418.07 9.24
2 -2 -1 1344.92 12.11
2 2 -1 1366.39 8.75
2 2 -1 2421.57 11.08
-2 -2 0 896.63 6.79
-2 2 0 890.68 5.81
-2 2 0 1659.43 9.27
2 -2 0 907.34 6.71
2 -2 0 881.26 7.3
2 2 0 820.43 6.69
2 2 0 1578.15 9.26
-2 -2 -1 1163.66 7.37
-2 2 -1 1134.98 6.81
-2 2 -1 2535.33 14.68
2 -2 1 1785.91 8.77
2 -2 1 1083.87 8.07
2 2 1 1045.39 7.66
2 2 1 2466.92 11.98
2 2 1 1446.59 7.45
-2 -2 -2 14.84 1.17
-2 -2 -2 13.87 1.32
-2 2 -2 16.3 0.97
-2 2 -2 23.82 1.93
2 -2 2 21.43 1.29
2 -2 2 12.31 1.45
2 2 2 21.6 1.76
2 2 2 22.1 1.23
-2 -2 -3 44.13 1.55
-2 -2 -3 43.2 1.98
-2 2 -3 46.55 1.68
-2 2 -3 45.06 2.38
2 -2 3 45.05 1.52
2 -2 3 43.13 2.19
2 2 3 45.38 2.21
2 2 3 45.51 1.76
-2 -2 -4 1.39 0.6
-2 -2 -4 2.05 0.87
-2 2 -4 38.18 2.34
2 -2 4 34.69 1.34
2 -2 4 39.53 2.28
2 2 4 38.43 2.17
2 2 4 38.09 1.92
-2 -2 -5 0.12 0.57
-2 -2 -5 2.04 0.9
-2 2 -5 38.53 2.4
2 -2 5 35.12 2.27
2 2 5 38.61 2.21
2 2 5 36.69 2.13
-2 -2 -6 78.68 2.1
-2 -2 -6 57.68 2.68
-2 2 -6 91.57 3.14
-2 2 -6 103.89 3.45
2 -2 6 104.82 2.16
2 -2 6 100.92 3.53
2 2 6 101.57 3.26
2 2 6 108.19 3.46
-2 -2 -7 71.81 2.13
-2 -2 -7 67.85 3.16
-2 2 -7 75.37 3.12
-2 2 -7 86.1 3.39
2 -2 7 83.08 2.05
2 -2 7 82.5 3.5
2 2 7 78.15 3.05
2 2 7 87.81 3.39
-2 -2 -8 5.83 1.08
-2 -2 -8 7.54 1.9
-2 2 -8 7.46 1.79
-2 2 -8 10.2 2.14
2 -2 8 5.41 1.07
2 -2 8 8.39 1.9
2 2 8 7.28 1.74
2 2 8 8.39 1.99
-2 -2 -9 25.04 2.47
-2 2 -9 29.4 2.71
-2 2 -9 30.01 2.76
2 -2 9 27.92 2.7
2 2 9 29.35 2.43
2 2 9 27.43 2.63
-2 -2 -10 15.97 2.62
-2 2 -10 16.79 2.56
-2 2 -10 15.83 2.58
2 -2 10 14.9 2.48
2 2 10 17.5 2.38
2 2 10 14.63 2.59
-2 -2 -11 168.73 6.01
-2 2 -11 172.27 5.96
-2 2 -11 188.57 5.47
2 -2 11 178.24 6.13
2 2 11 179.5 5.08
2 2 11 181.86 6.07
-2 -2 -12 2.09 1.77
-2 2 -12 5.31 1.96
2 -2 12 8.08 2.53
2 2 12 9.96 2.64
-2 -2 -13 3.63 2.01
-2 2 -13 8.59 2.82
2 -2 13 9.15 2.97
2 2 13 10.33 2.89
-2 -2 -14 2.76 2.07
-2 2 -14 -0.35 1.74
2 -2 14 -0.11 1.61
2 2 14 2.45 1.93
-2 -2 -15 6.02 2.45
-2 2 -15 5.65 2.29
2 -2 15 6 2.3
2 2 15 5.25 2.21
-2 -2 -16 18.23 3.88
-2 2 -16 22.4 4.16
2 -2 16 19.87 3.74
2 2 16 18.94 3.92
-2 -3 15 3.32 2.14
-2 3 15 3.63 2.34
2 -3 -15 3.79 2.18
2 3 -15 4.29 2.32
-2 -3 14 2.53 1.87
-2 3 14 -1.03 1.8
2 -3 -14 0.31 1.67
2 -3 -14 0.64 1.79
2 3 -14 1.1 1.87
-2 -3 13 3.26 1.85
-2 -3 13 4.08 1.83
-2 3 13 3.68 1.99
2 -3 -13 6.03 2.03
2 -3 -13 4.23 1.91
2 3 -13 1.32 1.82
-2 -3 12 16.95 2.79
-2 -3 12 13.65 2.87
-2 3 12 11.73 2.84
2 -3 -12 15.78 2.62
2 -3 -12 9.81 2.67
2 3 -12 12.39 2.75
-2 -3 11 22.93 2.87
-2 -3 11 19.3 2.85
-2 3 11 18.14 2.92
2 -3 -11 20.18 2.78
2 -3 -11 14.64 2.5
2 3 -11 15.68 2.72
-2 -3 10 6.59 1.78
-2 -3 10 5.57 1.68
-2 3 10 7.33 2.01
2 -3 -10 4.82 1.65
2 -3 -10 5.31 1.67
2 3 -10 5.61 1.83
-2 -3 9 35.63 2.77
-2 -3 9 41.55 2.87
-2 3 9 40.67 3.28
2 -3 -9 35.59 2.78
2 -3 -9 35 2.71
2 3 -9 40.36 3.04
-2 -3 8 303.26 6.36
-2 -3 8 296.94 5.99
-2 3 8 297.29 6.74
2 -3 -8 226.31 5.64
2 -3 -8 246.2 5.53
2 3 -8 255.1 6.16
2 3 -8 299.66 4.81
-2 -3 7 15.06 1.95
-2 3 7 16.67 1.25
2 -3 -7 10.16 1.7
2 3 -7 13.41 1.81
2 3 -7 17.42 1.75
-2 -3 6 18.09 1.84
-2 -3 6 18.74 1.81
-2 3 6 19.44 1.37
-2 3 6 16.83 1.91
2 -3 -6 18.88 2.02
2 -3 -6 16.21 1.65
2 3 -6 16.72 1.92
2 3 -6 21.17 1.75
-2 -3 5 95.5 3.35
-2 -3 5 91.67 2.7
-2 3 5 91.32 2.42
-2 3 5 74.62 3.02
2 -3 -5 90.46 3.32
2 -3 -5 76.86 2.49
2 3 -5 81.94 3.12
2 3 -5 90.15 2.74
-2 -3 4 14.6 1.76
-2 -3 4 14.1 1.27
-2 3 4 14.78 1.58
-2 3 4 4.36 1.16
2 -3 -4 6.56 1.37
2 -3 -4 10.66 1.16
2 3 -4 4.3 1.33
2 3 -4 13 1.61
-2 -3 3 61.04 2.5
-2 -3 3 96.6 2.02
-2 3 3 112.71 2.9
-2 3 3 36.43 2.09
2 -3 -3 44.32 2.24
2 3 -3 33.19 1.97
2 3 -3 105.75 2.98
-2 -3 2 783.45 7.88
-2 -3 2 745.36 4.05
-2 3 2 802.11 6.98
2 -3 -2 798.03 7.93
2 -3 -2 748.8 4.32
2 -3 -2 392.49 5.54
2 3 -2 396.72 5.36
2 3 -2 858.09 7.66
-2 -3 1 3.51 1.14
-2 3 1 38.55 2.1
2 -3 -1 4.96 1.16
2 -3 -1 3.83 1.03
2 3 -1 3.81 1.07
2 3 -1 35.85 2.13
-2 -3 0 148.42 3.38
-2 3 0 243.93 4.32
2 -3 0 218.83 3.95
2 -3 0 122.27 3.09
2 3 0 127.1 2.97
2 3 0 240.04 4.34
-2 -3 -1 37.96 1.89
-2 3 -1 41.22 0.93
-2 3 -1 43.46 2.28
2 -3 1 37.71 1.86
2 -3 1 39.91 2.02
2 3 1 34.73 1.73
2 3 1 36.92 2.2
2 3 1 40.89 1.1
-2 -3 -2 528.87 5.86
-2 -3 -2 521.53 6.11
-2 3 -2 758.35 4.81
-2 3 -2 930.87 8.7
2 -3 2 861.81 7.13
2 -3 2 579.8 6.8
2 3 2 895.33 8.41
2 3 2 913.1 5.69
-2 -3 -3 80.33 2.42
-2 -3 -3 84.17 2.74
-2 3 -3 98.95 2.27
-2 3 -3 113.3 3.53
2 -3 3 108.66 2.66
2 -3 3 103.44 3.23
2 3 3 109.01 3.33
2 3 3 113.29 2.55
-2 -3 -4 9.61 1.23
-2 -3 -4 11.25 1.36
-2 3 -4 15.67 1.42
-2 3 -4 15.31 2.11
2 -3 4 13.71 1.28
2 -3 4 13.36 1.77
2 3 4 14.15 1.91
2 3 4 13.6 1.48
-2 -3 -5 57.18 2.15
-2 -3 -5 68.46 2.83
-2 3 -5 85.32 2.77
-2 3 -5 97.61 3.49
2 -3 5 91.57 2.47
2 -3 5 92.92 3.43
2 3 5 88.05 3.15
2 3 5 95.55 2.99
-2 -3 -6 17.09 1.48
-2 -3 -6 16.86 1.91
-2 3 -6 17.26 1.82
-2 3 -6 18.79 2.09
2 -3 6 19.78 1.48
2 -3 6 18.68 2.08
2 3 6 20.63 2.04
2 3 6 20.12 1.96
-2 -3 -7 18.53 1.48
-2 -3 -7 15.49 2.01
-2 3 -7 17.23 2.04
-2 3 -7 20.22 2.34
2 -3 7 18.29 1.5
2 -3 7 15.52 2.14
2 3 7 17.94 2
2 3 7 20.04 2.16
-2 -3 -8 259.74 4.62
-2 -3 -8 191.19 5.35
-2 3 -8 293.44 6.25
-2 3 -8 308.58 6.37
2 -3 8 305.68 4.59
2 -3 8 300.81 6.73
2 3 8 307.22 6.05
2 3 8 298.58 6.38
-2 -3 -9 45.15 2.26
-2 -3 -9 41.61 3.19
-2 3 -9 38.61 3.06
-2 3 -9 43.17 3.12
2 -3 9 41.78 3.29
2 3 9 37.95 2.67
2 3 9 43.98 3.16
-2 -3 -10 4.15 1.71
-2 3 -10 7.68 2.29
-2 3 -10 5.57 1.87
2 -3 10 7.88 2.55
2 3 10 6.32 2.06
2 3 10 6.66 2.19
-2 -3 -11 16.56 2.91
-2 3 -11 14.01 2.67
-2 3 -11 17.24 2.82
2 -3 11 13.73 2.76
2 3 11 18.19 2.57
2 3 11 16.34 2.87
-2 -3 -12 15.07 3
-2 3 -12 15.24 2.85
-2 3 -12 10.45 2.78
2 -3 12 14.09 2.91
2 3 12 17.49 2.94
-2 -3 -13 3.81 2.09
-2 3 -13 5.43 2.23
2 -3 13 6.88 2.23
2 3 13 4.61 2.03
-2 -3 -14 0.12 1.8
-2 3 -14 -1.26 1.65
2 -3 14 1.71 1.89
2 3 14 0.78 1.76
-2 -3 -15 -0.14 1.98
-2 3 -15 4.95 2.43
2 -3 15 2.98 2.02
2 3 15 1.7 1.91
-2 -4 15 16.71 3.6
-2 4 15 19.44 3.91
-2 -4 14 1.42 1.86
-2 4 14 1.53 2.05
2 -4 -14 2.3 1.89
2 -4 -14 0.86 1.9
2 4 -14 0.08 1.83
-2 -4 13 4.69 2.05
-2 -4 13 3.03 1.88
-2 4 13 4.05 2.14
2 -4 -13 6 2.09
2 -4 -13 2.22 1.79
2 4 -13 6.73 2.37
-2 -4 12 4.8 1.93
-2 -4 12 4.84 1.89
-2 4 12 3.33 1.92
2 -4 -12 4.02 1.86
2 -4 -12 4.09 1.79
2 4 -12 3.46 1.9
-2 -4 11 96.7 4.55
-2 -4 11 90.63 4.5
-2 4 11 86.66 4.99
2 -4 -11 80.89 4.31
2 -4 -11 78.06 4.13
2 4 -11 80.96 4.55
-2 -4 10 43.29 3.42
-2 -4 10 46.73 3.3
-2 4 10 44.51 3.59
2 -4 -10 46.74 3.37
2 -4 -10 44.8 3.27
2 4 -10 45.34 3.5
-2 -4 9 9.94 2.41
-2 -4 9 13.77 2.23
-2 4 9 11.7 2.43
2 -4 -9 11.09 2.25
2 -4 -9 8.72 2.09
2 4 -9 10.06 2.03
-2 -4 8 3.02 1.34
-2 -4 8 3.86 1.29
-2 4 8 3.09 1.41
2 -4 -8 2.53 1.37
2 -4 -8 1.76 1.09
2 4 -8 1.6 1.33
2 4 -8 2.9 1.3
-2 -4 7 32.78 2.68
-2 -4 7 33.6 2.32
-2 4 7 37.44 2.03
-2 4 7 31.94 2.66
2 -4 -7 24.09 2.44
2 -4 -7 29.56 2.19
2 4 -7 26.12 2.4
2 4 -7 32.22 2.33
-2 -4 6 0.27 1.07
-2 -4 6 2.75 0.99
-2 4 6 1.24 0.98
-2 4 6 1.33 1.01
2 -4 -6 1.36 1.14
2 -4 -6 0.94 0.83
2 4 -6 1.02 1.06
2 4 -6 0.19 1.07
-2 -4 5 100.17 3.67
-2 -4 5 98.81 2.78
-2 4 5 97.33 3
-2 4 5 92.83 3.55
2 -4 -5 97.41 3.69
2 -4 -5 94.43 2.7
2 4 -5 94.53 3.41
2 4 -5 102.73 3.36
-2 -4 4 5.12 1.66
-2 -4 4 4.04 1.04
-2 4 4 2.75 1.28
-2 4 4 2.81 1.03
2 -4 -4 0.98 0.95
2 -4 -4 3.24 0.96
2 4 -4 4.69 1.35
2 4 -4 4.92 1.59
-2 -4 3 24.38 2.01
-2 -4 3 31.98 1.38
-2 4 3 32.36 2.38
-2 4 3 18.36 1.81
2 -4 -3 29.3 2.22
2 -4 -3 29.49 1.23
2 4 -3 17.29 1.61
2 4 -3 31.75 2.21
-2 -4 2 10.44 1.59
-2 -4 2 11.41 0.85
-2 4 2 14.62 2.12
2 -4 -2 11.13 1.67
2 -4 -2 12.25 0.7
2 -4 -2 11.98 1.47
2 4 -2 11.13 1.36
2 4 -2 11.18 1.8
-2 -4 1 53.08 2.52
-2 4 1 102.3 3.42
2 -4 -1 84.04 3.03
2 -4 -1 58.09 2.49
2 4 -1 55.82 2.31
2 4 -1 96.42 3.31
-2 -4 0 33.28 2.14
-2 4 0 55.13 2.8
2 -4 0 51.13 2.45
2 -4 0 30.28 1.97
2 4 0 29.26 1.73
2 4 0 53.24 2.7
2 4 0 56.17 1.22
-2 -4 -1 59.01 2.57
-2 4 -1 98.76 3.52
2 -4 1 98.09 3.08
2 -4 1 58.5 2.56
2 4 1 46.84 2.1
2 4 1 96.94 3.32
2 4 1 105.94 1.92
-2 -4 -2 2.79 1.04
-2 -4 -2 1.14 0.73
-2 4 -2 14.55 2.19
2 -4 2 10.35 1.56
2 -4 2 7.8 1.64
2 4 2 10.96 2
2 4 2 10.96 1.07
-2 -4 -3 19.93 1.68
-2 -4 -3 16.53 1.56
-2 4 -3 29.31 1.38
-2 4 -3 30.92 2.47
2 -4 3 32.79 1.93
2 -4 3 22.39 1.95
2 4 3 33.15 2.46
2 4 3 32.87 1.64
-2 -4 -4 3.57 1.18
-2 -4 -4 2.76 0.97
-2 4 -4 5.26 1.13
-2 4 -4 5.17 1.59
2 -4 4 4.85 1.23
2 -4 4 5.04 1.32
2 4 4 4.98 1.54
2 4 4 4.72 1.2
-2 -4 -5 32.49 1.99
-2 -4 -5 52.33 2.64
-2 4 -5 86.91 2.79
-2 4 -5 95.13 3.7
2 -4 5 93.16 2.91
2 -4 5 96.91 3.69
2 4 5 93.45 3.58
2 4 5 93.13 3.01
-2 -4 -6 2.34 1
-2 -4 -6 1.16 1.05
-2 4 -6 1.71 1.02
-2 4 -6 2.23 1.49
2 -4 6 1.47 0.94
2 -4 6 2.43 1.3
2 4 6 1.62 1.36
2 4 6 3.15 1.14
-2 -4 -7 22.26 1.93
-2 -4 -7 28.56 2.59
-2 4 -7 30.73 2.37
-2 4 -7 34.83 2.96
2 -4 7 31.04 2.06
2 -4 7 33.25 2.86
2 4 7 30.45 2.51
2 4 7 34.23 2.55
-2 -4 -8 4.2 1.39
-2 -4 -8 4.84 1.58
-2 4 -8 6.07 1.96
-2 4 -8 3.65 1.83
2 -4 8 4.58 1.23
2 -4 8 3.26 1.65
2 4 8 4.93 1.61
2 4 8 4.45 1.5
-2 -4 -9 7.87 1.59
-2 -4 -9 10.25 2.34
-2 4 -9 8.59 2.1
-2 4 -9 8.68 2.61
2 -4 9 12.35 2.43
2 4 9 11.35 2.21
2 4 9 13.01 2.43
-2 -4 -10 36.97 3.34
-2 4 -10 40.43 3.21
-2 4 -10 42.74 3.49
2 -4 10 41.45 3.51
2 4 10 43.14 3.18
2 4 10 39.48 3.31
-2 -4 -11 87.25 4.77
-2 4 -11 83.6 4.42
-2 4 -11 95.62 4.74
2 -4 11 89.9 4.95
2 4 11 89.71 4.23
2 4 11 87.14 4.65
-2 -4 -12 4.09 2.1
-2 4 -12 6.6 2.13
-2 4 -12 4.97 2.28
2 -4 12 2.85 1.87
2 4 12 5.36 2.03
-2 -4 -13 3.19 2.02
-2 4 -13 2.08 1.97
2 -4 13 2.13 1.75
2 4 13 2.06 1.73
-2 -4 -14 3.04 2.13
-2 4 -14 1.33 1.95
2 -4 14 0.68 1.77
2 4 14 0.07 1.75
-2 -4 -15 13.09 3.62
-2 4 -15 19.46 3.88
2 -4 15 16.66 3.56
2 4 15 18.9 3.75
-2 -5 14 4.82 2.13
-2 5 14 5.22 2.41
2 -5 -14 4.09 2.14
2 -5 -14 3.71 2.08
2 5 -14 4.08 2.18
-2 -5 13 5.42 2.22
-2 -5 13 7.9 2.26
-2 5 13 7.77 2.57
2 -5 -13 5.03 2.2
2 -5 -13 8.02 2.56
2 5 -13 4.28 2.11
-2 -5 12 2.97 1.87
-2 -5 12 5.77 2
-2 5 12 4.58 2.12
2 -5 -12 4.86 1.95
2 -5 -12 3.18 1.66
2 5 -12 2.39 1.82
-2 -5 11 -0.65 1.55
-2 -5 11 0.16 1.39
-2 5 11 1.67 1.8
2 -5 -11 -0.19 1.38
2 -5 -11 -0.69 1.28
2 5 -11 0.12 1.55
-2 -5 10 14.53 2.7
-2 -5 10 12.86 2.5
-2 5 10 11.41 2.75
2 -5 -10 10.2 2.48
2 -5 -10 11.49 2.33
-2 -5 9 47.2 3.5
-2 -5 9 47.87 3.19
-2 5 9 48.53 3.77
2 -5 -9 43.61 3.42
2 -5 -9 46.54 3.07
2 5 -9 44.65 3.35
2 5 -9 45.84 3.01
-2 -5 8 1.89 1.65
-2 -5 8 1.39 1.14
-2 5 8 1.49 1.39
2 -5 -8 1.33 1.47
2 -5 -8 1.32 1.1
2 5 -8 1.98 1.38
2 5 -8 2.05 1.45
-2 -5 7 33.29 2.95
-2 -5 7 31.58 2.31
-2 5 7 34.55 2.42
2 5 -7 28.97 2.61
-2 -5 6 48.88 3.2
-2 -5 6 46.07 2.37
-2 5 6 51.3 2.8
-2 5 6 36.22 2.77
2 -5 -6 38.94 2.91
2 -5 -6 43.36 2.24
2 5 -6 42.58 2.74
2 5 -6 45.24 2.87
-2 -5 5 23.53 2.5
-2 -5 5 22.14 1.73
-2 5 5 22.16 2.27
-2 5 5 14.91 2.08
2 -5 -5 21.56 2.37
2 -5 -5 18.3 1.5
2 5 -5 12.44 1.8
2 5 -5 19.49 2.29
-2 -5 4 36.52 2.76
-2 -5 4 36.64 1.78
-2 5 4 34.37 2.7
-2 5 4 27.04 2.31
2 -5 -4 35.08 2.62
2 -5 -4 30.42 1.5
2 5 -4 13.85 1.67
2 5 -4 34.51 2.58
-2 -5 3 18.4 2.25
-2 -5 3 18.93 1.25
-2 5 3 21.73 2.46
-2 5 3 15.47 1.96
2 -5 -3 16.99 1.92
2 -5 -3 18.69 1.04
2 5 -3 12.66 1.55
2 5 -3 18.92 2.23
-2 -5 2 0.94 1.01
-2 -5 2 -0.29 0.42
-2 5 2 1.14 1.55
2 -5 -2 -0.64 0.9
2 -5 -2 -0.22 0.77
2 5 -2 0.53 0.72
2 5 -2 1.75 1.28
-2 -5 1 17.97 2.06
-2 -5 1 13.63 0.89
-2 5 1 17.1 2.43
2 -5 -1 18.71 2.06
2 -5 -1 14.73 1.71
2 5 -1 18.66 1.66
2 5 -1 17.46 2.14
-2 -5 0 258.26 5.49
-2 5 0 398.59 6.86
2 -5 0 385.4 6.55
2 -5 0 213.88 4.75
2 5 0 210.27 4.33
2 5 0 385.72 6.69
2 5 0 428.8 3.84
-2 -5 -1 3.61 1.22
-2 5 -1 18.26 2.66
2 -5 1 12.4 1.66
2 -5 1 6.26 1.42
2 5 1 3.55 1.08
2 5 1 16.22 2.23
2 5 1 19.41 1.2
-2 -5 -2 -0.97 0.76
-2 -5 -2 0.4 0.77
-2 5 -2 0.41 0.34
-2 5 -2 0.01 1.5
2 -5 2 1.03 1.07
2 -5 2 0.21 0.83
2 5 2 -1.52 1.21
2 5 2 0.18 0.62
-2 -5 -3 13.1 1.77
-2 -5 -3 8.62 1.4
-2 5 -3 18.35 1.14
-2 5 -3 18.7 2.62
2 -5 3 21.2 2.07
2 -5 3 16.14 1.94
2 5 3 19.05 2.29
2 5 3 20.06 1.51
-2 -5 -4 30.11 2.21
-2 -5 -4 33.22 2.2
-2 5 -4 38.46 1.79
-2 5 -4 39.27 3.18
2 -5 4 37.97 2.44
2 -5 4 38.43 2.61
2 5 4 36.93 2.95
2 5 4 38.55 2.06
-2 -5 -5 22.33 2.15
-2 -5 -5 19.13 1.95
-2 5 -5 22.22 1.71
-2 5 -5 21.7 2.78
2 -5 5 23.25 2.01
2 -5 5 23.5 2.48
2 5 5 22.89 2.57
2 5 5 21.94 1.86
-2 -5 -6 34.93 2.5
-2 -5 -6 35.91 2.58
-2 5 -6 41.84 2.31
-2 5 -6 46.13 3.49
2 -5 6 42.32 2.55
2 -5 6 48.06 3.1
2 5 6 45.11 3.12
2 5 6 45.26 2.59
-2 -5 -7 37.6 2.63
-2 -5 -7 34.03 2.75
-2 5 -7 35.59 2.45
-2 5 -7 33.6 3.36
2 -5 7 34.1 2.41
2 -5 7 32.01 2.87
2 5 7 33.79 2.93
2 5 7 34.74 2.63
-2 -5 -8 0.88 1.17
-2 -5 -8 1.01 1.33
-2 5 -8 0.6 1.17
-2 5 -8 -0.45 1.71
2 -5 8 1.24 1.17
2 -5 8 2.34 1.55
2 5 8 1.04 1.36
2 5 8 1.26 1.24
-2 -5 -9 41.73 2.89
-2 5 -9 37.68 2.9
-2 5 -9 42.96 3.74
2 -5 9 44.22 3.62
2 5 9 40.63 3.17
2 5 9 42.25 3.24
-2 -5 -10 15.48 2.81
-2 5 -10 17.16 2.7
-2 5 -10 14.58 3.16
2 -5 10 15.76 2.81
2 5 10 16.08 2.59
2 5 10 16.54 2.77
-2 -5 -11 -0.15 1.69
-2 5 -11 2.19 1.63
-2 5 -11 -1.88 1.97
2 -5 11 -0.53 1.44
2 5 11 -0.94 1.52
2 5 11 0.21 1.48
-2 -5 -12 2.86 1.99
-2 5 -12 7.97 2.56
-2 5 -12 8.11 2.83
2 -5 12 5.66 2.16
2 5 12 4.68 2.07
-2 -5 -13 2.42 2.09
-2 5 -13 5.89 2.12
2 -5 13 3.89 2.04
2 5 13 4.02 1.97
-2 -5 -14 -0.12 2.03
-2 5 -14 3.69 2.12
2 -5 14 2.87 2.02
2 5 14 0.73 1.9
-2 -6 13 2.6 2.01
-2 6 13 5.17 2.36
2 -6 -13 3.75 2.19
2 6 -13 4.45 2.15
-2 -6 12 3.17 1.98
-2 6 12 1 1.99
2 -6 -12 2.59 1.97
2 6 -12 1.15 1.75
-2 -6 11 8.7 2.33
-2 6 11 8.45 2.45
2 -6 -11 10.29 2.81
2 6 -11 8.51 2.58
-2 -6 10 23.43 3.13
-2 6 10 28.78 3.48
2 -6 -10 22.21 3.17
2 6 -10 23.45 3.12
-2 -6 9 51.52 3.94
-2 -6 9 53.45 3.58
-2 6 9 50.67 3.85
2 -6 -9 52.5 3.92
2 6 -9 49.76 3.55
2 6 -9 58.49 3.69
-2 -6 8 9.32 2.55
-2 -6 8 7.38 1.95
-2 6 8 10.43 2.41
2 -6 -8 8.67 2.51
2 6 -8 7.32 1.9
2 6 -8 9.96 2.54
-2 -6 7 2.34 1.71
-2 -6 7 2.45 1.21
-2 6 7 3.79 1.74
-2 6 7 2.67 1.37
2 -6 -7 4.08 1.79
2 6 -7 3.06 1.48
2 6 -7 3.95 1.76
-2 -6 6 9.46 2.51
-2 -6 6 6.24 1.66
-2 6 6 7.7 2.33
2 -6 -6 3.95 1.64
2 6 -6 8.36 2.37
-2 -6 5 4.55 1.75
-2 -6 5 6.99 1.47
-2 6 5 5.47 1.91
-2 6 5 3.73 1.35
2 -6 -5 3.75 1.67
2 6 -5 5.33 1.7
2 6 -5 7.25 2.32
-2 -6 4 7.97 2.03
-2 -6 4 7.5 1.26
-2 6 4 5.96 1.94
-2 6 4 7.2 1.86
2 -6 -4 9.01 2.14
2 6 -4 8.37 1.57
2 6 -4 6.3 1.78
-2 6 3 14.59 2.69
-2 6 3 5.41 1.76
2 -6 -3 13.93 2.21
2 6 -3 7.34 1.45
2 6 -3 12.56 2.38
-2 -6 2 1.8 1.26
-2 -6 2 2.6 0.82
-2 6 2 2.61 1.89
2 -6 -2 2.77 1.43
2 -6 -2 2.7 1.13
2 6 -2 2.17 0.94
2 6 -2 2.39 1.47
-2 -6 1 49.33 3.12
-2 6 1 57.6 3.64
2 -6 -1 48.6 2.93
2 -6 -1 48.11 2.74
2 6 -1 43.58 2.36
2 6 -1 57 3.36
-2 -6 0 24.81 2.3
-2 6 0 37.91 3.48
2 -6 0 41.41 2.84
2 -6 0 24.61 2.13
2 6 0 33.16 2.06
2 6 0 41.93 3.07
2 6 0 44.44 1.67
-2 -6 -1 30.4 2.56
-2 6 -1 55.37 3.67
2 -6 1 45.56 2.8
2 -6 1 40.42 2.58
2 6 1 33.49 2.11
2 6 1 50.58 3.21
2 6 1 55 1.93
-2 -6 -2 -0.16 1.1
-2 -6 -2 0.29 0.87
-2 6 -2 2.3 1.9
2 -6 2 1.69 1.24
2 -6 2 1.16 1.06
2 6 2 0.97 1.51
2 6 2 1.43 0.75
-2 -6 -3 13.08 2.08
-2 -6 -3 15.46 1.79
-2 6 -3 12.51 3.15
2 -6 3 14.43 2.12
2 -6 3 14.93 2.08
2 6 3 15.5 2.67
2 6 3 16.38 1.59
-2 -6 -4 5.59 1.8
-2 -6 -4 10.82 1.8
-2 6 -4 9.35 2.74
2 -6 4 8.06 2.05
2 -6 4 9.75 2.06
2 6 4 11.25 2.62
2 6 4 10.25 1.54
-2 -6 -5 3.17 1.38
-2 -6 -5 4.65 1.37
-2 6 -5 6.36 2.48
2 -6 5 5.76 1.88
2 -6 5 4.54 1.54
2 6 5 6.18 2.07
2 6 5 4.73 1.56
-2 -6 -6 7.44 1.95
-2 -6 -6 6.43 1.64
-2 6 -6 8.34 1.55
-2 6 -6 14.82 3.06
2 -6 6 7.18 2.06
2 -6 6 9.77 2.17
2 6 6 7.2 2.06
2 6 6 9.27 1.84
-2 -6 -7 1.3 1.38
-2 -6 -7 0.73 1.29
-2 6 -7 2.04 1.16
-2 6 -7 3.92 2.38
2 -6 7 2.73 1.43
2 -6 7 2.15 1.47
2 6 7 1.56 1.72
2 6 7 1.91 1.24
-2 -6 -8 3.9 1.55
-2 6 -8 10.27 2
-2 6 -8 3.54 2.39
2 -6 8 8.03 2.08
2 -6 8 11.35 2.65
2 6 8 10.26 2.84
2 6 8 8.88 2.31
-2 -6 -9 51.26 3.37
-2 -6 -9 44 3.51
-2 6 -9 48.66 3.2
-2 6 -9 49.44 4.4
2 -6 9 49.86 3.86
2 6 9 54.4 3.67
2 6 9 49.32 3.49
-2 -6 -10 18.56 2.95
-2 6 -10 22.64 2.78
-2 6 -10 19.23 4.06
2 -6 10 23.08 3.14
2 6 10 23.39 3.08
2 6 10 19.27 2.85
-2 -6 -11 5.89 2.11
-2 6 -11 9.07 2.54
-2 6 -11 4.18 2.73
2 -6 11 9.25 3.03
2 6 11 8.34 2.66
-2 -6 -12 0.78 1.99
-2 6 -12 3.05 1.86
-2 6 -12 -0.81 2.74
2 -6 12 1.41 1.69
2 6 12 2.26 1.8
-2 -6 -13 2.65 2.25
-2 6 -13 2.32 1.84
2 -6 13 3.91 2.04
2 6 13 7.25 2.34
2 7 -13 2.15 2.08
-2 -7 12 16.66 3.42
-2 7 12 17.09 3.83
2 -7 -12 16.45 3.35
-2 -7 11 1.59 1.98
-2 7 11 1.53 1.89
2 -7 -11 4.19 2.19
2 7 -11 3.15 1.99
-2 -7 10 26.12 3.52
-2 7 10 29.26 3.76
2 -7 -10 26.34 3.52
2 7 -10 27.25 3.33
-2 -7 9 17.43 3.12
-2 7 9 12.6 2.94
2 -7 -9 13.81 3.05
2 7 -9 12.78 2.52
2 7 -9 16.04 2.98
-2 -7 8 92.13 4.92
-2 7 8 81.24 4.46
2 -7 -8 86.96 4.85
2 7 -8 84.04 4.26
2 7 -8 91.74 4.61
-2 -7 7 22.72 2.95
-2 7 7 33.13 3.38
-2 7 7 19.78 2.69
2 -7 -7 18.73 2.75
2 7 -7 23.08 2.71
2 7 -7 27.83 3.25
-2 -7 6 -0.56 1.48
-2 7 6 2.69 1.95
-2 7 6 1.07 1.31
2 -7 -6 1.85 1.71
2 7 -6 1.05 1.14
2 7 -6 0.95 1.75
-2 -7 5 4.34 1.9
-2 7 5 6.02 2.28
-2 7 5 4.07 1.48
2 -7 -5 2.83 1.64
2 7 -5 3.35 1.38
2 7 -5 2.49 1.8
-2 -7 4 84.72 4.4
-2 7 4 93.08 4.63
-2 7 4 70.06 3.64
2 -7 -4 87.24 4.41
2 7 -4 85.83 3.64
2 7 -4 89.21 4.45
-2 -7 3 2.58 1.58
-2 7 3 4.82 2.24
-2 7 3 1.51 1.05
2 -7 -3 4.97 1.75
2 7 -3 6.02 1.64
2 7 -3 6.03 1.92
-2 -7 2 71.06 3.99
-2 7 2 78.59 4.52
2 -7 -2 79.38 4.08
2 -7 -2 72.15 3.57
2 7 -2 59.95 2.9
2 7 -2 78.32 4.11
-2 -7 1 15.22 2.36
-2 7 1 15.4 3.38
2 -7 -1 12.85 2.42
2 -7 -1 10.11 1.98
2 7 -1 12.43 1.73
2 7 -1 11.44 2.62
-2 -7 0 3.5 1.66
-2 7 0 5.97 2.31
2 -7 0 5.73 1.81
2 -7 0 3.9 1.28
2 7 0 4.22 1.38
2 7 0 8.29 2.6
-2 -7 -1 11.64 2.44
-2 -7 -1 11.86 1.69
-2 7 -1 13.81 3.64
2 -7 1 14.3 2.49
2 -7 1 14.1 2.18
2 7 1 17.72 2.94
-2 -7 -2 59.84 3.52
-2 -7 -2 78.96 3.26
-2 7 -2 82.43 4.96
2 -7 2 81.57 4.01
2 -7 2 78.72 3.69
2 7 2 76.93 4.29
-2 -7 -3 7.27 1.94
-2 -7 -3 7.34 1.68
-2 7 -3 7.65 2.82
2 -7 3 5.86 1.81
2 -7 3 7.12 1.91
2 7 3 9.48 2.92
-2 -7 -4 77.93 4
-2 -7 -4 82.42 3.56
-2 7 -4 87.41 5.28
2 -7 4 85.7 4.04
2 -7 4 87.34 4
2 7 4 90.7 4.73
-2 -7 -5 0.99 1.54
-2 -7 -5 2.67 1.3
-2 7 -5 2.73 2.55
2 -7 5 2.21 1.5
2 -7 5 2.71 1.4
2 7 5 4.76 2.28
-2 -7 -6 0.79 1.45
-2 -7 -6 1.3 1.35
-2 7 -6 -2.29 2.41
2 -7 6 1.77 1.57
2 -7 6 1.88 1.45
2 7 6 1.59 1.88
-2 -7 -7 25.92 3.06
-2 -7 -7 24.94 2.72
-2 7 -7 24.17 4.3
2 -7 7 28.13 2.97
2 -7 7 22.49 2.96
2 7 7 29.66 3.45
2 7 7 27.84 2.63
-2 -7 -8 86.82 4.47
-2 -7 -8 86.26 4.45
-2 7 -8 93.25 5.74
2 -7 8 87.49 4.24
2 -7 8 89.36 4.61
2 7 8 94.57 4.91
2 7 8 94.37 4.3
-2 -7 -9 10.46 2.62
-2 -7 -9 13.04 2.87
-2 7 -9 12.96 4.16
2 -7 9 15.04 2.83
2 7 9 10.68 3.14
2 7 9 12.67 2.56
-2 -7 -10 23.92 3.44
-2 7 -10 22.47 4.36
2 -7 10 26.5 3.36
2 7 10 25.55 3.41
2 7 10 23.22 3.06
-2 -7 -11 -0.67 1.72
-2 7 -11 4.32 3.06
2 -7 11 3.47 1.92
2 7 11 2.81 1.83
-2 -7 -12 14.37 3.35
-2 7 -12 16.14 4.5
2 -7 12 19.96 3.74
2 7 12 19.44 3.39
-2 -8 11 15.14 3.7
-2 8 11 20.7 3.83
2 -8 -11 18.54 3.69
2 8 -11 17.46 3.28
-2 -8 10 12.14 3.45
-2 8 10 15.69 3.54
2 -8 -10 7.66 2.51
2 8 -10 17.56 2.9
-2 -8 9 15.25 3.44
-2 8 9 13.99 3.15
2 -8 -9 11.68 3.21
2 8 -9 14.15 2.66
2 8 -9 21.18 3.46
-2 -8 8 9.98 3.12
-2 8 8 4.66 1.8
2 -8 -8 4.83 2.25
2 8 -8 7.1 2.36
2 8 -8 4.69 2.17
-2 -8 7 4.29 2.2
-2 8 7 12.51 3.31
-2 8 7 3.94 1.78
2 -8 -7 1.51 1.93
2 8 -7 4.36 1.7
2 8 -7 5.15 2.17
-2 -8 6 10.57 3.05
-2 8 6 12.76 3.42
-2 8 6 4.72 1.69
2 -8 -6 6.16 2.22
2 8 -6 8.29 2.21
2 8 -6 9.16 3.02
-2 -8 5 -0.29 1.69
-2 8 5 2 2.19
-2 8 5 -1.42 1.08
2 -8 -5 0.76 1.77
2 8 -5 1.51 1.31
2 8 -5 1.75 1.82
-2 -8 4 20.88 2.97
-2 8 4 21.22 3.57
-2 8 4 21.14 2.69
2 -8 -4 21.28 3.08
2 8 -4 21.48 2.37
2 8 -4 22.74 3.39
-2 -8 3 1.48 1.84
-2 8 3 3.98 2.49
-2 8 3 1.63 1.24
2 -8 -3 3.43 1.66
2 8 -3 5.12 1.69
2 8 -3 2.42 1.92
-2 -8 2 1.69 1.76
-2 8 2 2.8 2.68
-2 8 2 1.29 1.2
2 -8 -2 0.94 1.73
2 8 -2 1.23 1.1
2 8 -2 0.32 1.73
-2 -8 1 43.63 3.75
-2 8 1 38.5 4.33
2 -8 -1 42.5 3.57
2 -8 -1 43.1 3.19
2 8 -1 40.07 2.63
2 8 -1 47.2 3.9
-2 -8 0 21.57 2.86
-2 8 0 24.83 3.85
2 -8 0 23.2 3.07
2 -8 0 25.87 2.74
2 8 0 21.87 2.19
2 8 0 27.53 3.34
-2 -8 -1 35.81 3.46
-2 -8 -1 41.44 2.73
-2 8 -1 41.21 4.28
2 -8 1 40.36 3.31
2 -8 1 38.56 3.09
2 8 1 39.23 3.76
-2 -8 -2 0.74 1.65
-2 -8 -2 1.88 1.16
-2 8 -2 1.98 2.45
2 -8 2 0.19 1.7
2 -8 2 0.65 1.3
2 8 2 2.06 2.15
-2 -8 -3 6.91 2.08
-2 -8 -3 5.78 1.75
-2 8 -3 8.57 3.12
2 -8 3 6.8 2
2 -8 3 6.77 1.78
2 8 3 7.65 2.63
-2 -8 -4 13.59 2.81
-2 -8 -4 18.55 2.32
-2 8 -4 19.99 4.68
2 -8 4 15.15 2.76
2 -8 4 18.63 2.64
2 8 4 16.86 3.55
-2 -8 -5 0.6 1.61
-2 -8 -5 -0.02 1.28
-2 8 -5 0.43 2.8
2 -8 5 0.5 1.65
2 -8 5 1.64 1.45
2 8 5 4.13 2.3
-2 -8 -6 4.87 2
-2 -8 -6 8.44 2.28
-2 8 -6 6.83 3.16
2 -8 6 7.3 2.11
2 -8 6 8.39 2.47
2 8 6 5.91 2.4
-2 -8 -7 3.28 1.92
-2 -8 -7 3.16 1.67
-2 8 -7 2.95 3.02
2 -8 7 3.62 1.79
2 -8 7 3.27 1.65
2 8 7 7.08 2.41
-2 -8 -8 5.23 1.95
-2 8 -8 5.34 3.3
2 -8 8 5.5 2.01
2 -8 8 8.41 2.2
2 8 8 5.89 2.47
-2 -8 -9 16.55 3.15
-2 8 -9 10.18 3.75
2 -8 9 15.01 3.1
2 8 9 12.48 3.57
-2 8 -10 14.94 4.14
2 -8 10 11.95 3.24
2 8 10 18.3 3.46
-2 8 -11 13.26 4.08
2 -8 11 21.25 3.61
-2 -9 10 3.85 2.67
-2 9 10 2.1 1.99
2 -9 -10 3.75 2.45
-2 -9 9 7.17 2.65
-2 9 9 15.56 3.32
2 -9 -9 10.58 3.5
2 9 -9 15.24 3.7
-2 -9 8 4.51 2.51
-2 9 8 4.81 1.96
2 -9 -8 10.25 3.28
2 9 -8 18.49 3.78
-2 -9 7 14.85 3.64
-2 9 7 23.53 4.19
-2 9 7 16.5 2.99
2 -9 -7 15.25 3.43
2 9 -7 19.23 3.7
-2 -9 6 0.46 2.1
-2 9 6 3.42 2.62
-2 9 6 -1.17 1.2
2 -9 -6 0.23 1.92
2 9 -6 2.57 2.1
-2 -9 5 1.18 2.09
-2 9 5 6.31 2.77
-2 9 5 0.94 1.38
2 -9 -5 1.04 1.94
2 9 -5 1.6 2.08
-2 -9 4 0.69 2.02
-2 9 4 6.12 2.8
-2 9 4 0.23 1.19
2 -9 -4 3.44 2.08
2 9 -4 3.34 2.08
-2 -9 3 1.78 2.05
-2 9 3 5.9 2.8
-2 9 3 0.98 1.21
2 -9 -3 0.83 1.74
2 9 -3 1.34 2
-2 -9 2 11.71 3.21
-2 9 2 11.89 3.3
-2 9 2 10.93 2.29
2 -9 -2 9.93 2.96
2 9 -2 17.05 3.54
-2 -9 1 35.1 3.88
-2 9 1 39.94 4.59
2 -9 -1 37.87 3.78
2 -9 -1 35.2 3.26
2 9 -1 38.73 4.03
-2 -9 0 0.92 1.88
-2 9 0 1.68 2.77
2 -9 0 1.12 1.82
2 -9 0 1.8 1.5
2 9 0 1.38 2.07
-2 -9 -1 32.09 3.7
-2 9 -1 34.87 4.73
2 -9 1 36.66 3.48
2 -9 1 35.48 3.21
2 9 1 36 4.23
-2 -9 -2 10.22 2.98
-2 9 -2 9.96 3.09
2 -9 2 13.01 3.01
2 -9 2 12.59 2.59
2 9 2 10.64 2.89
-2 -9 -3 4.08 2.17
-2 9 -3 5.02 3.08
2 -9 3 3.84 2.01
2 -9 3 3.51 1.8
2 9 3 4.8 2.59
-2 -9 -4 6.17 2.27
-2 9 -4 4.67 3.24
2 -9 4 3.42 2.15
2 -9 4 4.97 1.86
2 9 4 4.49 2.65
-2 -9 -5 -0.03 1.79
-2 9 -5 -1.24 2.92
2 -9 5 1.84 1.84
2 -9 5 1.77 1.61
2 9 5 3.04 2.4
-2 -9 -6 2.52 2.01
-2 9 -6 0.36 3.35
2 -9 6 1.52 1.88
2 -9 6 0.14 1.62
2 9 6 3.35 2.38
-2 -9 -7 16.36 3.48
-2 9 -7 11.83 4
2 -9 7 19.24 3.16
2 -9 7 18.87 3.14
2 9 7 15.87 3.79
-2 -9 -8 9.99 2.7
-2 9 -8 9.93 4.11
2 -9 8 7.83 2.33
2 9 8 10.25 2.98
-2 -9 -9 13.45 3.36
-2 9 -9 18.99 4.83
2 -9 9 17.99 3.33
2 9 9 11.53 3.74
-2 9 -10 -0.5 3.68
2 -9 10 1.44 1.93
2 9 10 2.23 2.42
-2 -10 8 -2.3 2.24
-2 10 8 2.47 2.03
2 -10 -8 1.97 2.21
2 10 -8 3.61 2.33
-2 -10 7 0.09 2.31
-2 10 7 1.56 1.65
2 -10 -7 0.05 2.22
2 10 -7 1.9 2.23
-2 -10 6 1.37 2.22
-2 10 6 13.67 4.46
-2 10 6 0.78 1.52
2 -10 -6 1.05 2.15
2 10 -6 1.68 2.22
-2 -10 5 0.34 2.23
-2 10 5 7.5 3.28
-2 10 5 0.58 1.44
2 -10 -5 2.33 2.23
2 10 -5 4.5 2.43
-2 -10 4 -0.85 2
-2 10 4 0.99 3.01
-2 10 4 -0.09 1.35
2 -10 -4 0.95 2.13
2 10 -4 2.67 2.28
-2 -10 3 5.17 2.28
-2 10 3 17.01 5.12
-2 10 3 5.69 1.79
2 -10 -3 5.21 2.33
2 10 -3 7.38 2.79
-2 -10 2 -1.35 1.86
-2 10 2 5.4 3.18
-2 10 2 0.34 1.19
2 -10 -2 1.01 2.01
2 10 -2 0.65 2.2
-2 -10 1 0.09 1.86
-2 10 1 1.98 3.01
-2 10 1 1.76 1.36
2 -10 -1 2.39 2.21
2 10 -1 3.89 2.52
-2 -10 0 3.63 2.13
-2 10 0 6.3 3.4
2 -10 0 3.84 2.19
2 -10 0 3.26 1.81
2 10 0 4.92 2.66
-2 -10 -1 2.81 2.2
-2 10 -1 0.83 3.13
2 -10 1 -0.15 1.95
2 -10 1 0.19 1.5
2 10 1 3.04 2.51
-2 -10 -2 0.25 1.93
-2 10 -2 -0.62 3.05
2 -10 2 2.7 2.07
2 -10 2 0.62 1.64
2 10 2 1.94 2.5
-2 -10 -3 2.1 2.09
-2 10 -3 0.72 2.99
2 -10 3 3.31 2.12
2 -10 3 6.57 2.01
2 10 3 4.82 2.81
-2 -10 -4 0.64 2.09
-2 10 -4 1.06 3.22
2 -10 4 2.4 2.14
2 10 4 0.76 2.42
-2 -10 -5 -0.32 1.97
-2 10 -5 0.3 3.46
2 -10 5 3.8 2.29
2 10 5 2.64 2.61
-2 -10 -6 0.81 2.16
-2 10 -6 2.69 3.73
2 -10 6 3.23 2.13
2 10 6 1.15 2.39
-2 -10 -7 1.9 2.24
-2 10 -7 -2.33 3.75
2 -10 7 4.06 2.22
2 10 7 4.42 2.83
-2 10 -8 2.12 3.98
2 10 8 4.77 2.77
-2 11 5 24.43 5.38
2 11 -5 13.7 4.07
-2 -11 4 15.91 4.01
-2 11 4 31.15 5.38
2 -11 -4 14.63 3.93
2 11 -4 19.08 4.38
-2 -11 3 -0.5 2.08
-2 11 3 -0.26 2.98
2 -11 -3 -0.69 2.18
2 11 -3 1.58 2.46
-2 -11 2 6.69 2.74
-2 11 2 23.49 5.42
2 -11 -2 5.67 2.67
2 11 -2 14.24 4.43
-2 -11 1 0.57 1.97
-2 11 1 -0.69 3.11
2 -11 -1 -1.18 2.01
2 11 -1 3.43 2.62
-2 -11 0 3.58 2.37
-2 11 0 15.13 4.86
2 -11 0 9.24 2.98
2 11 0 14.45 4.42
-2 -11 -1 0.75 2.27
-2 11 -1 4.85 3.47
2 -11 1 1.16 2.23
2 11 1 0.6 2.49
-2 -11 -2 10.96 3.1
-2 11 -2 11.16 4.22
2 -11 2 12.21 3.62
2 11 2 9.72 3.33
-2 -11 -3 0.24 2.25
-2 11 -3 0.25 3.57
2 -11 3 0.75 2.31
2 11 3 1.36 2.77
-2 -11 -4 18.55 3.92
-2 11 -4 21.12 6.08
2 -11 4 17.07 3.8
2 11 4 21.43 4.74
-2 11 -5 10.66 4.48
2 11 5 6.65 3.11
-3 0 16 2.27 2.22
3 0 -16 1.23 1.95
-3 0 15 -1.68 1.89
3 0 -15 0.09 1.79
-3 0 14 8.7 2.78
-3 0 14 2.64 2.03
3 0 -14 9.15 2.81
3 0 -14 5.51 2.27
-3 0 13 0.65 1.62
3 0 -13 -0.88 1.27
3 0 -13 -0.44 1.61
-3 0 12 5.45 1.94
3 0 -12 5.55 1.88
3 0 -12 6.51 2.05
-3 0 11 0.04 1.4
3 0 -11 -1.2 1.16
3 0 -11 0.73 1.38
-3 0 10 11.22 2.39
3 0 -10 13.57 2.26
3 0 -10 11.42 2.29
-3 0 9 0.7 1.17
3 0 -9 0.34 1.15
3 0 -9 0.97 1.17
-3 0 7 -0.87 0.91
3 0 -7 -0.2 1.01
3 0 -7 0.27 1.04
-3 0 6 348.65 5.86
3 0 -6 362.69 6.35
3 0 -6 325.67 5.9
-3 0 5 -0.02 0.69
3 0 -5 0.73 1.06
3 0 -5 0.88 0.94
-3 0 4 14.26 1.37
3 0 -4 14.59 1.79
3 0 -4 14.09 1.57
3 0 -4 13.25 1.04
-3 0 3 0.24 0.52
3 0 -3 0.7 0.96
3 0 -3 0.12 0.78
3 0 -3 -0.17 0.75
-3 0 2 34.01 1.52
3 0 -2 96.32 2.78
3 0 -2 39.71 1.82
3 0 -2 104.3 2.36
3 0 -2 37.69 1.62
3 0 -1 -0.37 0.77
3 0 -1 0.1 0.55
3 0 -1 -0.3 1.04
3 0 -1 -0.1 0.45
3 0 0 8.43 1.15
3 0 0 3.16 0.82
3 0 0 7.85 1.61
3 0 0 3.69 0.87
3 0 1 0.18 0.6
3 0 1 -0.25 0.52
3 0 1 -0.06 1.14
3 0 1 -0.24 0.51
-3 0 -2 67.66 2.21
3 0 2 69.54 1.55
3 0 2 104.83 3.11
3 0 2 62.91 2.12
-3 0 -3 -0.18 0.28
-3 0 -3 0.57 0.62
3 0 3 -0.65 1.14
3 0 3 0.09 0.8
-3 0 -4 0.56 0.68
3 0 4 13.44 1.86
-3 0 -5 0.14 0.72
3 0 5 0.42 1.22
3 0 5 -0.21 0.88
-3 0 -6 158.62 4.26
3 0 6 374.9 6.26
3 0 6 355.43 6.17
-3 0 -7 0.6 0.93
3 0 7 -0.2 1.38
3 0 7 0.1 1.07
-3 0 -8 9.88 1.95
3 0 8 8.92 2.12
3 0 8 11.17 2.17
-3 0 -9 -0.39 1.1
3 0 9 0.71 1.47
3 0 9 0.8 1.28
-3 0 -10 7.74 2.32
3 0 10 10.3 2.38
3 0 10 11.22 2.42
-3 0 -11 -0.78 1.41
3 0 11 -1.1 1.7
3 0 11 1.12 1.51
-3 0 -12 -0.31 1.39
3 0 12 4.16 2.05
3 0 12 3.05 1.81
-3 0 -13 -0.53 1.57
3 0 13 0.07 1.59
-3 0 -14 6.41 2.54
3 0 14 12.47 3.29
-3 0 -15 0.24 1.88
3 0 15 0.46 1.85
-3 -1 15 1.85 1.95
-3 1 15 3.98 2.17
3 -1 -15 4.33 2.03
3 -1 -15 1.66 1.9
3 1 -15 2.71 2
-3 -1 14 5.9 2.22
-3 -1 14 3.58 2.05
-3 1 14 3.73 2.06
3 -1 -14 2.25 1.77
3 -1 -14 5.09 2.17
3 1 -14 4.7 2.17
3 1 -13 2.82 1.82
-3 -1 12 12.95 2.57
-3 -1 12 10.15 2.85
-3 1 12 7.03 2.07
3 -1 -12 9.27 2.43
3 -1 -12 9.53 2.49
3 1 -12 9.17 2.59
-3 -1 11 7.51 2.25
-3 -1 11 5.17 1.85
-3 1 11 9.58 2.71
3 -1 -11 4.33 1.72
3 -1 -11 3.39 1.71
3 1 -11 8.86 2.17
-3 -1 10 3.08 1.52
-3 1 10 4.55 1.78
3 -1 -10 8.55 2.19
3 -1 -10 4.72 1.71
3 1 -10 1.81 1.36
3 1 -10 3.94 1.61
-3 -1 9 25.29 2.6
-3 1 9 24.57 2.64
3 -1 -9 24.78 2.54
3 -1 -9 17.99 2.29
3 1 -9 22.42 2.32
3 1 -9 20.63 2.5
-3 1 8 1.62 1.14
3 -1 -8 1.26 1.07
3 1 -8 0.84 0.97
-3 -1 7 1.09 0.87
-3 1 7 1.71 1.06
3 -1 -7 1.89 1.14
3 -1 -7 1.26 0.96
3 1 -7 1.69 1.12
3 1 -7 2 1.09
-3 -1 6 10.88 1.61
-3 1 6 9.47 1.58
3 -1 -6 8.82 1.58
3 -1 -6 9.98 1.53
3 1 -6 10.07 1.79
3 1 -6 9.43 1.7
-3 -1 5 24.55 1.77
-3 1 5 3.28 0.99
3 -1 -5 6.79 1.4
3 1 -5 8.39 1.59
3 1 -5 27.69 1.27
-3 -1 4 36.15 1.75
-3 1 4 25.74 1.1
-3 1 4 27.23 1.77
3 -1 -4 35.89 2.11
3 -1 -4 26.4 1.78
3 1 -4 36.95 2.17
3 1 -4 25.37 1.93
3 1 -4 39 1.56
-3 -1 3 1.6 0.56
-3 1 3 3.73 0.99
-3 1 3 2.15 0.79
3 -1 -3 11.89 1.62
3 -1 -3 2.5 0.91
3 1 -3 1.82 0.95
3 1 -3 13.02 1.31
-3 -1 2 65.51 1.71
3 -1 -2 133.24 3.24
3 -1 -2 63.01 2
3 -1 -2 136.86 2.7
3 -1 -2 62.98 2.2
3 1 -2 121.49 3.07
3 1 -2 64.72 2.33
3 1 -2 144.44 2.86
-3 -1 1 11.65 1.36
3 -1 -1 12.48 1.44
3 -1 -1 10.24 0.92
3 -1 -1 11.65 1.62
3 -1 -1 11.05 1.19
3 1 -1 11.54 1.16
3 1 -1 11.33 1.51
3 1 -1 10.6 0.84
-3 -1 0 5.51 1.01
3 -1 0 9.78 1.32
3 -1 0 5.54 0.85
3 -1 0 10.61 1.76
3 -1 0 5.75 1.06
3 1 0 5.1 1.04
3 1 0 10.97 1.62
3 1 0 6.2 0.89
-3 -1 -1 1.54 0.57
-3 1 -1 0.96 0.51
3 -1 1 11.33 1.9
3 -1 1 0.2 0.67
3 1 1 0.58 0.58
3 1 1 11.58 1.78
3 1 1 1.05 0.54
-3 -1 -2 84.63 1.81
-3 -1 -2 77.86 2.52
-3 1 -2 79.15 2.17
3 -1 2 142.06 2.25
3 -1 2 142.15 3.52
3 -1 2 80.97 2.61
3 1 2 137.59 3.51
3 1 2 79.26 2.15
-3 -1 -3 12 0.81
-3 -1 -3 10.03 1.24
-3 1 -3 11.26 1.2
3 -1 3 14.13 0.88
3 -1 3 11.9 2
3 -1 3 6.84 1.43
3 1 3 12.07 1.85
3 1 3 8.92 1.32
-3 -1 -4 14.62 0.77
-3 -1 -4 13.71 1.55
-3 1 -4 14.73 1.47
3 -1 4 37.22 2.5
3 -1 4 16.72 1.79
3 1 4 38.3 2.37
3 1 4 31.97 1.93
-3 -1 -5 26.56 0.8
-3 -1 -5 24.8 1.93
-3 1 -5 26.87 1.86
3 -1 5 27.9 2.29
3 -1 5 27.09 2.16
3 1 5 29.56 2.34
3 1 5 27.27 1.95
-3 -1 -6 1.64 0.87
-3 1 -6 2.17 0.91
3 -1 6 10.29 2.03
3 -1 6 9.54 1.79
3 1 6 9.15 1.89
3 1 6 7.62 1.63
-3 -1 -7 4.13 1.26
-3 1 -7 3.71 1.18
3 -1 7 4.44 1.59
3 -1 7 3.83 1.4
3 1 7 3.35 1.4
3 1 7 3.8 1.37
-3 -1 -8 8.16 1.96
-3 1 -8 7.67 1.86
3 -1 8 6.79 2.18
3 -1 8 5.26 1.54
3 1 8 7 1.97
3 1 8 7.62 1.95
-3 -1 -9 18.13 2.51
-3 1 -9 20.41 2.53
3 -1 9 28.49 2.77
3 -1 9 25.29 2.78
3 1 9 25.12 2.6
3 1 9 23.49 2.61
-3 -1 -10 2.77 1.64
-3 1 -10 1.55 1.55
3 -1 10 4.61 1.81
3 -1 10 3.6 1.54
3 1 10 6.37 2.02
3 1 10 4.58 1.69
-3 -1 -11 8.73 2.58
-3 1 -11 4.52 1.87
3 -1 11 7.08 2.13
3 -1 11 6.71 2
3 1 11 10.62 2.71
3 1 11 8.89 2.52
-3 -1 -12 8.33 2.72
-3 1 -12 4.58 1.92
-3 1 -12 14.58 2.75
3 -1 12 7.52 2.15
3 1 12 12.82 2.82
3 1 12 5.73 2.02
-3 -1 -13 16.11 3.27
-3 1 -13 12.12 3.09
3 -1 13 15.44 3.11
3 1 13 16.59 3.16
-3 -1 -14 1.64 1.96
-3 1 -14 2.78 2.04
3 -1 14 1.56 1.76
3 1 14 2.83 1.92
-3 -1 -15 1.63 2.15
-3 1 -15 1.55 2.07
3 -1 15 4.1 2.22
3 1 15 5.65 2.44
-3 -2 15 1.71 1.99
-3 2 15 3.78 2.35
3 -2 -15 1.46 1.9
3 -2 -15 1.35 1.83
3 2 -15 1.98 1.99
-3 -2 14 11.28 2.92
-3 -2 14 12.37 3.34
-3 2 14 5.59 2.32
3 -2 -14 5.99 2.19
3 -2 -14 8.17 2.46
3 2 -14 6.03 2.37
-3 -2 13 2.29 1.74
-3 -2 13 2.24 1.77
-3 2 13 1.76 1.76
3 -2 -13 0.04 1.48
3 -2 -13 3.57 1.87
3 2 -13 1.25 1.63
-3 -2 12 2.82 1.71
-3 -2 12 4.11 1.87
-3 2 12 1.97 1.81
3 -2 -12 1.85 1.64
3 -2 -12 1.67 1.68
3 2 -12 2.29 1.57
-3 -2 11 62.14 3.79
-3 -2 11 63.83 3.91
-3 2 11 62.65 4.27
3 -2 -11 61.74 3.89
3 -2 -11 60.06 3.78
3 2 -11 59.37 3.97
-3 -2 10 25.52 2.76
-3 -2 10 22.75 2.64
-3 2 10 22.91 2.88
3 -2 -10 25.78 2.79
3 -2 -10 21.79 2.58
3 2 -10 22.17 2.8
-3 -2 9 18.58 2.4
-3 -2 9 18.52 2.24
-3 2 9 17.31 2.5
3 -2 -9 15.49 2.33
3 -2 -9 17.41 2.24
3 2 -9 20.39 2.51
-3 -2 8 65.18 3.38
-3 -2 8 64.91 3.15
-3 2 8 63.05 3.43
3 -2 -8 54.2 3.16
3 -2 -8 51.62 2.88
3 2 -8 59.21 3.33
-3 -2 7 77.69 3.46
-3 -2 7 68.11 2.88
-3 2 7 25.16 2.3
3 -2 -7 54.17 3.01
3 -2 -7 50.12 2.64
3 2 -7 51.16 3
3 2 -7 82.94 2.15
-3 -2 6 11.5 1.83
-3 -2 6 7.59 1.4
-3 2 6 8.45 1.6
3 -2 -6 7.31 1.72
3 -2 -6 8.72 1.46
3 2 -6 7.85 1.69
3 2 -6 11.25 1.26
-3 -2 5 43.49 2.42
-3 -2 5 44.98 2.03
-3 2 5 38.63 1.51
-3 2 5 37.28 2.34
3 -2 -5 42.22 2.53
3 -2 -5 40.42 2.1
3 2 -5 41.42 2.45
3 2 -5 44.37 1.82
-3 -2 4 2.64 1.03
-3 -2 4 4.66 1.01
-3 2 4 2.53 0.86
-3 2 4 2.01 0.92
3 -2 -4 1.57 1.04
3 -2 -4 2.35 0.86
3 2 -4 2.31 0.94
3 2 -4 2.9 1.01
-3 -2 3 16.87 1.63
-3 -2 3 16.5 1.11
-3 2 3 10.25 1.25
-3 2 3 7.93 1.4
3 -2 -3 15.82 1.75
3 -2 -3 9.19 1.16
3 2 -3 9.57 1.47
3 2 -3 22.18 1.72
-3 -2 2 205.81 4.13
-3 -2 2 205.39 2.35
-3 2 2 178.39 3.22
3 -2 -2 170.72 3.76
3 -2 -2 159.9 2.7
3 -2 -2 157.25 3.61
3 2 -2 156.01 3.63
3 2 -2 239.55 3.99
-3 -2 1 57.64 2.28
-3 -2 1 53.99 1.02
-3 2 1 57.69 2.13
3 -2 -1 52.81 2.22
3 -2 -1 54.67 1.5
3 -2 -1 53.13 2.17
3 2 -1 49.31 2.08
3 2 -1 56.51 2.36
-3 -2 0 0.22 0.69
-3 2 0 -0.2 0.85
3 -2 0 -0.08 0.76
3 -2 0 0.08 0.38
3 -2 0 0.76 0.65
3 2 0 0.74 0.57
3 2 0 0.38 1.13
3 2 0 0.11 0.28
-3 -2 -1 0.42 0.64
-3 2 -1 0.28 0.41
3 -2 1 0.69 0.8
3 2 1 -0.06 0.66
3 2 1 43.75 2.31
3 2 1 -0.11 0.37
-3 -2 -2 82.96 2.22
-3 -2 -2 78.14 2.69
-3 2 -2 78.94 2.01
-3 2 -2 216.33 4.39
3 -2 2 218.13 3.23
3 -2 2 245.83 4.77
3 -2 2 79.59 2.76
3 2 2 236.68 4.61
3 2 2 75.69 1.9
-3 -2 -3 12.1 1.11
-3 -2 -3 10.47 1.31
-3 2 -3 12.13 1.16
3 -2 3 20.79 1.23
3 -2 3 21.98 2.25
3 -2 3 11.25 1.64
3 2 3 20.19 2.13
3 2 3 13.81 1.33
-3 -2 -4 1.14 0.57
-3 -2 -4 0.91 0.78
-3 2 -4 1.37 0.7
3 -2 4 3.72 0.82
3 -2 4 3.83 1.55
3 -2 4 2.84 1.13
3 2 4 3.07 1.39
3 2 4 2.34 0.91
-3 -2 -5 5.8 0.88
-3 -2 -5 5.01 1.39
-3 2 -5 7.52 1.29
3 -2 5 40.52 1.28
3 -2 5 40.35 2.75
3 -2 5 38.56 2.51
3 2 5 41.82 2.67
3 2 5 41.17 2.29
-3 -2 -6 2.17 0.64
-3 -2 -6 3.04 1.11
-3 2 -6 2.31 0.98
3 -2 6 8.73 0.8
3 -2 6 7.77 2.09
3 -2 6 9.24 1.86
3 2 6 9.79 2.04
3 2 6 7.85 1.62
-3 -2 -7 64.6 1.8
-3 -2 -7 63.95 3.23
-3 2 -7 69.47 3.12
-3 2 -7 75.94 3.52
3 -2 7 82.72 3.66
3 -2 7 84.95 3.72
3 2 7 86.58 3.56
3 2 7 84.7 3.49
-3 -2 -8 30.33 2.66
-3 2 -8 49.92 3.01
-3 2 -8 67.82 3.49
3 -2 8 67.56 3.6
3 2 8 71.23 3.43
3 2 8 61.1 3.37
-3 -2 -9 0.19 1.12
-3 2 -9 2.62 1.34
-3 2 -9 19.4 2.7
3 -2 9 13.98 2.38
3 2 9 19.52 2.61
3 2 9 14.46 2.36
-3 -2 -10 3.48 1.63
-3 2 -10 22.83 2.9
3 -2 10 19.35 2.71
3 2 10 21.99 2.81
3 2 10 21.21 2.73
-3 2 -11 66.57 4.05
3 2 11 62.6 3.85
3 2 11 49.05 3.8
-3 -2 -12 0.99 1.72
-3 2 -12 0.34 1.74
-3 2 -12 3.72 2.2
3 -2 12 2.68 1.79
3 2 12 2.56 2.07
3 2 12 2.73 1.87
-3 -2 -13 1.27 1.73
-3 2 -13 0.74 1.95
3 -2 13 3.97 2.08
3 2 13 5.66 2.12
-3 -2 -14 4.31 2.25
-3 2 -14 9.71 3.06
3 -2 14 5.59 2.16
3 2 14 11.04 3.25
-3 -2 -15 5.15 2.49
-3 2 -15 4.21 2.44
3 -2 15 3.3 2.09
3 2 15 2.09 2.15
-3 -3 15 0.27 1.81
-3 3 15 0.83 2.13
3 -3 -15 -0.08 1.78
3 -3 -15 -1.25 1.63
3 3 -15 -0.17 1.89
-3 -3 14 7.83 2.38
-3 -3 14 6.8 2.27
-3 3 14 4.31 2.33
3 -3 -14 5.79 2.3
3 -3 -14 5.26 2.18
3 3 -14 5.97 2.43
-3 -3 13 1.56 1.61
-3 -3 13 1.01 1.72
-3 3 13 -1.28 1.64
3 -3 -13 0.63 1.73
3 -3 -13 -1.03 1.46
3 3 -13 4.05 2.06
-3 -3 12 2.78 1.72
-3 -3 12 3.3 1.82
-3 3 12 2.81 1.94
3 -3 -12 3.54 1.87
3 -3 -12 3.89 1.8
3 3 -12 3.17 1.85
-3 -3 11 10.33 2.52
-3 -3 11 12.6 2.63
-3 3 11 17.44 3.05
3 -3 -11 14.1 2.7
3 -3 -11 8.88 2.45
3 3 -11 12.34 2.68
-3 -3 10 0.87 1.42
-3 -3 10 1.26 1.39
-3 3 10 1.06 1.49
3 -3 -10 1.25 1.51
3 -3 -10 0.62 1.31
3 3 -10 1.02 1.51
-3 -3 9 36.52 3.02
-3 -3 9 42.69 2.93
-3 3 9 34.75 3.14
3 -3 -9 21.81 2.45
3 -3 -9 27.41 2.52
3 3 -9 33.75 3.02
-3 -3 8 0.88 1.13
-3 -3 8 0.34 1.02
-3 3 8 -0.26 1.14
3 -3 -8 -0.21 1.22
3 -3 -8 0.39 1.02
3 3 -8 1.53 1.32
-3 -3 7 76.58 3.6
-3 -3 7 75.59 3
-3 3 7 58.66 3.21
3 -3 -7 71.23 3.51
3 -3 -7 66.04 2.95
3 3 -7 66.37 3.4
3 3 -7 76.29 2.64
-3 -3 6 27.11 2.37
-3 -3 6 25.89 1.87
-3 3 6 21.88 1.45
-3 3 6 17.5 2.12
3 -3 -6 21.48 2.24
3 -3 -6 21.26 1.81
3 3 -6 22.82 2.23
3 3 -6 28.07 1.9
-3 -3 5 8.34 1.75
-3 -3 5 8.87 1.28
-3 3 5 6.72 1.44
-3 3 5 1.66 0.91
3 -3 -5 5.4 1.66
3 -3 -5 5.49 1.19
3 3 -5 3.14 1.17
3 3 -5 9.7 1.59
-3 -3 4 12.95 1.82
-3 -3 4 15.5 1.23
-3 3 4 13.63 1.63
-3 3 4 16.25 1.78
3 -3 -4 16.47 1.96
3 -3 -4 14.45 1.29
3 3 -4 13.52 1.7
3 3 -4 13.57 1.67
-3 -3 3 34.01 2.16
-3 -3 3 53.8 1.5
-3 3 3 31.74 1.86
3 -3 -3 30.49 2.09
3 -3 -3 27.2 1.36
3 -3 -3 26.02 1.93
3 3 -3 27.14 1.88
3 3 -3 60.37 2.54
-3 -3 2 33.15 2.14
-3 3 2 62.69 2.42
3 -3 -2 32.87 2.04
3 -3 -2 34.66 1.24
3 -3 -2 31.04 1.99
3 3 -2 30.21 1.96
3 3 -2 60.18 2.63
-3 -3 1 22.26 1.85
-3 3 1 39.48 2.1
3 -3 -1 67.07 2.65
3 -3 -1 20.98 1.73
3 3 -1 21.88 1.73
3 3 -1 80.04 2.96
-3 -3 0 10.4 1.46
-3 3 0 8.92 0.64
-3 3 0 16.55 1.87
3 -3 0 9.88 1.47
3 -3 0 8.48 1.35
3 3 0 7.75 1.26
3 3 0 19.74 2.01
-3 -3 -1 56.65 2.31
-3 3 -1 57.39 1.37
-3 3 -1 77.39 2.98
3 -3 1 71.03 2.46
3 -3 1 56.02 2.52
3 3 1 51.54 2.29
3 3 1 77.75 3.08
-3 -3 -2 32.14 1.83
-3 -3 -2 27.66 1.82
-3 3 -2 31.83 1.27
-3 3 -2 61.29 2.87
3 -3 2 48.22 2
3 -3 2 27.8 2.05
3 3 2 60.52 2.91
3 3 2 42.98 1.46
-3 -3 -3 35.96 1.82
-3 -3 -3 35.63 2.14
-3 3 -3 38.29 1.6
-3 3 -3 65.53 3.08
3 -3 3 57.79 2.13
3 -3 3 40.1 2.39
3 3 3 63.3 3.05
3 3 3 63.54 2
-3 -3 -4 -0.03 0.58
-3 -3 -4 0.13 0.78
-3 3 -4 13.63 2.19
3 -3 4 11.5 1.25
3 -3 4 10.83 1.82
3 3 4 8.42 1.9
3 3 4 11.95 1.4
-3 -3 -5 6.22 1.07
-3 -3 -5 6.52 1.35
-3 3 -5 7.11 1.33
-3 3 -5 9.97 2.08
3 -3 5 9.39 1.12
3 -3 5 8.88 1.97
3 3 5 10.75 1.97
3 3 5 7.06 1.48
-3 -3 -6 12.23 1.31
-3 -3 -6 10.07 1.79
-3 3 -6 15.56 1.75
-3 3 -6 28.17 2.62
3 -3 6 26.17 1.47
3 -3 6 28.36 2.64
3 3 6 24.81 2.47
3 3 6 23.47 2.03
-3 -3 -7 18.7 1.53
-3 -3 -7 19.65 2.28
-3 3 -7 41.3 2.62
-3 3 -7 67.53 3.62
3 -3 7 68.6 3.56
3 3 7 73.67 3.51
3 3 7 64.84 3.1
-3 -3 -8 0.08 1.16
-3 3 -8 0.28 1.22
-3 3 -8 0.33 1.62
3 -3 8 -0.56 1.25
3 3 8 0.18 1.51
3 3 8 0.64 1.21
-3 -3 -9 29.22 2.93
-3 3 -9 34.26 2.9
-3 3 -9 39.94 3.37
3 -3 9 39.26 3.32
3 3 9 41.87 3.09
3 3 9 41.93 3.23
-3 -3 -10 1.3 1.41
-3 3 -10 1.29 1.57
-3 3 -10 1.85 1.8
3 -3 10 0.25 1.56
3 3 10 1.43 1.67
3 3 10 0.34 1.36
-3 -3 -11 11.96 2.81
-3 3 -11 11.85 2.66
-3 3 -11 18.02 2.91
3 -3 11 13.04 2.88
3 3 11 16.92 2.82
3 3 11 13.37 2.85
-3 -3 -12 1.76 1.79
-3 3 -12 1.03 1.71
-3 3 -12 1.74 2
3 -3 12 2.87 1.82
3 3 12 1.3 1.86
3 3 12 0.95 1.62
-3 -3 -13 0.64 1.87
-3 3 -13 1.79 1.84
3 -3 13 -0.92 1.53
3 3 13 -0.13 1.74
-3 -3 -14 0.3 1.9
-3 3 -14 2.7 2.08
3 -3 14 3.02 2.01
3 3 14 4.3 2.19
-3 -3 -15 1.89 2.25
-3 3 -15 -0.55 1.95
3 -3 15 3.2 2.18
3 3 15 1.17 2.16
-3 -4 15 1.34 1.88
-3 4 15 1.55 2.39
3 -4 -15 3.51 2.15
3 4 -15 0.82 1.98
-3 -4 14 6.24 2.36
-3 -4 14 6.33 2.22
-3 4 14 4.51 2.43
3 -4 -14 7.61 2.54
3 -4 -14 5.18 2.08
3 4 -14 3.3 2.24
-3 -4 13 9.63 2.78
-3 -4 13 4.37 1.98
-3 4 13 5.58 2.48
3 -4 -13 7.77 2.44
3 -4 -13 5.5 2.07
3 4 -13 5.53 2.29
-3 -4 12 -0.92 1.51
-3 -4 12 1.13 1.6
-3 4 12 -0.53 1.8
3 -4 -12 1.04 1.7
3 -4 -12 -0.05 1.41
3 4 -12 0.37 1.65
-3 -4 11 32.66 3.34
-3 -4 11 32.07 3.15
-3 4 11 28.16 3.5
3 -4 -11 32.93 3.38
3 -4 -11 18.06 2.55
3 4 -11 23.98 3.17
-3 -4 10 17.26 2.75
-3 -4 10 17.28 2.5
-3 4 10 16.24 2.83
3 -4 -10 12.76 2.63
3 -4 -10 9.32 2.2
3 4 -10 10.72 2.51
-3 -4 9 9.3 2.42
-3 -4 9 6.24 2.06
-3 4 9 6.51 1.85
3 -4 -9 4.75 1.81
3 -4 -9 5.03 1.52
3 4 -9 5.68 1.87
-3 -4 8 18.11 2.55
-3 -4 8 22.75 2.29
-3 4 8 21.79 2.62
3 -4 -8 21.01 2.65
3 -4 -8 20.85 2.14
3 4 -8 24.06 2.65
3 4 -8 22.43 2.27
-3 -4 7 27.88 2.74
-3 -4 7 26.93 2.15
-3 4 7 24.7 2.53
3 -4 -7 28.24 2.74
3 -4 -7 28.25 2.14
3 4 -7 26.2 2.56
3 4 -7 28.9 2.35
-3 -4 6 8.27 2.04
-3 -4 6 9.56 1.56
-3 4 6 10.07 1.69
-3 4 6 1.92 1.09
3 -4 -6 1.72 1.24
3 -4 -6 5.49 1.3
3 4 -6 3.86 1.37
3 4 -6 8.18 1.93
-3 -4 5 0.01 1.1
-3 -4 5 0.69 0.69
-3 4 5 0.23 1.23
-3 4 5 -0.22 0.9
3 -4 -5 0.35 1.06
3 -4 -5 -0.14 0.74
3 4 -5 0.87 1.04
3 4 -5 1.95 1.25
-3 -4 4 5.6 1.53
-3 -4 4 6.32 1.01
-3 4 4 4.69 1.46
-3 4 4 2.26 1.09
3 -4 -4 2.35 1.15
3 -4 -4 3.58 0.95
3 4 -4 2.51 1.05
3 4 -4 6.97 1.71
-3 -4 3 97.71 3.65
-3 -4 3 105.31 1.82
-3 4 3 116.88 3.58
3 -4 -3 54.57 2.85
3 -4 -3 39.43 1.37
3 -4 -3 36.92 2.31
3 4 -3 33.64 2.2
3 4 -3 113.84 3.65
-3 -4 2 102.15 3.62
-3 4 2 112.72 3.55
3 -4 -2 75.5 3.08
3 -4 -2 71.6 1.25
3 -4 -2 75.58 3.06
3 4 -2 72.27 2.88
3 4 -2 107.56 3.58
-3 -4 1 5.93 1.61
-3 4 1 33.6 2.47
3 -4 -1 3.33 1.12
3 -4 -1 3.31 1.03
3 4 -1 4.33 1.27
3 4 -1 36.04 2.53
-3 -4 0 1.57 1
-3 4 0 2.72 1.28
3 -4 0 3.17 1.14
3 -4 0 0.39 0.83
3 4 0 0.86 0.83
3 4 0 2.43 1.4
-3 -4 -1 36.94 2.21
-3 4 -1 40.66 2.61
3 -4 1 39.13 2.22
3 -4 1 34.55 2.26
3 4 1 35.7 2.07
3 4 1 41.21 2.67
-3 -4 -2 38.71 2.18
-3 -4 -2 38.64 2.25
-3 4 -2 52.98 1.43
-3 4 -2 105.78 3.73
3 -4 2 100.96 3.15
3 -4 2 52.69 2.76
3 4 2 105.52 3.85
-3 -4 -3 81.61 2.91
-3 -4 -3 77.41 3.06
-3 4 -3 97.3 2.28
-3 4 -3 117.37 4.11
3 -4 3 112.22 3.2
3 -4 3 85.11 3.4
3 4 3 118.22 4.09
3 4 3 104.5 2.46
-3 -4 -4 4.73 1.29
-3 -4 -4 4.76 1.27
-3 4 -4 5.44 1.23
-3 4 -4 7.04 2.2
3 -4 4 5.62 1.34
3 -4 4 5.63 1.8
3 4 4 7.58 2.12
3 4 4 5.71 1.26
-3 -4 -5 0.39 0.8
-3 -4 -5 1.1 0.97
-3 4 -5 0.52 0.88
-3 4 -5 0.65 1.43
3 -4 5 1.24 0.91
3 -4 5 1.91 1.26
3 4 5 2.01 1.6
3 4 5 1.91 0.98
-3 -4 -6 5.88 1.37
-3 -4 -6 6.3 1.72
-3 4 -6 9.45 1.65
-3 4 -6 9.05 2.12
3 -4 6 9.22 1.42
3 -4 6 10.19 2.14
3 4 6 8.37 2.25
3 4 6 7.76 1.73
-3 -4 -7 1.91 1.06
-3 4 -7 28.74 3.03
3 -4 7 22.48 2.66
3 4 7 20.41 2.64
3 4 7 19.9 2.21
-3 -4 -8 4.24 1.21
-3 4 -8 10.81 2.21
-3 4 -8 20.84 2.88
3 -4 8 23.72 2.86
3 4 8 17.27 2.55
3 4 8 16.58 2.35
-3 -4 -9 -0.11 1.2
-3 4 -9 3.24 1.49
-3 4 -9 5.31 2.02
3 -4 9 3.26 1.65
3 4 9 4.62 1.84
3 4 9 1.46 1.46
-3 -4 -10 13.14 2.73
-3 4 -10 14.68 2.73
-3 4 -10 16.09 3.12
3 -4 10 17.34 2.92
3 4 10 18.75 2.87
3 4 10 16.81 2.74
-3 -4 -11 24.86 3.32
-3 4 -11 29.02 3.33
-3 4 -11 31.61 3.77
3 -4 11 30.26 3.51
3 4 11 37.24 3.56
3 4 11 30.34 3.35
-3 -4 -12 0.57 1.82
-3 4 -12 2.64 1.85
-3 4 -12 0.54 2.18
3 -4 12 0.01 1.62
3 4 12 2.18 2.09
3 4 12 -0.42 1.62
-3 -4 -13 0.91 1.95
-3 4 -13 4.71 2.04
3 -4 13 2.57 1.91
3 4 13 3.14 1.85
-3 -4 -14 1.33 2.05
-3 4 -14 2.5 2.06
3 -4 14 3.07 1.98
3 4 14 3.28 2
-3 -5 14 3.14 2.03
-3 5 14 4.13 2.47
3 -5 -14 6.59 2.52
3 5 -14 3.79 2.18
-3 -5 13 0.8 1.83
-3 5 13 2.34 2.24
3 -5 -13 0.29 1.87
3 -5 -13 1.95 1.78
3 5 -13 1.53 1.93
-3 -5 12 4.59 2.09
-3 5 12 3.25 2.16
3 -5 -12 4.18 2.17
3 -5 -12 5.97 1.92
3 5 -12 6.15 2.22
-3 -5 11 0.33 1.54
-3 5 11 -1.1 1.58
3 -5 -11 1.47 1.77
3 -5 -11 0.7 1.4
3 5 -11 0.85 1.58
-3 -5 10 12.47 2.77
-3 5 10 7.84 2.17
3 -5 -10 14.67 2.85
3 -5 -10 12.96 2.28
3 5 -10 14.01 2.71
-3 -5 9 11.57 2.17
-3 5 9 13.4 2.88
-3 -5 8 -0.62 1.38
-3 -5 8 0.11 1.05
-3 5 8 0.9 1.34
3 -5 -8 1 1.56
3 -5 -8 0.53 1.07
3 5 -8 0 1.21
3 5 -8 1.48 1.37
-3 -5 7 1.85 1.55
-3 -5 7 1.41 1.04
-3 5 7 1.63 1.25
3 -5 -7 1.48 1.4
3 -5 -7 1.49 1.06
3 5 -7 -0.15 1.26
3 5 -7 1.18 1.37
-3 -5 6 18.68 2.62
-3 -5 6 18.71 1.72
-3 5 6 17.87 2.33
-3 5 6 2.84 1.34
3 -5 -6 9.25 2.22
3 -5 -6 12.04 1.57
3 5 -6 3.05 1.33
3 5 -6 19.48 2.36
-3 -5 5 18.21 2.51
-3 -5 5 17.65 1.54
-3 5 5 17.48 2.38
-3 5 5 4.46 1.39
3 -5 -5 8.51 2.1
3 -5 -5 10.55 1.33
3 5 -5 6.04 1.72
3 5 -5 19.3 2.45
-3 -5 4 6.51 2.04
-3 5 4 5.56 1.89
-3 5 4 2.43 1.18
3 -5 -4 1.5 1.24
3 5 -4 1.66 1.05
3 5 -4 3.92 1.52
-3 -5 3 75.27 3.59
-3 5 3 76.36 3.52
3 -5 -3 63.71 3.3
3 -5 -3 55.76 2.95
3 5 -3 56.16 2.83
3 5 -3 73.08 3.42
-3 -5 2 6.44 1.96
-3 5 2 9.63 2.17
3 -5 -2 5.98 1.6
3 -5 -2 6.3 1.53
3 5 -2 6.37 1.43
3 5 -2 6.77 1.9
-3 -5 1 6.34 1.84
-3 5 1 7.17 2.36
3 -5 -1 7.29 1.6
3 -5 -1 7.41 1.51
3 5 -1 6.14 1.38
3 5 -1 4.22 1.55
-3 -5 0 1.78 1.18
-3 5 0 2.44 1.66
3 -5 0 1.56 1.24
3 -5 0 1.38 0.9
3 5 0 1.41 0.89
3 5 0 0.42 1.38
-3 -5 -1 0.59 0.92
3 -5 1 3.3 1.23
3 -5 1 0.7 0.96
3 5 1 0.18 0.8
3 5 1 7.66 2.25
-3 -5 -2 0.06 0.95
-3 -5 -2 -0.22 0.77
-3 5 -2 7.83 2.45
3 -5 2 2.25 1.18
3 -5 2 0.25 0.9
3 5 2 5.12 1.85
-3 -5 -3 17.31 1.92
-3 -5 -3 16.21 1.94
-3 5 -3 30.51 1.32
-3 5 -3 69.4 3.75
3 -5 3 61.31 2.83
3 -5 3 41.68 2.85
3 5 3 75.11 3.77
3 5 3 61.19 2.04
-3 -5 -4 4.3 1.29
-3 -5 -4 4.22 1.23
-3 5 -4 5.57 1.14
-3 5 -4 4.98 1.89
3 -5 4 5.78 1.67
3 -5 4 3.41 1.37
3 5 4 6.23 1.95
3 5 4 7.91 1.37
-3 -5 -5 16.35 1.85
-3 -5 -5 15.06 1.99
-3 5 -5 17.52 1.63
-3 5 -5 23.2 3.03
3 -5 5 17.73 1.96
3 -5 5 15.65 2.37
3 5 5 18.59 2.79
3 5 5 19.64 1.87
-3 -5 -6 16.19 1.89
-3 -5 -6 18.87 2.26
-3 5 -6 20.86 1.96
-3 5 -6 15.38 2.99
3 -5 6 21.72 2.13
3 -5 6 18.48 2.71
3 5 6 19.97 2.86
3 5 6 22.59 2.19
-3 -5 -7 0.61 1.12
-3 -5 -7 2.45 1.4
-3 5 -7 0.71 1.16
-3 5 -7 1.72 1.85
3 -5 7 2.41 1.21
3 -5 7 2.46 1.55
3 5 7 2.06 1.69
3 5 7 2.47 1.25
-3 -5 -8 0.65 1.14
-3 -5 -8 -0.1 1.29
-3 5 -8 1.53 1.35
-3 5 -8 0.77 1.85
3 -5 8 -0.41 1.57
3 5 8 -0.96 1.47
3 5 8 0.45 1.29
-3 -5 -9 15.5 2.75
-3 5 -9 17.72 2.5
-3 5 -9 20.14 3.57
3 -5 9 18.89 2.93
3 5 9 13.55 2.73
3 5 9 20.09 2.66
-3 -5 -10 11.63 2.76
-3 5 -10 12.31 2.55
-3 5 -10 16.63 3.44
3 -5 10 14.97 2.93
3 5 10 15.2 2.85
3 5 10 14.11 2.69
-3 -5 -11 1.1 1.76
-3 5 -11 -1.32 1.52
-3 5 -11 -0.57 2.2
3 -5 11 0.57 1.7
3 5 11 0.06 1.82
3 5 11 0.67 1.64
-3 -5 -12 2.83 2.12
-3 5 -12 4.65 2.08
-3 5 -12 2.32 2.53
3 -5 12 5 2.1
3 5 12 3.36 1.87
-3 -5 -13 2.01 2.18
-3 5 -13 1.93 2.05
-3 5 -13 1.87 2.79
3 -5 13 1.32 1.92
3 5 13 2.06 1.89
-3 -5 -14 3.05 2.35
-3 5 -14 6.04 2.38
3 -5 14 5.44 2.4
3 5 14 3.71 2.1
-3 -6 13 0.45 1.92
-3 6 13 3.76 2.42
3 -6 -13 0.55 1.99
3 6 -13 2.67 2.01
-3 -6 12 1.1 1.96
-3 6 12 0.97 2.01
3 -6 -12 4.94 2.27
3 6 -12 3.91 2.11
-3 -6 11 1.24 1.86
-3 6 11 2.52 2.07
3 -6 -11 2.97 2.06
3 6 -11 2.71 1.85
-3 -6 10 2.07 1.77
-3 6 10 2.31 1.8
3 -6 -10 -0.46 1.62
3 6 -10 2.63 1.75
-3 -6 9 1.75 1.81
-3 6 9 1.27 1.55
3 -6 -9 1.46 1.73
3 6 -9 1.39 1.52
-3 -6 8 1.03 1.65
-3 6 8 2.56 1.55
3 -6 -8 1.58 1.71
3 6 -8 0.79 1.38
3 6 -8 1.56 1.51
-3 -6 7 0.07 1.49
-3 6 7 1.04 1.32
3 -6 -7 0.71 1.45
3 6 -7 0.28 1.26
3 6 -7 2.26 1.63
-3 -6 6 16.84 2.82
-3 6 6 15.96 2.71
-3 6 6 18.23 2.47
3 -6 -6 17.37 2.48
3 6 -6 17.42 2.35
3 6 -6 15.34 2.49
-3 -6 5 52.05 3.48
-3 6 5 68.72 3.78
-3 6 5 31.13 2.79
3 -6 -5 29.96 2.81
3 6 -5 47.78 3.05
3 6 -5 67.49 3.79
-3 -6 4 4.41 1.81
-3 6 4 6.41 2.23
-3 6 4 5.01 1.45
3 -6 -4 4.72 1.61
3 6 -4 3.93 1.32
3 6 -4 5.61 1.92
-3 -6 3 5.92 1.84
-3 6 3 10.42 2.76
3 -6 -3 4.25 1.55
3 -6 -3 3.89 1.31
3 6 -3 4.4 1.34
3 6 -3 7.93 2.39
-3 -6 2 1.41 1.42
-3 6 2 4.15 2.14
3 -6 -2 0.67 1.35
3 -6 -2 1.52 1.17
3 6 -2 1.98 1.04
3 6 -2 -0.24 1.51
-3 -6 1 20.94 2.53
-3 6 1 21.71 3.24
3 -6 -1 18.02 2.38
3 -6 -1 16.65 2.02
3 6 -1 13.1 1.76
3 6 -1 17.32 2.49
-3 -6 0 1.12 1.31
-3 6 0 1.33 2.11
3 -6 0 -0.85 1.2
3 -6 0 -0.4 0.9
3 6 0 -0.07 0.88
3 6 0 -0.31 1.53
-3 -6 -1 6.67 1.98
-3 6 -1 20.5 3.37
3 -6 1 13.82 2.18
3 -6 1 6.67 1.94
3 6 1 3.12 1.15
3 6 1 18.46 2.65
-3 -6 -2 0.56 1.21
-3 -6 -2 0.11 0.92
-3 6 -2 1.03 1.97
3 -6 2 1.82 1.37
3 -6 2 1.03 1.2
3 6 2 1.06 1.66
-3 -6 -3 4.36 1.55
-3 -6 -3 4.57 1.35
-3 6 -3 7.56 2.52
3 -6 3 8.38 1.95
3 -6 3 3.52 1.5
3 6 3 9.9 2.74
-3 -6 -4 0.34 1.19
-3 -6 -4 0.32 1
-3 6 -4 10.84 3.05
3 -6 4 3.8 1.47
3 -6 4 2.24 1.39
3 6 4 6.46 2.27
-3 -6 -5 45.49 3.06
-3 -6 -5 45.84 3.08
-3 6 -5 66.62 4.35
3 -6 5 69.37 3.33
3 -6 5 63.87 3.75
3 6 5 69.19 4.09
-3 -6 -6 1.47 1.39
-3 -6 -6 1.32 1.33
-3 6 -6 16.96 3.6
3 -6 6 16.09 2.23
3 -6 6 13.76 2.56
3 6 6 15.9 3.07
3 6 6 11.51 2
-3 -6 -7 2.52 1.41
-3 -6 -7 2.8 1.54
-3 6 -7 3.34 2.56
3 -6 7 2.61 1.39
3 -6 7 4.63 1.9
3 6 7 3.58 2.09
3 6 7 2.27 1.32
-3 -6 -8 1.52 1.39
-3 -6 -8 1.2 1.56
-3 6 -8 0.05 2.35
3 -6 8 2.89 1.75
3 6 8 1.39 1.83
3 6 8 2.66 1.42
-3 -6 -9 6.24 2.03
-3 6 -9 5.22 2.73
3 -6 9 4.84 1.97
3 6 9 6.56 2.23
3 6 9 4.41 1.67
-3 -6 -10 2.28 1.81
-3 6 -10 4.99 2.91
3 -6 10 3.85 2.01
3 6 10 3.62 2.02
3 6 10 3.28 1.75
-3 -6 -11 3.02 1.97
-3 6 -11 3.58 2.84
3 -6 11 1.54 1.82
3 6 11 2.94 2.09
3 6 11 1.17 1.7
-3 -6 -12 0.65 1.94
-3 6 -12 1.17 3
3 -6 12 1.03 1.84
3 6 12 3.58 1.96
-3 -6 -13 1.02 2.21
-3 6 -13 -3.61 3.02
3 -6 13 1.15 1.89
3 6 13 3.29 2.03
-3 -7 12 1.76 2.07
-3 7 12 0.33 2.1
3 -7 -12 1.9 2.22
3 7 -12 1.57 2.03
-3 -7 11 0.32 1.88
-3 7 11 2.74 2.12
3 -7 -11 2.49 2.22
3 7 -11 0.86 1.86
-3 -7 10 26.44 3.64
-3 7 10 21.35 3.65
3 -7 -10 17.52 3.45
3 7 -10 18.82 3.1
-3 -7 9 1.7 1.71
-3 7 9 1.24 1.62
3 -7 -9 2.42 1.98
3 7 -9 -0.16 1.41
-3 -7 8 2.52 1.93
-3 7 8 0.29 1.34
3 -7 -8 0.79 1.62
3 7 -8 1.46 1.47
3 7 -8 9.69 2.74
-3 -7 7 2.32 1.91
-3 7 7 1.49 1.39
3 -7 -7 1.78 1.81
3 7 -7 1.93 1.52
3 7 -7 4.38 1.8
-3 -7 6 30.65 3.25
-3 7 6 40.32 3.42
-3 7 6 30.17 3.02
3 -7 -6 31.65 3.45
3 7 -6 29.05 2.83
3 7 -6 33.48 3.32
-3 -7 5 12.79 2.91
-3 7 5 14.57 3.13
-3 7 5 6.62 2.09
3 -7 -5 8.5 2.57
3 7 -5 6.74 1.98
3 7 -5 11.97 2.84
-3 -7 4 1.81 1.75
-3 7 4 3.18 2.31
-3 7 4 1.09 1.23
3 -7 -4 1.42 1.61
3 7 -4 0.77 1.22
3 7 -4 4.54 1.99
-3 -7 3 3.17 1.73
-3 7 3 3.21 2.46
-3 7 3 3.87 1.54
3 -7 -3 3.55 1.8
3 7 -3 2.59 1.38
3 7 -3 4.19 2.03
-3 -7 2 2.21 1.56
-3 7 2 5.57 2.48
3 -7 -2 8.59 2.36
3 -7 -2 2.54 1.47
3 7 -2 2.8 1.31
3 7 -2 12.91 2.85
-3 -7 1 9.35 2.51
-3 7 1 22.17 3.78
3 -7 -1 21.31 2.81
3 -7 -1 8.05 2.03
3 7 -1 10.57 1.92
3 7 -1 22.5 2.96
-3 -7 0 3.02 1.7
-3 7 0 5.58 2.7
3 -7 0 4.04 1.79
3 -7 0 3.21 1.43
3 7 0 2.18 1.08
3 7 0 6.34 2.16
-3 -7 -1 11.76 2.49
-3 -7 -1 16.4 2.12
-3 7 -1 24.69 3.75
3 -7 1 19.27 2.44
3 -7 1 22.24 2.63
3 7 1 22.04 3.24
-3 -7 -2 6.98 2.29
-3 -7 -2 6.36 1.74
-3 7 -2 13.65 3.74
3 -7 2 10.15 2.37
3 -7 2 6.32 1.82
3 7 2 9.75 2.91
-3 -7 -3 -0.3 1.37
-3 -7 -3 0.31 1.12
-3 7 -3 2.79 2.56
3 -7 3 0.99 1.46
3 -7 3 1.18 1.36
3 7 3 0.62 1.99
-3 -7 -4 1.57 1.51
-3 -7 -4 2.52 1.41
-3 7 -4 5.5 2.85
3 -7 4 3.82 1.66
3 -7 4 2.99 1.59
3 7 4 4.03 2.38
-3 -7 -5 7.34 2.21
-3 -7 -5 7.59 2.04
-3 7 -5 14.04 3.88
3 -7 5 14.02 2.4
3 -7 5 10.99 2.6
3 7 5 13.05 3.28
-3 -7 -6 9.35 2.31
-3 -7 -6 4.65 1.72
-3 7 -6 32.97 4.74
3 -7 6 25.5 2.83
3 -7 6 23.96 2.95
3 7 6 30.87 3.76
-3 -7 -7 0.5 1.52
-3 -7 -7 -1.08 1.26
-3 7 -7 1.19 2.72
3 -7 7 1.34 1.46
3 -7 7 -1.05 1.5
3 7 7 1.38 2.06
-3 -7 -8 6.7 2
-3 -7 -8 4.05 1.9
-3 7 -8 8.4 3.42
3 -7 8 5.48 2.1
3 7 8 4.78 2.27
-3 -7 -9 1.01 1.64
-3 7 -9 6.12 3.33
3 -7 9 4.23 2.04
3 7 9 3.41 2.16
-3 -7 -10 16.62 3.17
-3 7 -10 18.66 4.89
3 -7 10 24.63 3.71
3 7 10 25.59 3.7
-3 -7 -11 0.02 1.86
-3 7 -11 -0.74 3.32
3 -7 11 0.21 1.83
3 7 11 0.37 2.1
-3 -7 -12 0.16 2
-3 7 -12 -2.39 3.43
3 -7 12 0.65 1.85
-3 -8 11 6.95 2.75
-3 8 11 5.88 2.48
3 -8 -11 2.92 2.34
3 8 -11 8.99 2.9
-3 -8 10 -0.53 2.17
-3 8 10 0.85 1.75
3 -8 -10 -0.15 1.98
3 8 -10 -1.7 1.55
-3 -8 9 1.06 2.18
-3 8 9 2.53 1.87
3 -8 -9 0.68 1.79
3 8 -9 3.32 1.87
-3 -8 8 19.01 3.58
-3 8 8 11.3 2.71
3 -8 -8 18.83 3.54
3 8 -8 17.11 2.99
3 8 -8 21.2 3.36
-3 -8 7 11.55 3.26
-3 8 7 10.45 2.77
3 -8 -7 12.08 2.86
3 8 -7 12.44 2.69
3 8 -7 16 3.14
-3 -8 6 3.24 2.18
-3 8 6 5.44 2.46
-3 8 6 1.82 1.49
3 -8 -6 3.26 2.16
3 8 -6 1.59 1.53
3 8 -6 2.68 1.98
-3 -8 5 15.07 3.24
-3 8 5 21.58 3.63
-3 8 5 9.7 2.38
3 -8 -5 15.16 3.11
3 8 -5 16.19 2.41
3 8 -5 23.76 3.5
-3 -8 4 10.82 3.05
-3 8 4 5.05 2.65
-3 8 4 4.41 1.61
3 -8 -4 3.86 1.98
3 8 -4 3.83 1.53
3 8 -4 9.69 3.15
-3 -8 3 48.45 4.05
-3 8 3 64.24 4.77
-3 8 3 34.61 3.09
3 -8 -3 54.81 4.12
3 8 -3 53.8 3.36
3 8 -3 60.98 4.3
-3 -8 2 21.87 3
-3 8 2 28.78 4.16
3 -8 -2 29.97 3.37
3 -8 -2 26.99 3.03
3 8 -2 28.54 2.61
3 8 -2 28.76 3.66
-3 -8 1 3.95 2
-3 8 1 5.53 2.74
3 -8 -1 3.81 1.82
3 -8 -1 5 1.71
3 8 -1 3.56 1.35
3 8 -1 5.47 2.23
-3 -8 0 1.94 1.67
-3 8 0 1.4 2.45
3 -8 0 0.18 1.65
3 -8 0 1.42 1.43
3 8 0 0.89 1.11
3 8 0 2.49 2.09
-3 -8 -1 2.68 1.66
-3 -8 -1 3.02 1.34
-3 8 -1 3.73 2.83
3 -8 1 1.86 1.8
3 -8 1 1.66 1.49
3 8 1 10.59 3.05
-3 -8 -2 6.76 1.85
-3 8 -2 29.01 4.38
3 -8 2 23.16 3.02
3 -8 2 24.31 3
3 8 2 25.71 3.57
-3 -8 -3 42.36 3.63
-3 -8 -3 30.63 2.81
-3 8 -3 54.45 5.26
3 -8 3 59.34 3.95
3 -8 3 47.48 3.64
3 8 3 59.52 4.66
-3 -8 -4 3.49 1.82
-3 -8 -4 5.15 1.68
-3 8 -4 4.77 3.12
3 -8 4 5.39 2.01
3 -8 4 4.23 1.75
3 8 4 7.03 2.67
-3 -8 -5 16.22 3.02
-3 -8 -5 16.69 2.65
-3 8 -5 15.19 4.68
3 -8 5 17.11 2.84
3 -8 5 18.26 2.98
3 8 5 20.55 3.81
-3 -8 -6 -0.14 1.55
-3 -8 -6 -0.28 1.37
-3 8 -6 -0.78 2.72
3 -8 6 1.58 1.77
3 -8 6 0.87 1.59
3 8 6 1.18 2.21
-3 -8 -7 2.54 1.84
-3 -8 -7 3.9 1.83
-3 8 -7 8.76 3.41
3 -8 7 11.79 3
3 8 7 13.1 3.6
-3 -8 -8 10.2 2.89
-3 8 -8 12.47 3.8
3 -8 8 11.61 2.91
3 8 8 18.7 3.81
-3 -8 -9 2.12 1.89
-3 8 -9 1.02 3.36
3 -8 9 2.87 2.14
3 8 9 3.23 2.4
-3 -8 -10 -0.97 1.71
-3 8 -10 -3.5 3.11
3 -8 10 -0.56 1.81
3 8 10 1.46 2.35
-3 -8 -11 4.38 2.39
-3 8 -11 3.01 3.71
3 -8 11 7.87 2.71
3 8 11 13.82 3.94
-3 -9 9 -2.65 2.05
-3 9 9 -0.54 1.72
3 -9 -9 0.31 2.17
-3 -9 8 -0.33 2.34
-3 9 8 0.8 1.62
3 -9 -8 -1.24 2.01
3 9 -8 4.25 2.41
-3 -9 7 9.25 2.9
-3 9 7 9.04 2.83
3 -9 -7 8.61 2.63
3 9 -7 19.14 3.7
-3 -9 6 12.85 3.62
-3 9 6 28.52 4.18
-3 9 6 8.6 2.75
3 -9 -6 10.72 2.96
3 9 -6 22.61 3.83
-3 -9 5 1.2 2.13
-3 9 5 6.84 2.86
-3 9 5 1.87 1.57
3 -9 -5 0.12 1.92
3 9 -5 3.27 2.36
-3 -9 4 -0.13 1.97
-3 9 4 2.19 2.67
-3 9 4 0.43 1.33
3 -9 -4 1.26 2.07
3 9 -4 0.14 2.05
-3 -9 3 4.24 2.27
-3 9 3 5.44 3.06
-3 9 3 2.36 1.42
3 -9 -3 4.06 2.05
3 9 -3 3.26 2.28
-3 -9 2 -0.94 1.61
-3 9 2 2.99 3.03
-3 9 2 0.2 1.19
3 -9 -2 2.26 2.03
3 9 -2 -0.75 1.98
-3 -9 1 33.49 3.87
-3 9 1 41.67 4.83
3 -9 -1 44.15 4.07
3 -9 -1 35.85 3.54
3 9 -1 39.81 4.34
-3 -9 0 -0.15 1.55
-3 9 0 0.55 2.77
3 -9 0 -0.81 1.78
3 -9 0 -0.49 1.54
3 9 0 3.56 2.42
-3 -9 -1 30.92 3.7
-3 9 -1 40.6 5.05
3 -9 1 43.78 3.97
3 -9 1 28.66 3.2
3 9 1 47.7 4.62
-3 -9 -2 -0.17 1.77
-3 9 -2 0.43 2.7
3 -9 2 0.11 1.71
3 -9 2 0.07 1.58
3 9 2 0.61 2.31
-3 -9 -3 5.45 2.3
-3 9 -3 5.76 3.37
3 -9 3 5.81 2.2
3 -9 3 3.73 1.84
3 9 3 4.59 2.69
-3 -9 -4 2.98 2.07
-3 9 -4 -0.14 3.3
3 -9 4 0.93 1.94
3 -9 4 1.52 1.73
3 9 4 4.04 2.67
-3 -9 -5 2.07 1.92
-3 9 -5 -0.6 3.33
3 -9 5 0.46 1.89
3 -9 5 0.96 1.72
3 9 5 1.11 2.46
-3 -9 -6 12.93 3.05
-3 9 -6 19.55 4.58
3 -9 6 20.78 3.23
3 -9 6 16.23 3.25
3 9 6 22.75 4.2
-3 -9 -7 6.25 2.28
-3 9 -7 6.46 3.71
3 -9 7 5.89 2.19
3 9 7 7.1 2.84
-3 -9 -8 -0.09 1.85
-3 9 -8 -0.22 3.61
3 -9 8 1.65 1.93
3 9 8 2.58 2.55
-3 9 -9 -0.05 3.66
3 -9 9 2.28 2.02
3 9 9 2.46 2.52
-3 -10 7 5.58 2.71
-3 10 7 4.55 1.96
3 -10 -7 5.39 2.59
3 10 -7 19.37 4.16
-3 -10 6 1.62 2.44
-3 10 6 16.38 5.23
-3 10 6 -0.03 1.46
3 -10 -6 -0.55 2.22
3 10 -6 4.52 2.53
-3 -10 5 -0.67 2.13
-3 10 5 6.53 3.38
-3 10 5 0.78 1.53
3 -10 -5 0.45 2.06
3 10 -5 0.11 2.37
-3 -10 4 -0.04 2.21
-3 10 4 4.5 3.12
-3 10 4 -0.25 1.27
3 -10 -4 -0.64 2.02
3 10 -4 2.21 2.42
-3 -10 3 7.73 2.71
-3 10 3 13.27 3.88
-3 10 3 10.95 2.77
3 -10 -3 7.35 2.77
3 10 -3 6.39 2.8
-3 -10 2 1.47 2.23
-3 10 2 2.36 3.19
-3 10 2 -0.55 1.23
3 -10 -2 0.68 2.04
3 10 -2 1.59 2.36
-3 -10 1 2.94 2.17
-3 10 1 1.16 3.2
3 -10 -1 1.22 2.05
3 -10 -1 1.8 1.93
3 10 -1 4.28 2.49
-3 -10 0 -0.68 2.02
-3 10 0 1.86 3.16
3 -10 0 2.39 2.17
3 -10 0 0.4 1.73
3 10 0 0.53 2.37
-3 -10 -1 5.85 2.47
-3 10 -1 3.84 3.32
3 -10 1 4.7 2.46
3 -10 1 4.21 2.07
3 10 1 3.32 2.69
-3 -10 -2 0.98 2.11
-3 10 -2 -2.68 2.98
3 -10 2 0.79 1.95
3 -10 2 0.4 1.74
3 10 2 4.09 2.76
-3 -10 -3 0.11 1.93
-3 10 -3 2.71 3.47
3 -10 3 3.13 2.15
3 10 3 6.92 2.82
-3 -10 -4 0.49 2.02
-3 10 -4 -2.5 3.32
3 -10 4 0.09 1.95
3 -10 4 -1.12 1.79
3 10 4 0.25 2.46
-3 -10 -5 0.81 2.12
-3 10 -5 -3.45 3.48
3 -10 5 3.06 2.26
3 -10 5 2.91 2
3 10 5 4.32 2.71
-3 -10 -6 1.75 2.21
-3 10 -6 2.94 4
3 -10 6 1.57 2.11
3 -10 6 -0.12 1.89
3 10 6 -0.55 2.43
-3 -10 -7 10.77 2.97
-3 10 -7 14.95 5.03
3 -10 7 12.87 3.45
3 10 7 14 4.42
-3 11 4 7.42 3.74
-3 11 4 0.64 1.55
3 11 -4 4.15 2.79
-3 -11 3 2.51 2.48
-3 11 3 7.27 3.62
-3 11 3 1.12 1.55
3 -11 -3 3.1 2.52
3 11 -3 5.18 2.8
-3 -11 2 -0.73 2.22
-3 11 2 2.95 3.46
-3 11 2 -0.19 1.32
3 -11 -2 0.2 2.28
3 11 -2 3.38 2.58
-3 -11 1 3.93 2.5
-3 11 1 2.34 3.65
-3 11 1 0.84 1.54
3 -11 -1 1.78 2.48
3 11 -1 4.28 2.8
-3 -11 0 -0.6 2.09
-3 11 0 2.42 3.64
3 -11 0 -0.35 2.29
3 -11 0 -0.12 1.92
3 11 0 2.97 2.76
-3 -11 -1 -0.74 2.05
-3 11 -1 -1.29 3.64
3 -11 1 -0.4 2.2
3 11 1 3.1 2.67
-3 -11 -2 0.08 2.23
-3 11 -2 1.27 3.68
3 -11 2 1.83 2.4
3 11 2 0.23 2.52
-3 -11 -3 1.89 2.3
-3 11 -3 1.67 3.81
3 -11 3 3.13 2.4
3 11 3 3.95 2.89
-3 11 -4 -2.64 3.63
3 11 4 2.92 2.75
-4 0 15 0.1 1.67
-4 0 15 -1.66 1.76
4 0 -15 -1.16 1.7
-4 0 14 9.26 2.79
-4 0 14 4.28 2.12
4 0 -14 5.6 2.31
4 0 -14 7.12 2.41
-4 0 13 1.49 1.78
4 0 -13 0.5 1.69
4 0 -13 0.8 1.67
-4 0 12 3.66 1.85
4 0 -12 3.14 1.69
4 0 -12 1.95 1.65
-4 0 11 0.67 1.54
4 0 -11 -0.81 1.34
4 0 -11 0.56 1.55
4 0 -10 71.27 3.91
-4 0 9 0.56 1.33
4 0 -9 1.02 1.47
4 0 -9 -0.6 1.29
-4 0 8 0.63 1.08
4 0 -8 1.64 1.39
4 0 -8 -0.34 1.17
-4 0 7 0.77 0.98
4 0 -7 -1.09 1.17
4 0 -7 0.3 1.16
-4 0 6 23.63 1.97
4 0 -6 21.6 2.3
4 0 -6 25.71 2.18
-4 0 5 0.2 0.62
4 0 -5 -0.4 1.09
4 0 -5 0.2 0.86
4 0 -5 -0.21 0.73
-4 0 4 7.11 1.17
4 0 -4 5.93 1.38
-4 0 3 -0.25 0.52
4 0 -3 -0.43 0.97
4 0 -3 -0.31 0.65
4 0 -3 -0.03 0.93
4 0 -2 82.79 2.9
4 0 -2 46.19 2.11
4 0 -2 102.45 2.77
4 0 -2 48.9 1.99
4 0 -1 0.34 0.87
4 0 -1 0.1 0.6
4 0 -1 -0.23 1.19
4 0 -1 0.2 0.53
4 0 0 512.2 5.71
4 0 0 350.82 5.08
4 0 0 750.45 7.49
4 0 0 372.79 4.88
4 0 1 0.07 0.64
4 0 1 -0.56 0.51
4 0 1 -0.35 1.32
4 0 1 0.49 0.77
-4 0 -2 50.96 2.21
4 0 2 57.86 1.78
4 0 2 106.1 3.57
4 0 2 46.87 2.08
-4 0 -3 -0.51 0.36
-4 0 -3 0.17 0.65
4 0 3 1.81 1.49
4 0 3 -0.3 0.71
-4 0 -4 105.59 3.34
4 0 4 111.05 3.83
4 0 4 99.76 3.24
-4 0 -5 -0.53 0.67
4 0 5 1.79 1.56
4 0 5 0.08 1.05
-4 0 -6 2.37 1.07
4 0 6 25.95 2.74
4 0 6 14.39 1.96
-4 0 -7 -0.05 0.98
4 0 7 1.09 1.71
4 0 7 0.33 1.15
-4 0 -8 8.4 1.83
4 0 8 6.56 2.23
4 0 8 10.01 2.12
-4 0 -9 -0.44 1.31
4 0 9 -0.75 1.84
4 0 9 -0.13 1.37
-4 0 -10 238.87 6.91
4 0 10 273.84 7.08
4 0 10 258.12 7.09
-4 0 -11 -0.73 1.55
4 0 11 -0.58 2.03
4 0 11 -0.1 1.57
-4 0 -12 14.67 3.03
4 0 12 14.78 3.42
4 0 12 14.63 3.16
-4 0 -13 -0.79 1.71
4 0 13 1.37 2.32
4 0 13 0.47 1.82
-4 0 -14 3.51 2.26
4 0 14 5.89 2.42
-4 0 -15 -0.12 1.98
4 0 15 0.13 1.9
-4 -1 15 1.75 1.91
-4 -1 15 3.27 2.04
-4 1 15 3.34 2.23
4 -1 -15 5.23 2.31
4 -1 -15 2.17 2.06
4 1 -15 1.09 1.99
-4 -1 14 1.45 1.72
-4 -1 14 2.69 2.04
-4 1 14 1.53 1.99
4 -1 -14 1.99 1.99
4 -1 -14 2.29 1.84
4 1 -14 4.12 2.22
-4 -1 13 8.03 2.59
-4 -1 13 5.67 2.17
-4 1 13 5.46 2.18
4 -1 -13 7.37 2.4
4 -1 -13 3.78 1.87
4 1 -13 4.61 2.16
-4 -1 12 1.74 1.66
-4 -1 12 -0.44 1.52
-4 1 12 0.5 1.71
4 -1 -12 -0.29 1.56
4 -1 -12 -0.05 1.44
4 1 -12 0.24 1.57
-4 -1 11 4.25 1.84
-4 -1 11 3.64 1.74
-4 1 11 4.2 1.88
4 -1 -11 11.23 2.64
4 -1 -11 4.22 1.78
4 1 -11 4.51 1.93
-4 -1 10 13.69 2.55
-4 1 10 10.25 2.48
4 -1 -10 11.93 2.55
4 -1 -10 12.27 2.37
4 1 -10 10.4 2.56
4 1 -10 13.73 2.49
-4 -1 9 72.31 3.68
-4 1 9 64.03 3.76
4 -1 -9 83.55 4.17
4 -1 -9 39.9 3.02
4 1 -9 77.45 4.06
4 1 -9 44.99 3.27
-4 -1 8 69.75 3.32
-4 1 8 65.1 3.53
4 -1 -8 64.38 3.47
4 -1 -8 65.42 3.47
4 1 -8 69.64 3.72
4 1 -8 62.29 3.49
-4 -1 7 3.96 1.25
-4 1 7 2.44 1.15
4 -1 -7 3.76 1.4
4 -1 -7 2.19 1.24
4 1 -7 3.65 1.4
4 1 -7 2.09 1.31
-4 -1 6 25.87 1.94
-4 1 6 15.16 1.88
4 -1 -6 34.02 2.65
4 -1 -6 16.26 1.88
4 1 -6 28.38 2.36
4 1 -6 17.29 2.04
4 1 -6 37.92 1.51
-4 -1 5 1.36 0.73
-4 1 5 1.43 0.61
-4 1 5 1.22 0.85
4 -1 -5 2.37 1.14
4 -1 -5 2.09 1.03
4 1 -5 0.14 0.85
4 1 -5 7.33 1.25
-4 -1 4 3.07 0.9
-4 1 4 4.18 1
-4 1 4 2.52 0.92
4 -1 -4 5.86 1.5
4 -1 -4 3.78 1.16
4 1 -4 5.05 1.67
4 1 -4 3.47 1.14
4 1 -4 8.42 1.39
-4 -1 3 88.3 2.38
-4 1 3 86.06 2.89
4 -1 -3 197.77 4.45
4 -1 -3 86.36 2.7
4 -1 -3 256.77 3.83
4 1 -3 196.6 4.52
4 1 -3 88.55 3.04
4 1 -3 263.9 4.06
-4 -1 2 20.81 1.25
4 -1 -2 36.46 2.07
4 -1 -2 17.3 1.34
4 -1 -2 51.12 2.27
4 -1 -2 17.63 1.51
4 1 -2 38.8 2.25
4 1 -2 17.83 1.61
4 1 -2 52.86 2.31
-4 -1 1 9.16 1.36
4 -1 -1 17.15 1.66
4 -1 -1 7.59 1.04
4 -1 -1 25.74 2.16
4 -1 -1 8.29 1.31
4 1 -1 5.98 1.07
4 1 -1 21.34 1.96
4 1 -1 8.19 0.96
-4 -1 0 121.83 2.96
4 -1 0 188.81 3.63
4 -1 0 106.38 2.69
4 -1 0 225.19 4.42
4 -1 0 114.68 3.15
4 1 0 111.23 3.14
4 1 0 225.94 4.43
-4 -1 -1 16.4 1.23
-4 1 -1 15.12 1.26
4 -1 1 20.94 1.49
4 -1 1 14.01 1.28
4 -1 1 25.55 2.3
4 -1 1 15.24 1.48
4 1 1 14.45 1.46
4 1 1 24.68 2.3
4 1 1 13.33 1.23
-4 -1 -2 33.86 1.46
-4 -1 -2 31.89 1.9
-4 1 -2 32.92 1.71
4 -1 2 47.78 1.72
4 -1 2 53.31 2.97
4 -1 2 31.45 1.99
4 1 2 52.47 2.88
4 1 2 31.68 1.65
-4 -1 -3 186.09 2.76
-4 -1 -3 176.41 4.23
-4 1 -3 172.36 3.79
4 -1 3 222.27 2.84
4 -1 3 266.41 5.45
4 -1 3 175.86 4.16
4 1 3 266.59 5.34
4 1 3 179.69 3.67
-4 -1 -4 4.23 0.66
-4 -1 -4 3.42 1.06
-4 1 -4 3.6 1.14
4 -1 4 4.22 0.61
4 -1 4 6.76 2.09
4 -1 4 4.52 1.35
4 1 4 6.32 1.97
4 1 4 4.46 1.2
-4 -1 -5 7.08 1.49
-4 1 -5 5.91 1.34
4 -1 5 8.93 2.04
4 -1 5 7.88 1.87
4 1 5 6.3 1.99
4 1 5 6.02 1.54
-4 -1 -6 27.96 2.3
-4 1 -6 30.02 2.23
4 -1 6 42.26 3.13
4 -1 6 39.34 2.7
4 1 6 42.83 3.01
4 1 6 42.39 2.6
-4 -1 -7 2.87 1.16
-4 1 -7 3.42 1.26
4 -1 7 7.62 2.1
4 -1 7 5.92 1.96
4 1 7 5.93 1.96
4 1 7 5.43 1.52
-4 -1 -8 12.71 2.2
-4 1 -8 10.42 2.04
4 -1 8 67.96 3.87
4 -1 8 55.95 3.43
4 1 8 70.06 3.83
4 1 8 49.91 3.14
-4 -1 -9 85.26 4.27
-4 1 -9 82.62 4.09
4 -1 9 118.51 4.88
4 -1 9 101.46 4.57
4 1 9 104.38 4.55
4 1 9 100.05 4.38
-4 -1 -10 1.88 1.67
-4 1 -10 1.99 1.6
4 -1 10 14.05 3.05
4 -1 10 11.8 2.63
4 1 10 15.17 3
4 1 10 5.96 1.82
-4 -1 -11 7.98 2.24
-4 1 -11 5.43 2
4 -1 11 9.45 2.88
4 -1 11 11.57 2.95
4 1 11 10 3.19
4 1 11 8.85 2.62
-4 -1 -12 -1.1 1.56
-4 1 -12 1.04 1.73
4 -1 12 -1.06 2.12
4 -1 12 1.52 1.88
4 1 12 0.46 2.17
4 1 12 0.47 1.75
-4 -1 -13 4.22 2.14
-4 1 -13 3.02 1.99
-4 1 -13 11.71 3.05
4 -1 13 6.85 2.3
4 1 13 11.42 2.93
4 1 13 6.99 2.41
-4 -1 -14 4.27 2.39
-4 1 -14 4.58 2.28
4 -1 14 2.74 2.22
4 1 14 5.51 2.29
-4 -1 -15 3.32 2.45
-4 1 -15 6.1 2.63
4 -1 15 2.2 2.22
4 1 15 3.68 2.35
-4 -2 15 1.51 1.82
-4 -2 15 -0.76 1.93
-4 2 15 -0.21 2
4 -2 -15 2.93 2.15
4 -2 -15 3.55 2.05
4 2 -15 0.86 1.79
-4 -2 14 1 1.57
-4 -2 14 0.54 1.76
-4 2 14 -0.62 1.83
4 -2 -14 1.8 1.99
4 -2 -14 1.35 1.79
4 2 -14 -0.84 1.75
-4 -2 13 1.96 1.71
-4 -2 13 2.9 1.9
-4 2 13 0.29 1.71
4 -2 -13 0.44 1.82
4 -2 -13 1.55 1.69
4 2 -13 2.03 1.88
-4 -2 12 2.41 1.68
-4 -2 12 1.63 1.63
-4 2 12 1.87 1.81
4 -2 -12 1.66 1.78
4 -2 -12 3.82 1.79
4 2 -12 2.09 1.66
-4 -2 11 95.93 4.82
-4 -2 11 97.07 4.61
-4 2 11 92.42 4.93
4 -2 -11 87.89 4.75
4 -2 -11 87.38 4.45
4 2 -11 83.94 4.67
-4 -2 10 30.22 3.15
-4 -2 10 29.21 2.9
-4 2 10 28.9 3.12
4 -2 -10 30.79 3.23
4 -2 -10 23.58 2.7
4 2 -10 24.99 2.8
-4 -2 9 11.06 2.19
-4 -2 9 11.1 2.12
-4 2 9 8.02 2.3
4 -2 -9 6.79 2.06
4 -2 -9 6.54 1.98
4 2 -9 4.94 1.68
-4 -2 8 1.26 1.32
-4 -2 8 0.14 1.02
-4 2 8 1.19 1.19
4 -2 -8 -0.68 1.15
4 -2 -8 1.43 1.24
4 2 -8 0.67 1.33
-4 -2 7 63.39 3.47
-4 -2 7 57.95 2.81
-4 2 7 44.27 2.87
4 -2 -7 43.92 2.89
4 -2 -7 51.37 2.88
4 2 -7 48.45 3.09
-4 -2 6 3.19 1.38
-4 -2 6 4.45 1.42
-4 2 6 2.57 1.19
4 -2 -6 2.2 1.18
4 -2 -6 3.22 1.12
4 2 -6 2.69 1.32
4 2 -6 4.87 1.35
-4 -2 5 87.81 3.57
-4 -2 5 87.3 2.67
-4 2 5 76.32 2.12
-4 2 5 71.66 3.11
4 -2 -5 90.47 3.63
4 -2 -5 73.57 2.79
4 2 -5 73.8 3.26
4 2 -5 113.38 2.89
-4 -2 4 1.35 0.98
-4 -2 4 1.78 0.7
-4 2 4 1.97 0.76
-4 2 4 0.9 0.82
4 -2 -4 1.79 1.17
4 -2 -4 0.69 0.76
4 2 -4 -0.08 0.79
4 2 -4 1.39 1.05
-4 -2 3 36.48 2.37
-4 -2 3 18.99 1.15
-4 2 3 22.09 1.6
4 -2 -3 51.48 2.69
4 -2 -3 18.17 1.46
4 -2 -3 20.48 1.87
4 2 -3 18.76 1.7
4 2 -3 79.9 2.71
-4 -2 2 2.14 1.02
-4 -2 2 2.18 0.68
-4 2 2 3.51 1.01
4 -2 -2 2.94 1.11
4 -2 -2 2.42 0.8
4 -2 -2 1.46 0.82
4 2 -2 2.68 0.91
4 2 -2 3.27 1.29
-4 -2 1 43.28 2.18
-4 -2 1 42 1.25
-4 2 1 47.22 2.22
4 -2 -1 46.86 2.33
4 -2 -1 39.63 1.6
4 -2 -1 41.85 2.17
4 2 -1 39.23 2.1
4 2 -1 51.18 2.54
-4 -2 0 0.23 0.72
4 -2 0 1.57 0.91
4 -2 0 0.39 0.5
4 -2 0 2.17 1.6
4 -2 0 0.75 0.74
4 2 0 1.06 0.7
4 2 0 1.57 1.34
4 2 0 0.56 0.39
-4 -2 -1 8.52 1.14
-4 2 -1 8.89 0.95
4 -2 1 36.51 1.85
4 -2 1 46.14 2.89
4 -2 1 3.87 1.27
4 2 1 7.07 1.29
4 2 1 44.57 2.68
4 2 1 7.3 0.92
-4 -2 -2 0.64 0.58
-4 -2 -2 0.64 0.78
-4 2 -2 0.34 0.47
4 -2 2 0.75 0.7
4 -2 2 3.64 1.71
4 -2 2 -0.08 0.83
4 2 2 0.82 1.45
4 2 2 0.27 0.7
-4 -2 -3 62.25 2.01
-4 -2 -3 59.63 2.67
-4 2 -3 59.74 2.22
4 -2 3 76.8 2.09
4 -2 3 82.89 3.65
4 -2 3 64.12 2.83
4 2 3 81.04 3.46
4 2 3 62.52 2.22
-4 -2 -4 1.28 0.59
-4 -2 -4 0.58 0.71
-4 2 -4 0.85 0.69
4 -2 4 0.77 0.61
4 -2 4 2.16 1.68
4 -2 4 0.81 1.1
4 2 4 1.3 1.45
4 2 4 0.67 0.83
-4 -2 -5 47.24 1.58
-4 -2 -5 43.31 2.61
-4 2 -5 44.18 2.3
4 -2 5 78.7 1.63
4 -2 5 110.63 4.26
4 -2 5 48.33 2.88
4 2 5 113.78 4.18
4 2 5 68.04 2.74
-4 -2 -6 2.51 1.04
-4 2 -6 2.49 1.03
4 -2 6 6.2 2
4 -2 6 2.98 1.41
4 2 6 5.01 1.91
4 2 6 5.07 1.65
-4 -2 -7 35.53 2.77
-4 2 -7 33.99 2.5
4 -2 7 71.93 3.81
4 -2 7 60.08 3.47
4 2 7 71.34 3.76
4 2 7 63.49 3.22
-4 -2 -8 2.17 1.43
-4 2 -8 1.76 1.25
4 -2 8 1.39 2
4 -2 8 1.78 1.56
4 2 8 3.42 1.93
4 2 8 3.3 1.54
-4 -2 -9 8.65 2.29
-4 2 -9 6.46 2.12
-4 2 -9 9.52 2.62
4 -2 9 11.63 2.91
4 -2 9 8.49 2.48
4 2 9 10.71 2.68
4 2 9 9.57 2.45
-4 -2 -10 19.76 2.91
-4 2 -10 18.13 2.73
-4 2 -10 39.3 3.52
4 -2 10 32.94 3.54
4 2 10 40.46 3.66
4 2 10 33.11 3.2
-4 -2 -11 11.28 2.83
-4 2 -11 84.39 4.63
4 -2 11 71.49 4.56
4 2 11 92.38 4.91
4 2 11 47.2 3.91
-4 -2 -12 2.25 1.85
-4 2 -12 1.17 1.76
-4 2 -12 1.77 2.11
4 -2 12 2.72 1.92
4 2 12 4.68 2.49
4 2 12 2.62 1.92
-4 -2 -13 1.65 1.99
-4 2 -13 3.28 2.15
-4 2 -13 4.72 2.6
4 -2 13 2.11 2.07
4 2 13 0.48 2.45
4 2 13 1.64 2.01
-4 -2 -14 4.6 2.41
-4 2 -14 6.2 2.4
4 -2 14 5.4 2.36
4 2 14 2.34 2.15
-4 -2 -15 5.46 2.57
-4 2 -15 6.53 2.66
4 -2 15 3.55 2.23
4 2 15 3.59 2.38
-4 -3 15 0.28 1.95
-4 3 15 1.18 2.17
4 -3 -15 2.54 2.06
4 3 -15 1.16 2.06
-4 -3 14 -1.12 1.49
-4 -3 14 1.69 1.86
-4 3 14 -0.24 1.91
4 -3 -14 1.67 2.02
4 -3 -14 1.75 1.8
4 3 -14 -0.88 1.64
-4 -3 13 0.78 1.68
-4 -3 13 -0.12 1.64
-4 3 13 2.3 2.07
4 -3 -13 -1.08 1.8
4 -3 -13 0.35 1.56
4 3 -13 0.28 1.84
-4 -3 12 0.98 1.56
-4 -3 12 0.57 1.67
-4 3 12 -0.57 1.64
4 -3 -12 -0.33 1.76
4 -3 -12 0.06 1.43
4 3 -12 -0.15 1.65
-4 -3 11 3.1 1.69
-4 3 11 3.25 1.9
4 -3 -11 4.58 2.04
4 -3 -11 4.49 1.7
4 3 -11 3.9 1.82
-4 -3 10 0.68 1.51
-4 -3 10 0.22 1.27
-4 3 10 0.32 1.55
4 -3 -10 -0.47 1.43
4 -3 -10 -0.09 1.24
4 3 -10 -0.28 1.49
-4 -3 9 6.67 1.98
-4 3 9 3.12 1.67
4 -3 -9 8 2.4
4 -3 -9 2.91 1.41
4 3 -9 3.85 1.66
-4 -3 8 65.5 3.79
-4 -3 8 60.27 3.04
-4 3 8 58.21 3.57
4 -3 -8 63.22 3.76
4 -3 -8 61.3 3.24
4 3 -8 59.73 3.59
-4 -3 7 38.46 2.86
-4 -3 7 41.09 2.47
-4 3 7 27.25 2.59
4 -3 -7 22.85 2.43
4 -3 -7 30.85 2.34
4 3 -7 23.45 2.35
-4 3 6 1.61 1.14
-4 3 6 0.19 0.93
4 -3 -6 1.71 1.01
4 3 -6 0.87 1.15
4 3 -6 20.67 1.95
-4 -3 5 14.26 2.1
-4 -3 5 12.53 1.35
-4 3 5 5.97 1.67
-4 3 5 8.54 1.68
4 -3 -5 7.6 1.7
4 -3 -5 9.02 1.43
4 3 -5 9.43 1.79
4 3 -5 18.72 1.94
-4 -3 4 100.92 3.82
-4 -3 4 85.11 2.18
-4 3 4 66.94 2.52
-4 3 4 69.14 3.13
4 -3 -4 93.53 3.7
4 -3 -4 64.74 2.26
4 3 -4 64.83 3.07
4 3 -4 128.76 3.57
-4 -3 3 2.14 1.05
-4 -3 3 1.86 0.55
-4 3 3 0.73 0.9
4 -3 -3 1.13 1.05
4 -3 -3 1.76 0.69
4 -3 -3 1.6 0.97
4 3 -3 1.17 0.92
4 3 -3 -0.4 1.17
-4 -3 2 100.63 3.49
-4 3 2 106.5 3.14
4 -3 -2 135.52 3.96
4 -3 -2 88.53 2.11
4 -3 -2 94.73 3.38
4 3 -2 94.04 3.36
4 3 -2 196.01 4.45
-4 -3 1 11.44 1.48
-4 3 1 44.74 2.42
4 -3 -1 10.29 0.89
4 -3 -1 11.6 1.57
4 3 -1 11.81 1.57
4 3 -1 66.22 2.99
-4 -3 0 43.61 2.27
-4 3 0 42.69 1.45
-4 3 0 57.75 2.72
4 -3 0 59.19 2.55
4 -3 0 42.8 2.44
4 3 0 38.78 2.27
4 3 0 85.77 3.33
-4 -3 -1 58.74 2.46
-4 3 -1 53.89 1.67
-4 3 -1 65.59 3.04
4 -3 1 63.86 2.48
4 -3 1 54.01 2.75
4 3 1 50.13 2.47
4 3 1 64.89 3.17
4 3 1 55.61 1.3
-4 -3 -2 105.24 3.07
-4 -3 -2 98.89 3.45
-4 3 -2 96.06 2.34
-4 3 -2 169.36 4.56
4 -3 2 166.53 3.6
4 -3 2 100.8 3.54
4 3 2 95.57 3.4
4 3 2 191.26 4.92
4 3 2 104.26 2.12
-4 -3 -3 0.34 0.63
-4 -3 -3 0.11 0.8
-4 3 -3 0.26 0.5
-4 3 -3 1.01 1.25
4 -3 3 0.14 0.71
4 -3 3 -0.33 0.87
4 3 3 0.74 1.46
4 3 3 0.31 0.71
-4 -3 -4 66.5 2.36
-4 -3 -4 66.49 3.03
-4 3 -4 68.61 2.48
-4 3 -4 127.11 4.36
4 -3 4 101.34 2.61
4 -3 4 66.29 3.21
4 3 4 126.83 4.34
4 3 4 87.9 2.67
-4 -3 -5 14.37 1.33
-4 -3 -5 9.57 1.74
-4 3 -5 14.14 1.63
-4 3 -5 19.38 2.47
4 -3 5 16.87 1.32
4 -3 5 15.4 2.32
4 3 5 22.17 2.7
4 3 5 18.77 1.82
-4 -3 -6 22.47 1.54
-4 -3 -6 17.75 2.15
-4 3 -6 17.58 1.91
-4 3 -6 20.8 2.74
4 -3 6 18.65 2.39
4 3 6 23.14 2.78
4 3 6 20.63 2.08
-4 -3 -7 40.38 3.01
-4 3 -7 45.26 2.8
-4 3 -7 67.14 3.91
4 -3 7 61.06 3.74
4 3 7 61.69 3.76
4 3 7 57.28 3.09
-4 -3 -8 0.35 1.28
-4 3 -8 2.36 1.28
-4 3 -8 55.59 3.82
4 -3 8 48.87 3.63
4 3 8 58.71 3.78
4 3 8 43.35 3.03
-4 -3 -9 11.07 2.46
-4 3 -9 7.21 2.34
-4 3 -9 12.25 2.99
4 -3 9 11.53 2.58
4 3 9 8.98 2.72
4 3 9 11.71 2.48
-4 -3 -10 2.3 1.59
-4 3 -10 2.29 1.69
-4 3 -10 4.49 2.38
4 -3 10 2.76 1.79
4 3 10 0.51 1.91
4 3 10 3.04 1.72
-4 -3 -11 8.93 2.51
-4 3 -11 8.92 2.65
-4 3 -11 14.67 3.31
4 -3 11 11.62 2.94
4 3 11 12.72 3.27
4 3 11 14.25 2.97
-4 -3 -12 -2.67 1.53
-4 3 -12 -0.42 1.64
-4 3 -12 0.44 2.03
4 -3 12 -1.59 1.6
4 3 12 -1.29 1.98
4 3 12 -1.07 1.62
-4 -3 -13 0.02 1.92
-4 3 -13 -1.96 1.74
-4 3 -13 -0.19 2.09
4 -3 13 -0.15 1.77
4 3 13 -0.56 1.87
-4 -3 -14 3.64 2.37
-4 3 -14 3.26 2.32
4 -3 14 2.01 2.05
4 3 14 3.24 2.17
-4 -4 14 1.7 2.01
-4 4 14 2.5 2.33
4 -4 -14 2.28 2.15
4 -4 -14 3.24 1.88
4 4 -14 -0.89 1.79
-4 -4 13 -1.21 1.53
-4 4 13 -0.25 1.89
4 -4 -13 1.1 1.97
4 -4 -13 0.42 1.68
4 4 -13 0.55 1.83
-4 -4 12 14.34 3.05
-4 4 12 12.25 3.5
4 -4 -12 10.63 3.01
4 -4 -12 10.02 2.47
4 4 -12 11.49 2.98
-4 -4 11 36.1 3.53
-4 4 11 35.26 3.77
4 -4 -11 29.33 3.5
4 -4 -11 33.77 3.04
4 4 -11 28.83 3.37
-4 -4 10 16.97 2.54
4 -4 -10 3.92 1.88
4 -4 -10 7.14 1.99
-4 -4 9 32.76 3.28
-4 -4 9 32.87 2.77
-4 4 9 27.8 3.16
4 -4 -9 29.23 3.21
4 -4 -9 26.03 2.53
4 4 -9 28.2 3.06
-4 -4 8 8.67 2.46
-4 -4 8 5.72 1.79
-4 4 8 5.16 1.8
4 -4 -8 8.03 2.36
4 -4 -8 6.27 1.81
4 4 -8 6.67 1.93
-4 -4 7 22.11 2.77
-4 -4 7 25.87 2.14
-4 4 7 17.58 2.48
4 -4 -7 15.03 2.49
4 -4 -7 19.44 2
4 4 -7 19.55 2.53
4 4 -7 29.91 2.47
-4 -4 6 34.17 2.96
-4 -4 6 34.48 2.06
-4 4 6 33.21 2.42
-4 4 6 30.74 2.68
4 -4 -6 30.52 2.85
4 -4 -6 33.75 2.14
4 4 -6 28.39 2.63
4 4 -6 34.69 2.56
-4 -4 5 0.46 1.12
-4 -4 5 0.98 0.73
-4 4 5 2.21 1.57
-4 4 5 0.23 0.94
4 -4 -5 1.71 1.4
4 -4 -5 1.3 0.83
4 4 -5 0.7 1.09
4 4 -5 6.15 1.91
-4 4 4 1.49 1.4
-4 4 4 -0.39 0.84
4 -4 -4 0.93 1.29
4 -4 -4 0.4 0.62
4 4 -4 -0.35 0.78
4 4 -4 20.1 2.26
-4 -4 3 1.36 1.23
-4 4 3 4.49 1.47
4 -4 -3 3.04 1.38
4 -4 -3 2.47 0.68
4 -4 -3 2.26 1.08
4 4 -3 2.34 1.01
4 4 -3 1.93 1.43
-4 -4 2 12.58 1.79
-4 4 2 18.07 2.07
4 -4 -2 13.83 1.94
4 -4 -2 10.04 0.78
4 -4 -2 10.87 1.69
4 4 -2 12.76 1.73
4 4 -2 32.6 2.57
-4 -4 1 181.66 4.75
-4 4 1 180.9 2.18
-4 4 1 227.04 5.04
4 -4 -1 193.52 4.83
4 -4 -1 173.9 4.74
4 4 -1 172.04 4.6
4 4 -1 263.95 5.67
-4 -4 0 370.21 6.38
-4 4 0 384.25 3.07
-4 4 0 677.84 8.71
4 -4 0 406.72 6.6
4 -4 0 357.78 6.65
4 4 0 352.08 6.44
4 4 0 722.42 9.19
-4 -4 -1 91.87 3.33
-4 4 -1 88.72 1.75
-4 4 -1 227.54 5.41
4 -4 1 188.94 4.42
4 -4 1 86.12 3.53
4 4 1 82.66 3.29
4 4 1 249.49 5.75
-4 -4 -2 17.87 1.76
-4 -4 -2 18.22 1.91
-4 4 -2 18.84 1.11
-4 4 -2 29.58 2.75
4 -4 2 28.05 2.06
4 -4 2 19.32 2.1
4 4 2 16.38 1.85
4 4 2 30.16 2.77
4 4 2 19.71 1.02
-4 -4 -3 2.38 1.01
-4 -4 -3 0.25 0.9
-4 4 -3 1.82 0.65
-4 4 -3 3.76 1.67
4 -4 3 2.61 1.09
4 -4 3 0.96 1.12
4 4 3 4.24 1.73
4 4 3 1.82 0.76
-4 -4 -4 23.35 1.87
-4 -4 -4 24.44 2.24
-4 4 -4 21.76 1.61
-4 4 -4 23.5 2.81
4 -4 4 23.41 1.81
4 -4 4 21.06 2.27
4 4 4 25.12 2.81
4 4 4 23.92 1.67
-4 -4 -5 3.67 1.06
-4 -4 -5 3.93 1.32
-4 4 -5 2.42 0.94
-4 4 -5 3.93 1.88
4 -4 5 2.66 1.07
4 -4 5 3.96 1.48
4 4 5 3.79 1.8
4 4 5 5.47 1.5
-4 -4 -6 6.06 1.42
-4 -4 -6 4.47 1.4
-4 4 -6 6.29 1.58
-4 4 -6 33.94 3.16
4 -4 6 18.31 2.54
4 4 6 30.1 3.04
4 4 6 24.75 2.23
-4 -4 -7 18.33 2.48
-4 4 -7 20.44 2.27
-4 4 -7 29.51 3.33
4 -4 7 28.27 2.98
4 4 7 27.71 3.07
4 4 7 23.66 2.43
-4 -4 -8 1.95 1.46
-4 4 -8 3.49 1.48
-4 4 -8 2.77 1.91
4 -4 8 5 1.97
4 4 8 3.68 2.03
4 4 8 4.52 1.56
-4 -4 -9 8.76 2.22
-4 4 -9 16.37 2.6
-4 4 -9 34.9 3.74
4 -4 9 22.78 3.16
4 4 9 32.05 3.52
4 4 9 23.9 2.82
-4 -4 -10 27.89 3.35
-4 4 -10 27.02 3.13
-4 4 -10 34.06 3.86
4 -4 10 32.35 3.56
4 4 10 35 3.86
4 4 10 32.66 3.32
-4 -4 -11 11.07 3.03
-4 4 -11 14.56 3.01
-4 4 -11 38.54 4.16
4 -4 11 25.37 3.48
4 4 11 36.26 3.88
4 4 11 24.69 3.29
-4 -4 -12 7.98 2.44
-4 4 -12 10.4 2.85
-4 4 -12 13.27 3.71
4 -4 12 13.97 3.22
4 4 12 19.39 3.55
4 4 12 11.59 3.15
-4 -4 -13 -0.75 1.92
-4 4 -13 1.7 1.95
-4 4 -13 1 2.63
4 -4 13 1.65 1.93
4 4 13 0.28 1.89
-4 -4 -14 0.74 2.11
-4 4 -14 1.73 2.13
4 -4 14 1.33 2.02
4 4 14 2.46 2.17
-4 -5 13 2.78 2.06
-4 5 13 2.14 2.28
4 -5 -13 11.96 3.59
4 5 -13 1.85 1.99
-4 -5 12 1.59 1.77
-4 5 12 2.21 2.07
4 -5 -12 -0.98 1.88
4 5 -12 3.41 2.05
-4 -5 11 1.74 1.84
-4 5 11 0.15 1.74
4 -5 -11 0.5 1.82
4 5 -11 3.16 1.9
-4 -5 10 14.63 2.98
-4 5 10 9.73 2.9
4 -5 -10 14.04 3.04
4 5 -10 11.4 2.72
-4 -5 9 12.83 2.83
-4 5 9 11.16 2.92
4 -5 -9 7.77 2.26
4 5 -9 11.25 2.61
-4 -5 8 -0.92 1.46
-4 5 8 0.89 1.38
4 -5 -8 0.54 1.64
4 5 -8 -0.84 1.27
-4 -5 7 63.23 4.06
-4 5 7 25.12 2.93
4 -5 -7 39.6 3.42
4 5 -7 24.56 2.76
4 5 -7 95.88 3.95
-4 -5 6 1.79 1.67
-4 5 6 2.66 1.77
-4 5 6 1.85 1.27
4 -5 -6 -0.24 1.51
4 5 -6 -0.6 1.12
4 5 -6 2 1.68
-4 -5 5 0.01 1.45
-4 5 5 2.31 1.8
-4 5 5 1.22 1.17
4 -5 -5 2.62 1.63
4 5 -5 1.93 1.24
4 5 -5 1.7 1.64
-4 -5 4 90.38 4.21
-4 5 4 106.84 4.18
-4 5 4 67.35 3.56
4 -5 -4 89.41 4.15
4 5 -4 59.2 3.26
4 5 -4 112.6 4.23
-4 -5 3 42.28 3.1
-4 5 3 42.77 3.26
4 -5 -3 37.9 2.76
4 -5 -3 34.92 2.68
4 5 -3 38.89 2.69
4 5 -3 44.69 3.1
-4 -5 2 5.45 1.67
-4 5 2 6.88 1.96
4 -5 -2 7.42 1.95
4 -5 -2 2.76 1.18
4 5 -2 4.2 1.39
4 5 -2 6.49 1.95
-4 -5 1 7.21 1.81
-4 5 1 52.57 3.37
4 -5 -1 4.24 1.27
4 5 -1 5.92 1.54
4 5 -1 69.68 3.68
-4 -5 0 34.06 2.65
-4 5 0 57.08 3.43
4 -5 0 42.18 2.75
4 -5 0 30.55 2.48
4 5 0 32.8 2.44
4 5 0 63.3 3.6
-4 -5 -1 75.27 3.39
-4 5 -1 72.21 3.78
4 -5 1 78.97 3.44
4 -5 1 69.6 3.42
4 5 1 69.34 3.24
4 5 1 78.34 3.87
-4 -5 -2 2.19 1.22
-4 -5 -2 2.83 1.18
-4 5 -2 7.05 2.23
4 -5 2 6.53 1.73
4 -5 2 5.56 1.59
4 5 2 8.95 2.23
-4 -5 -3 6.88 1.77
-4 -5 -3 5.26 1.69
-4 5 -3 37.93 3.23
4 -5 3 30.86 2.38
4 -5 3 9.33 2.05
4 5 3 41.37 3.39
-4 -5 -4 51.55 2.85
-4 -5 -4 52.22 3.13
-4 5 -4 105.15 4.68
4 -5 4 86.33 3.32
4 -5 4 54.41 3.38
4 5 4 101.74 4.53
-4 -5 -5 0.55 0.94
-4 -5 -5 0.92 1.14
-4 5 -5 0.42 1.84
4 -5 5 0.7 1.19
4 -5 5 2.81 1.55
4 5 5 0.53 1.88
-4 -5 -6 2.2 1.2
-4 -5 -6 1.53 1.32
-4 5 -6 3.77 2.2
4 -5 6 2.45 1.5
4 5 6 2.89 2.01
4 5 6 1.95 1.27
-4 -5 -7 70.56 3.96
-4 5 -7 78.68 3.39
-4 5 -7 91.28 4.96
4 -5 7 93.05 4.66
4 5 7 95.06 4.82
4 5 7 90.54 3.7
-4 -5 -8 0.97 1.44
-4 5 -8 -0.09 1.3
-4 5 -8 -0.62 2.18
4 -5 8 0.53 1.72
4 5 8 0 1.92
4 5 8 0.04 1.34
-4 -5 -9 6.5 2.02
-4 5 -9 10.12 2.54
-4 5 -9 13.56 3.69
4 -5 9 15.69 3.02
4 5 9 16.34 3.21
4 5 9 13.3 2.69
-4 -5 -10 7.54 2.23
-4 5 -10 8.2 2.11
-4 5 -10 16.8 3.82
4 -5 10 13.64 3.07
4 5 10 16.51 3.4
4 5 10 10.69 2.8
-4 -5 -11 2.44 1.98
-4 5 -11 3.5 1.93
-4 5 -11 6.87 3.05
4 -5 11 3.96 2.04
4 5 11 4 2.43
4 5 11 1.81 1.86
-4 -5 -12 1.2 2.02
-4 5 -12 4.52 2.12
-4 5 -12 -2.19 2.47
4 -5 12 0.47 1.82
4 5 12 -0.26 2.25
4 5 12 0.73 1.89
-4 -5 -13 7.94 2.64
-4 5 -13 12.54 3.7
4 -5 13 14.22 3.44
4 5 13 10.48 3.32
-4 -6 13 0.28 1.87
-4 6 13 0.9 2.25
4 -6 -13 2.22 2.37
4 6 -13 3.14 2.29
-4 -6 12 2.69 2.13
-4 6 12 4.57 2.55
4 -6 -12 5.33 2.37
4 6 -12 4.38 2.25
-4 -6 11 0.82 1.69
-4 6 11 -0.89 1.72
4 -6 -11 0.91 1.89
4 6 -11 2.1 1.82
-4 -6 10 4.94 2.19
-4 6 10 3.92 2.02
4 -6 -10 5.01 2.16
4 6 -10 4.35 2.12
-4 -6 9 6.83 2.29
-4 6 9 6.61 2.18
4 -6 -9 10.43 2.96
4 6 -9 9.36 2.61
-4 -6 8 4.19 2.08
-4 6 8 3.4 1.76
4 -6 -8 5.58 2.25
4 6 -8 3.52 1.79
-4 -6 7 1.11 1.57
-4 6 7 -0.4 1.27
4 -6 -7 0.71 1.82
4 6 -7 0.36 1.38
4 6 -7 2.58 1.71
-4 -6 6 20.97 3.11
-4 6 6 13.85 3.12
-4 6 6 8.97 2.22
4 -6 -6 16.6 2.9
4 6 -6 10.87 2.33
4 6 -6 27.94 3.05
-4 -6 5 36.93 3.45
-4 6 5 31.99 3.2
-4 6 5 31.23 2.92
4 -6 -5 36.08 3.38
4 6 -5 27.84 2.77
4 6 -5 38.63 3.39
-4 -6 4 1.24 1.66
-4 6 4 5.22 2.19
-4 6 4 1.18 1.25
4 -6 -4 2.13 1.6
4 6 -4 -0.48 1.11
4 6 -4 8.15 2.7
-4 -6 3 -0.94 1.51
-4 6 3 0.16 2.07
4 -6 -3 1.07 1.53
4 -6 -3 -0.09 1.07
4 6 -3 -0.07 1.12
4 6 -3 -0.21 1.75
-4 -6 2 -0.32 1.25
-4 6 2 -0.71 2
4 -6 -2 -0.33 1.42
4 -6 -2 -0.04 1.01
4 6 -2 0.54 1.05
4 6 -2 1.91 1.94
-4 -6 1 3.94 1.63
-4 6 1 4.35 2.28
4 -6 -1 4.86 1.72
4 -6 -1 1.98 1.31
4 6 -1 3.06 1.33
4 6 -1 3.99 2.11
-4 -6 0 180.08 5.52
-4 6 0 335.19 7.57
4 -6 0 236.82 6.15
4 -6 0 164.93 5.28
4 6 0 165.11 5
4 6 0 325.5 7.48
-4 -6 -1 2.48 1.48
-4 6 -1 5.75 2.39
4 -6 1 4.12 1.7
4 -6 1 2.08 1.24
4 6 1 3.72 1.26
4 6 1 7.77 2.54
-4 -6 -2 -0.45 1.12
-4 -6 -2 -0.65 0.96
-4 6 -2 -0.91 1.91
4 -6 2 1.4 1.42
4 -6 2 -0.2 1.12
4 6 2 -1.49 1.81
-4 -6 -3 0.43 1.2
-4 -6 -3 1.74 1.25
-4 6 -3 0.09 1.97
4 -6 3 2.36 1.44
4 -6 3 -0.08 1.27
4 6 3 0.12 1.83
-4 -6 -4 7.11 1.91
-4 -6 -4 5.35 1.58
-4 6 -4 7.4 2.57
4 -6 4 7.68 2.1
4 -6 4 6.08 1.88
4 6 4 8.04 2.45
-4 -6 -5 8.66 1.94
-4 -6 -5 7.53 2.07
-4 6 -5 36.08 3.99
4 -6 5 21.89 2.41
4 -6 5 9.98 2.48
4 6 5 36.23 3.81
-4 -6 -6 15.59 2.33
-4 -6 -6 16.16 2.54
-4 6 -6 24.55 3.77
4 -6 6 19.99 2.91
4 6 6 23.65 3.39
-4 -6 -7 2.67 1.4
-4 -6 -7 0.38 1.49
-4 6 -7 0.25 2.21
4 -6 7 0.73 1.62
4 6 7 1.92 2.16
-4 -6 -8 4.71 1.88
-4 6 -8 7.76 2.85
4 -6 8 6.63 2.28
4 6 8 6.1 2.33
-4 -6 -9 -0.42 1.56
-4 6 -9 2.89 2.59
4 -6 9 2.2 1.8
4 6 9 5.14 2.24
-4 -6 -10 3.69 2.05
-4 6 -10 7.96 3.22
4 -6 10 11.03 3.22
4 6 10 9.82 2.71
-4 -6 -11 9.82 2.64
-4 6 -11 15.46 4.47
4 -6 11 13.5 3.55
4 6 11 9.59 2.91
-4 -6 -12 2.37 2.2
-4 6 -12 3.25 3.12
4 -6 12 2.04 2.07
4 6 12 5.66 2.73
-4 -7 12 1.5 2.06
-4 7 12 2.87 2.31
4 7 -12 2.47 2.08
-4 -7 11 1.23 1.99
-4 7 11 0.61 2.01
4 -7 -11 -0.28 1.9
4 7 -11 -1.26 1.73
-4 -7 10 -0.89 1.66
-4 7 10 1.2 1.87
4 -7 -10 -1.6 1.85
4 7 -10 0.91 1.81
-4 -7 9 6.21 2.37
-4 7 9 3.92 2.03
4 -7 -9 7.44 2.56
4 7 -9 4.83 2.06
-4 -7 8 2.77 2.05
-4 7 8 2.38 1.71
4 -7 -8 5.65 2.44
4 7 -8 3.25 1.83
-4 -7 7 1.9 1.98
-4 7 7 -0.05 1.35
4 -7 -7 1.08 1.92
4 7 -7 -0.06 1.49
4 7 -7 9.18 2.88
-4 -7 6 4.43 2.01
-4 7 6 5.16 1.75
4 -7 -6 7.48 2.41
4 7 -6 6.91 2.3
4 7 -6 13 3.05
-4 -7 5 -0.73 1.63
-4 7 5 -0.77 2.18
-4 7 5 0.09 1.2
4 -7 -5 0.14 1.66
4 7 -5 1.27 1.41
4 7 -5 -0.18 1.69
-4 -7 4 -0.5 1.42
-4 7 4 0.98 2.22
-4 7 4 0.56 1.27
4 -7 -4 3.99 1.97
4 7 -4 2.02 1.45
4 7 -4 1.95 1.93
-4 -7 3 -0.19 1.67
-4 7 3 3.85 2.33
4 -7 -3 2.53 1.7
4 -7 -3 0.4 1.36
4 7 -3 0.02 1.23
4 7 -3 9.65 2.85
-4 -7 2 15.79 2.94
-4 7 2 18.99 3.63
4 -7 -2 16.43 2.76
4 -7 -2 15.77 2.68
4 7 -2 17.4 2.43
4 7 -2 23.03 3.45
-4 -7 1 1.45 1.46
-4 7 1 5 2.73
4 -7 -1 1.44 1.73
4 -7 -1 1.46 1.42
4 7 -1 1.58 1.32
4 7 -1 4.5 2.2
-4 -7 0 63.21 3.83
-4 7 0 119.75 5.64
4 -7 0 95.86 4.53
4 -7 0 64.87 3.82
4 7 0 60.68 3.45
4 7 0 120.6 5.36
-4 -7 -1 2.93 1.68
-4 7 -1 1.71 2.57
4 -7 1 3.09 1.86
4 -7 1 3.62 1.63
4 7 1 1.17 1.28
4 7 1 3.31 2.41
-4 -7 -2 11.11 2.51
-4 -7 -2 9.22 2.18
-4 7 -2 18.17 4.08
4 -7 2 15.82 2.59
4 -7 2 11.56 2.44
4 7 2 20.61 3.47
-4 -7 -3 10.82 2.45
-4 -7 -3 9.74 2.07
-4 7 -3 14.42 3.37
4 -7 3 10.45 2.34
4 -7 3 10.68 2.49
4 7 3 11.72 3.05
-4 -7 -4 1.36 1.52
-4 -7 -4 2.45 1.49
-4 7 -4 3.75 2.85
4 -7 4 1.66 1.73
4 -7 4 2.62 1.79
4 7 4 1.52 2.41
-4 -7 -5 0.42 1.38
-4 -7 -5 1.2 1.37
-4 7 -5 2.89 2.69
4 -7 5 -0.74 1.41
4 -7 5 -0.31 1.57
4 7 5 0.25 2.36
-4 -7 -6 0.18 1.37
-4 -7 -6 1.52 1.6
-4 7 -6 1.64 2.65
4 -7 6 2.71 1.74
4 7 6 3.08 2.53
-4 -7 -7 7.06 2.32
-4 -7 -7 5.96 1.99
-4 7 -7 6.8 3.21
4 -7 7 8.16 2.37
4 7 7 2.78 2.33
-4 -7 -8 2.43 1.9
-4 7 -8 3.01 3.17
4 -7 8 2.23 2
4 7 8 5.71 2.46
-4 -7 -9 1.83 1.83
-4 7 -9 0.53 2.86
4 -7 9 1.64 1.85
4 7 9 2.48 2.28
-4 -7 -10 -1.18 1.68
-4 7 -10 2.06 3.32
4 -7 10 -1.68 1.77
4 7 10 -0.77 2.22
-4 -7 -11 1.15 1.96
-4 7 -11 -0.02 3.38
4 -7 11 3.45 2.27
4 7 11 6.64 2.96
4 7 12 3.83 3.11
-4 -8 10 14.45 3.78
-4 8 10 10.72 3.38
4 -8 -10 11.57 3.15
4 8 -10 11.46 3.29
-4 -8 9 -0.67 1.85
-4 8 9 0.85 1.62
4 -8 -9 2.28 2.29
4 8 -9 0.05 1.74
-4 -8 8 -1.47 1.76
-4 8 8 0.93 1.56
4 -8 -8 -0.11 2.09
4 8 -8 0.25 1.84
-4 -8 7 1.02 2.02
-4 8 7 0.92 1.48
4 -8 -7 0.17 1.97
4 8 -7 0.89 1.68
4 8 -7 2.07 2
-4 -8 6 1.78 2.14
-4 8 6 0.76 1.43
4 -8 -6 3 1.9
4 8 -6 1.91 1.64
4 8 -6 4.23 2.22
-4 -8 5 0.89 2.02
-4 8 5 9.14 2.89
-4 8 5 2.54 1.55
4 -8 -5 1.73 1.98
4 8 -5 2.87 1.75
4 8 -5 10.27 3.24
-4 -8 4 -0.32 1.79
-4 8 4 2.26 2.56
-4 8 4 -1.54 1.06
4 -8 -4 1.02 1.67
4 8 -4 -0.21 1.36
4 8 -4 0.95 1.99
-4 -8 3 0.55 1.84
-4 8 3 1.18 2.53
-4 8 3 1.69 1.33
4 -8 -3 -2.38 1.67
4 8 -3 1.15 1.46
4 8 -3 0.76 2.22
-4 -8 2 12.21 3.07
-4 8 2 10.79 3.12
4 -8 -2 12.31 2.95
4 -8 -2 9.66 2.57
4 8 -2 8.76 2.2
4 8 -2 22.58 3.78
-4 -8 1 8.37 2.54
-4 8 1 9.31 3.19
4 -8 -1 11.03 2.66
4 -8 -1 9.54 2.71
4 8 -1 8.06 2.01
4 8 -1 7.77 2.76
-4 -8 0 -1.51 1.59
-4 8 0 -0.44 2.58
4 -8 0 0.11 1.72
4 -8 0 1.49 1.53
4 8 0 -0.07 1.17
4 8 0 -0.61 2.25
-4 -8 -1 2.06 1.89
-4 -8 -1 3.61 1.55
-4 8 -1 3.07 2.86
4 -8 1 5.25 2.11
4 -8 1 2.22 1.69
4 8 1 8.69 2.78
-4 -8 -2 9.64 2.72
-4 -8 -2 12.54 2.34
-4 8 -2 19.41 4.58
4 -8 2 15.64 2.85
4 -8 2 12.49 2.91
4 8 2 20.25 3.89
-4 -8 -3 1.02 1.67
-4 -8 -3 -0.52 1.2
-4 8 -3 -1.93 2.8
4 -8 3 0.68 1.73
4 -8 3 0.65 1.63
4 8 3 -1.45 2.36
-4 -8 -4 2.28 1.83
-4 -8 -4 3.16 1.65
-4 8 -4 4.39 3.25
4 -8 4 3.38 1.98
4 -8 4 2.89 1.91
4 8 4 5.06 2.86
-4 -8 -5 5.28 1.96
-4 -8 -5 6.37 1.97
-4 8 -5 3.32 3.2
4 -8 5 6.02 2.04
4 -8 5 1.89 1.82
4 8 5 3.07 2.57
-4 -8 -6 0.99 1.66
-4 -8 -6 0.67 1.62
-4 8 -6 -2.35 3.14
4 -8 6 2.33 1.89
4 8 6 1.78 2.48
-4 -8 -7 0.32 1.57
-4 -8 -7 -0.16 1.63
-4 8 -7 -2.66 3.11
4 -8 7 -0.05 1.77
4 8 7 3.14 2.55
-4 -8 -8 1.45 1.81
-4 8 -8 1.67 3.63
4 -8 8 3.28 2.14
4 8 8 3.27 2.62
-4 -8 -9 -1.69 1.77
-4 8 -9 -4.04 3.46
4 -8 9 -1.06 1.86
4 8 9 3.01 2.64
-4 -8 -10 3.91 2.32
-4 8 -10 7.79 4.13
4 -8 10 14.46 3.7
4 8 10 19.5 4.3
-4 9 9 16.75 3.36
4 9 -9 23.72 3.72
-4 -9 8 0.52 2.12
-4 9 8 -1.18 1.32
4 -9 -8 0.91 2.25
4 9 -8 0.54 1.94
-4 -9 7 1.81 2.36
-4 9 7 -0.37 1.41
4 -9 -7 3.21 2.44
4 9 -7 2.71 1.82
4 9 -7 13.19 3.65
-4 -9 6 3 2.36
-4 9 6 2.87 1.76
4 -9 -6 1.36 2
4 9 -6 6.48 2.17
4 9 -6 11.58 3.74
-4 -9 5 -0.51 1.83
-4 9 5 4.58 2.79
-4 9 5 -0.63 1.29
4 -9 -5 0.51 2.07
4 9 -5 0.17 1.61
4 9 -5 2.63 2.28
-4 -9 4 0.75 2.25
-4 9 4 6.17 3.12
-4 9 4 3.88 1.74
4 -9 -4 2.9 2.31
4 9 -4 4.69 1.87
4 9 -4 6.47 2.68
-4 -9 3 12.87 3.52
-4 9 3 35.95 5.05
-4 9 3 10.42 2.69
4 -9 -3 21.15 3.58
4 9 -3 13.84 2.69
4 9 -3 35.14 4.39
-4 -9 2 1.38 1.87
-4 9 2 0.88 2.7
4 -9 -2 2.19 2.17
4 -9 -2 1.14 1.82
4 9 -2 1.02 1.43
4 9 -2 2.89 2.63
-4 -9 1 1.27 2
-4 9 1 1.87 2.86
4 -9 -1 2.01 2.11
4 -9 -1 0.98 1.75
4 9 -1 -0.51 1.35
4 9 -1 3.24 2.52
-4 -9 0 0.69 1.81
-4 -9 0 3.86 1.65
-4 9 0 0.37 2.74
4 -9 0 1.31 1.98
4 -9 0 4.16 2.08
4 9 0 3.9 2.64
-4 -9 -1 2.46 2.09
-4 -9 -1 3.98 1.76
-4 9 -1 5.19 3.32
4 -9 1 3.51 2.21
4 -9 1 2.78 1.88
4 9 1 4.89 2.73
-4 -9 -2 0.01 1.85
-4 -9 -2 0.69 1.5
-4 9 -2 -0.51 3.11
4 -9 2 2.34 2.14
4 -9 2 -0.41 1.72
4 9 2 2.04 2.62
-4 -9 -3 28.34 3.6
-4 -9 -3 25.98 3.11
-4 9 -3 32.99 5.55
4 -9 3 30.15 3.59
4 -9 3 32.71 3.77
4 9 3 35.83 4.46
-4 -9 -4 -0.38 1.82
-4 -9 -4 -0.61 1.45
-4 9 -4 0.44 3.24
4 -9 4 2.65 2.03
4 -9 4 1.28 1.9
4 9 4 2.47 2.64
-4 -9 -5 0.73 1.95
-4 -9 -5 0.23 1.64
-4 9 -5 -0.92 3.24
4 -9 5 3.32 2.07
4 -9 5 0.85 1.85
4 9 5 1.73 2.64
-4 -9 -6 2.79 2.08
-4 -9 -6 4.37 2.07
-4 9 -6 -0.33 3.47
4 -9 6 3.46 2.21
4 9 6 2.43 2.56
-4 -9 -7 4.35 2.17
-4 9 -7 2.18 3.71
4 -9 7 5.84 2.4
4 9 7 3.85 2.74
-4 9 -8 -2.19 3.53
4 -9 8 2.79 2.24
4 9 8 0.09 2.47
4 9 9 27.87 4.81
-4 -10 6 -0.85 1.94
-4 10 6 0.78 1.52
4 -10 -6 -2.17 1.94
4 10 -6 3.84 2.65
-4 -10 5 8.4 3.08
-4 10 5 28.33 4.9
-4 10 5 6.67 2.24
4 -10 -5 6.98 2.76
4 10 -5 15.45 4.33
-4 -10 4 -0.5 1.99
-4 10 4 5.73 3.36
-4 10 4 0.79 1.48
4 -10 -4 2.95 2.47
4 10 -4 3.13 2.7
-4 -10 3 0.9 2.27
-4 10 3 3.46 3.34
-4 10 3 -0.41 1.38
4 -10 -3 -0.1 2.25
4 10 -3 1.33 2.57
-4 -10 2 5.39 2.5
-4 10 2 9.99 3.99
-4 10 2 3.09 1.74
4 -10 -2 2.75 2.33
4 10 -2 7.19 3.05
-4 -10 1 5.8 2.6
-4 10 1 4.33 3.28
4 -10 -1 3.32 2.22
4 -10 -1 5.05 2.37
4 10 -1 3.12 2.78
-4 -10 0 15.75 3.49
-4 10 0 16.71 4.99
4 -10 0 17.31 3.61
4 -10 0 17.63 3.48
4 10 0 26.7 4.39
-4 -10 -1 4.15 2.41
-4 10 -1 5.53 3.55
4 -10 1 8.62 2.87
4 -10 1 4.31 2.32
4 10 1 7.12 3.07
-4 -10 -2 6.04 2.47
-4 10 -2 4.98 3.64
4 -10 2 5.5 2.49
4 -10 2 3.58 2.23
4 10 2 8.19 3.12
-4 -10 -3 1.37 2.09
-4 10 -3 -1.26 3.31
4 -10 3 2.34 2.25
4 -10 3 2.05 2.09
4 10 3 1.07 2.69
-4 -10 -4 0.36 2.09
-4 10 -4 -2.19 3.61
4 -10 4 1.44 2.1
4 -10 4 -0.36 1.9
4 10 4 2.87 2.98
-4 -10 -5 0.99 1.95
-4 10 -5 4.28 3.99
4 -10 5 7.55 2.59
4 -10 5 1.63 1.98
4 10 5 15.4 4.57
-4 -10 -6 0.43 2.08
-4 10 -6 -2.89 3.9
4 -10 6 -2.16 1.81
4 10 6 1.05 2.74
-4 11 1 1.75 3.98
-4 11 1 2.17 1.52
4 11 -1 2.31 2.82
-4 11 0 7.82 3.98
4 -11 0 6.68 2.71
4 11 0 3.39 2.92
-4 11 -1 0.25 3.38
4 -11 1 2.17 2.12
4 11 1 3.55 2.88
-5 0 15 -2.64 1.73
5 0 -15 -0.47 1.72
-5 0 14 15.57 3.13
-5 0 14 15.24 3.63
5 0 -14 12.79 3.34
5 0 -14 16.03 3.27
-5 0 13 -1.34 1.64
5 0 -13 -1.9 1.63
5 0 -13 0.39 1.79
-5 0 12 3.37 1.87
5 0 -12 5.87 2.28
5 0 -12 0.55 1.66
-5 0 11 0.37 1.45
5 0 -11 -0.2 1.7
5 0 -11 0.22 1.49
-5 0 10 6.53 1.95
5 0 -10 9.77 2.75
5 0 -10 7.3 2.32
-5 0 9 -0.02 1.23
5 0 -9 0.23 1.6
5 0 -9 0.3 1.3
-5 0 8 135.96 4.69
5 0 -8 142.11 5.28
5 0 -8 131.5 4.78
-5 0 7 0.5 0.96
5 0 -7 -0.87 1.41
5 0 -7 -0.55 1.08
-5 0 6 5.65 1.4
5 0 -6 8.38 2.12
5 0 -6 6.46 1.7
-5 0 5 0.15 0.68
5 0 -5 -0.41 1.17
5 0 -5 0.08 0.94
5 0 -5 0.84 1.1
-5 0 4 0.46 0.63
5 0 -4 1.43 1.26
5 0 -4 0.9 0.92
5 0 -4 2.64 1.18
-5 0 3 0.04 0.53
5 0 -3 0.51 1.1
5 0 -3 0.63 0.76
5 0 -3 0.26 1.12
5 0 -2 167.19 4.25
5 0 -2 160.32 4.01
5 0 -2 167.38 3.89
5 0 -2 165.75 3.76
5 0 -1 -0.31 0.83
5 0 -1 -0.09 0.61
5 0 -1 -0.32 1.31
5 0 -1 0.43 0.63
5 0 0 12.36 1.56
5 0 0 10.03 1.3
5 0 0 22.94 2.33
5 0 0 11.12 1.35
5 0 1 -0.15 0.66
5 0 1 -0.55 0.52
5 0 1 -0.78 1.45
5 0 1 0.19 0.83
-5 0 -2 7.21 0.99
-5 0 -2 4.4 1.23
5 0 2 169.25 4.64
5 0 2 4.11 1.33
-5 0 -3 -0.18 0.42
-5 0 -3 -0.02 0.68
5 0 3 -0.73 1.53
5 0 3 -0.46 0.69
-5 0 -4 2.24 0.5
-5 0 -4 1.26 0.83
5 0 4 3.41 1.79
5 0 4 2.07 1.08
-5 0 -5 -0.01 0.78
5 0 5 0.95 1.71
5 0 5 -0.11 0.99
-5 0 -6 18.93 2.13
5 0 6 25.22 3.02
5 0 6 19.32 2.31
-5 0 -7 1.51 1.16
5 0 7 0.12 1.92
5 0 7 -0.63 1.37
-5 0 -8 26.52 2.8
5 0 8 158.61 5.72
5 0 8 91.69 4.28
-5 0 -9 0.05 1.34
5 0 9 0.79 2.37
5 0 9 -0.66 1.46
-5 0 -10 -0.1 1.42
5 0 10 6.69 2.71
5 0 10 2.06 1.85
-5 0 -11 -1.3 1.51
5 0 11 1.69 2.48
5 0 11 -1.44 1.63
-5 0 -12 4.77 2.23
5 0 12 11.72 3.65
5 0 12 6.39 2.31
-5 0 -13 0.44 1.92
5 0 13 -1.61 2.63
5 0 13 -0.51 1.86
-5 0 -14 1.96 2.07
5 0 14 19.51 4.67
5 0 14 3.88 2.29
-5 -1 14 -0.18 1.64
-5 -1 14 -0.21 1.81
-5 1 14 -1.39 1.71
5 -1 -14 -0.78 1.74
5 -1 -14 -0.19 1.78
5 1 -14 0.82 1.82
-5 -1 13 12.79 2.98
-5 -1 13 8.22 2.48
-5 1 13 10.6 3.33
5 -1 -13 12.1 3.12
5 -1 -13 9.48 2.79
5 1 -13 10.85 2.93
-5 -1 12 5.21 2.14
-5 -1 12 3.36 1.97
-5 1 12 4.72 2.12
5 -1 -12 4.29 2.28
5 -1 -12 3.82 1.95
5 1 -12 5.82 2.14
-5 -1 11 0.36 1.6
-5 -1 11 2.43 1.61
-5 1 11 1.19 1.62
5 -1 -11 3.44 1.9
5 -1 -11 0.11 1.49
5 1 -11 2.03 1.76
-5 -1 10 2.83 1.64
-5 -1 10 1.27 1.54
-5 1 10 0.65 1.46
5 -1 -10 0.26 1.73
5 -1 -10 1.06 1.5
5 1 -10 1.63 1.81
5 1 -10 3.26 1.56
-5 -1 9 31.4 2.8
-5 1 9 28.21 3.02
5 -1 -9 26.08 3.12
5 -1 -9 26.22 2.75
5 1 -9 27.15 2.95
5 1 -9 25.5 2.86
-5 -1 8 5.21 1.45
-5 1 8 6.99 1.95
5 -1 -8 6.11 2.02
5 -1 -8 5.94 1.66
5 1 -8 5.92 1.95
5 1 -8 8.45 2.11
-5 -1 7 21.66 2.22
-5 1 7 22.11 2.35
5 -1 -7 24.25 2.75
5 -1 -7 20.75 2.24
5 1 -7 20.42 2.66
5 1 -7 22.82 2.49
-5 -1 6 2.48 1
-5 1 6 3.03 1.14
5 -1 -6 2.86 1.53
5 -1 -6 3.66 1.25
5 1 -6 3.41 1.46
5 1 -6 2.9 1.32
-5 -1 5 10.61 1.4
-5 1 5 10.53 1.23
-5 1 5 7.81 1.54
5 -1 -5 9.88 2.07
5 -1 -5 9.77 1.59
5 1 -5 11.05 1.94
5 1 -5 7.44 1.67
5 1 -5 15.19 1.74
-5 -1 4 2.33 0.76
-5 1 4 2.64 0.92
5 -1 -4 3.34 1.31
5 -1 -4 2.48 0.96
5 -1 -4 1.75 1.31
5 1 -4 1.42 1.32
5 1 -4 2.16 0.94
5 1 -4 2.49 1.22
-5 -1 3 76.33 2.45
5 -1 -3 91.33 3.51
5 -1 -3 77.05 2.85
5 -1 -3 128 3.37
5 -1 -3 82.47 3.09
5 1 -3 86.94 3.46
5 1 -3 68.68 2.93
5 1 -3 127.83 3.48
-5 -1 2 0.58 0.51
5 -1 -2 0.54 1.06
5 -1 -2 -0.33 0.57
5 -1 -2 1.4 1.36
5 -1 -2 -0.32 0.72
5 1 -2 0.48 0.97
5 1 -2 -0.64 0.53
5 1 -2 0.57 1.26
-5 -1 1 50.29 2.42
5 -1 -1 51.66 2.5
5 -1 -1 44.24 2.11
5 -1 -1 61.83 2.95
5 -1 -1 45.05 2.3
5 1 -1 48.09 2.46
5 1 -1 60.88 2.87
5 1 -1 46.29 1.89
-5 -1 0 0.17 0.67
5 -1 0 -0.03 0.86
5 -1 0 0.81 0.66
5 -1 0 0.99 1.56
5 -1 0 -0.22 0.65
5 1 0 -0.59 0.66
5 1 0 0.22 1.43
5 1 0 0.15 0.54
-5 -1 -1 14.12 1.3
-5 1 -1 11.74 1.29
5 -1 1 27.29 1.74
5 -1 1 11.94 1.36
5 -1 1 56.66 3.17
5 -1 1 12.07 1.5
5 1 1 12.78 1.56
5 1 1 61.39 3.18
5 1 1 13.33 1.45
-5 -1 -2 2.37 0.71
-5 -1 -2 1.79 0.84
-5 1 -2 1.44 0.73
5 -1 2 2.45 0.82
5 -1 2 2.64 1.84
5 -1 2 1.9 0.87
5 1 2 2.37 1.72
5 1 2 1.48 0.92
-5 -1 -3 53.84 1.81
-5 -1 -3 50.19 2.58
-5 1 -3 48.77 2.39
5 -1 3 59.28 1.88
5 -1 3 125.71 4.44
5 -1 3 48.43 2.61
5 1 3 129.18 4.42
5 1 3 52.69 2.42
-5 -1 -4 0 0.46
-5 -1 -4 0.75 0.83
-5 1 -4 1.13 0.8
5 -1 4 0.26 0.47
5 -1 4 2.3 1.9
5 -1 4 0.54 0.97
5 1 4 2.8 1.66
5 1 4 0.4 0.85
-5 -1 -5 8.7 1.7
-5 1 -5 7.81 1.51
5 -1 5 14.89 2.8
5 -1 5 6.95 1.82
5 1 5 15.17 2.47
5 1 5 9.36 1.79
-5 -1 -6 3.47 1.19
-5 1 -6 4.97 1.59
5 -1 6 9.34 2.58
5 -1 6 4.04 1.61
5 1 6 8.22 2.32
5 1 6 5.01 1.53
-5 -1 -7 0.49 1.15
-5 1 -7 2.34 1.23
5 -1 7 18.37 3.17
5 -1 7 10.39 2.28
5 1 7 26.62 3.28
5 1 7 10.25 2.22
-5 -1 -8 0.29 1.3
-5 1 -8 0.16 1.18
5 -1 8 7.63 2.6
5 -1 8 2.61 1.69
5 1 8 4.75 2.21
5 1 8 3.14 1.66
-5 -1 -9 15.02 2.61
-5 1 -9 13.46 2.5
5 -1 9 47.49 4.19
5 -1 9 27.2 3.34
5 1 9 38.66 3.88
5 1 9 26.89 3.1
-5 -1 -10 0.46 1.39
-5 1 -10 0.4 1.53
5 -1 10 3.94 2.61
5 -1 10 0.64 1.7
5 1 10 1.9 2.52
5 1 10 -0.24 1.64
-5 -1 -11 17.96 3.15
-5 1 -11 19.26 3.11
5 -1 11 23.27 3.88
5 -1 11 21.52 3.38
5 1 11 24.65 3.88
5 1 11 27.18 3.52
-5 -1 -12 0.6 1.79
-5 1 -12 -0.94 1.53
5 -1 12 4.43 2.77
5 -1 12 3.98 2.16
5 1 12 7.9 3.03
5 1 12 2.18 1.92
-5 -1 -13 2.65 2.16
-5 1 -13 2.68 2.04
-5 1 -13 10.4 3.32
5 -1 13 14.65 3.96
5 -1 13 11.15 3.56
5 1 13 10.73 3.39
5 1 13 4.88 2.24
-5 -1 -14 -0.25 2.04
-5 1 -14 0.51 1.97
5 -1 14 2.02 2.26
5 1 14 1.48 2.21
-5 -2 14 3.52 1.98
-5 -2 14 3.19 2.11
-5 2 14 5.02 2.34
5 -2 -14 6.02 2.47
5 -2 -14 5.69 2.28
5 2 -14 4.93 2.33
-5 -2 13 1.37 1.62
-5 -2 13 2.36 1.9
-5 2 13 -0.42 1.76
5 -2 -13 1.43 1.97
5 -2 -13 0.1 1.57
5 2 -13 1.34 1.83
-5 -2 12 1.67 1.79
-5 -2 12 0.71 1.79
-5 2 12 1.89 1.86
5 -2 -12 3.72 2.14
5 -2 -12 2.78 1.7
5 2 -12 2.77 1.85
-5 -2 11 1.07 1.53
-5 -2 11 2.25 1.65
-5 2 11 2.22 1.83
5 -2 -11 2.98 1.99
5 -2 -11 1.66 1.7
5 2 -11 2.28 1.82
-5 -2 10 -0.76 1.25
-5 -2 10 -0.46 1.3
-5 2 10 -0.82 1.44
5 -2 -10 0.83 1.72
5 -2 -10 -1.16 1.33
5 2 -10 -0.04 1.28
-5 -2 9 7.86 2.2
-5 -2 9 6.14 2.04
-5 2 9 4.85 1.74
5 -2 -9 5.97 2.22
5 -2 -9 9.51 2.3
5 2 -9 5.89 1.9
-5 -2 8 14.37 2.65
-5 -2 8 17 2.25
-5 2 8 16.89 2.55
5 -2 -8 15.8 2.74
5 -2 -8 17.68 2.26
5 2 -8 12.15 2.36
-5 -2 7 28.92 2.75
-5 -2 7 28.39 2.19
-5 2 7 25.49 2.55
5 -2 -7 29.02 2.94
5 -2 -7 30.79 2.55
5 2 -7 27.53 2.7
-5 -2 6 15.66 2.41
-5 -2 6 19.12 1.83
-5 2 6 17.52 2.11
5 -2 -6 18.03 2.51
5 -2 -6 17.87 1.99
5 2 -6 15.34 2.18
-5 -2 5 15.56 2.27
-5 -2 5 16.84 1.59
-5 2 5 13.86 1.43
-5 2 5 12.36 1.82
5 -2 -5 14.15 2.03
5 -2 -5 14.27 1.71
5 2 -5 12.61 1.95
5 2 -5 49.25 2.48
-5 -2 4 14.1 2.08
-5 -2 4 12.88 1.27
-5 2 4 14.34 1.51
-5 2 4 13.41 1.75
5 -2 -4 16.82 2.2
5 -2 -4 13.34 1.55
5 2 -4 13.18 1.86
5 2 -4 20.4 2.07
-5 -2 3 12.58 1.93
-5 -2 3 12.37 1.13
-5 2 3 14.05 1.6
5 -2 -3 13.94 1.99
5 -2 -3 14.26 1.39
5 -2 -3 13.01 1.67
5 2 -3 12.37 1.72
5 2 -3 13 2.04
-5 -2 2 -0.64 0.72
-5 -2 2 0.05 0.43
-5 2 2 0.48 0.83
5 -2 -2 -0.05 0.54
5 -2 -2 0.13 0.82
5 2 -2 -0.64 0.58
5 2 -2 23.09 2.25
-5 -2 1 2.61 1.02
5 -2 -1 1.8 1.14
5 -2 -1 1.01 0.62
5 -2 -1 2.63 1.69
5 -2 -1 1.76 0.96
5 2 -1 1.85 0.87
5 2 -1 3.77 1.63
5 2 -1 1.5 0.56
-5 -2 0 0.93 0.79
5 -2 0 3.24 1.15
5 -2 0 2.06 0.7
5 -2 0 1.89 1.79
5 -2 0 1.22 0.8
5 2 0 0.8 0.8
5 2 0 4.17 1.65
5 2 0 0.75 0.48
-5 -2 -1 1.58 0.77
-5 2 -1 1.26 0.61
5 -2 1 2.14 1
5 -2 1 2.79 1.83
5 -2 1 0.71 0.79
5 2 1 1.02 0.79
5 2 1 3.38 1.66
5 2 1 1.55 0.75
-5 -2 -2 25.32 1.61
-5 -2 -2 24.05 1.95
-5 2 -2 22.54 1.53
5 -2 2 23.08 1.71
5 -2 2 21.22 2.6
5 -2 2 24.54 2.18
5 2 2 23.52 2
5 2 2 23.65 2.67
5 2 2 22.66 1.51
-5 -2 -3 1.08 0.64
-5 -2 -3 0.89 0.89
-5 2 -3 0.78 0.67
5 -2 3 12 2.48
5 -2 3 1.11 0.96
5 2 3 9.97 2.38
5 2 3 0.82 0.9
-5 -2 -4 6.33 1.07
-5 -2 -4 7.39 1.63
-5 2 -4 8.13 1.39
5 -2 4 11.29 1.17
5 -2 4 18.44 2.73
5 -2 4 5.64 1.7
5 2 4 19.18 2.55
5 2 4 7.54 1.44
-5 -2 -5 38.05 2.7
-5 2 -5 38.18 2.34
5 -2 5 48.1 3.45
5 -2 5 35.54 2.87
5 2 5 45.92 3.26
5 2 5 40.55 2.5
-5 -2 -6 0.49 0.95
-5 2 -6 1.35 1
5 -2 6 15.76 2.86
5 -2 6 3.51 1.47
5 2 6 16.75 2.74
5 2 6 9.66 1.98
-5 -2 -7 2.09 1.33
-5 2 -7 1.74 1.16
5 -2 7 24.67 3.31
5 -2 7 20.93 2.86
5 2 7 25.3 3.26
5 2 7 15.26 2.24
-5 -2 -8 1 1.38
-5 2 -8 2.61 1.41
5 -2 8 16.75 3.48
5 -2 8 9.13 2.73
5 2 8 15.31 2.99
5 2 8 6.66 2.19
-5 -2 -9 1.88 1.52
-5 2 -9 1.99 1.45
5 -2 9 7.29 2.76
5 -2 9 2.27 1.88
5 2 9 5.99 2.43
5 2 9 4.69 1.73
-5 -2 -10 3.24 1.8
-5 2 -10 3.06 1.65
-5 2 -10 7.77 2.54
5 -2 10 3.22 2.7
5 -2 10 1.95 1.95
5 2 10 5.93 2.54
5 2 10 3.45 1.87
-5 -2 -11 -0.25 1.62
-5 2 -11 -0.67 1.51
-5 2 -11 0.8 1.9
5 -2 11 0.58 1.9
5 2 11 1.86 2.4
5 2 11 0.38 1.79
-5 -2 -12 -0.7 1.74
-5 2 -12 -0.64 1.66
-5 2 -12 2.06 2.21
5 -2 12 0.98 1.91
5 2 12 1.22 2.74
5 2 12 -0.16 1.88
-5 -2 -13 0.37 1.87
-5 2 -13 3.37 2.12
-5 2 -13 2.29 2.47
5 -2 13 3.29 2.21
5 2 13 3.41 2.83
5 2 13 0.98 1.94
-5 -2 -14 1.24 2.25
-5 2 -14 0.44 2
-5 2 -14 5.54 2.91
5 -2 14 0.57 1.9
5 2 14 3.88 2.21
-5 -3 14 0.26 1.73
-5 3 14 -0.39 2.05
5 -3 -14 -1.34 1.89
5 -3 -14 0.02 1.62
5 3 -14 -0.44 1.78
-5 -3 13 3.58 1.99
-5 3 13 0.91 2.06
5 -3 -13 2.1 2.17
5 -3 -13 2.99 2
5 3 -13 2.93 1.91
-5 -3 12 0.13 1.55
-5 3 12 0.15 1.77
5 -3 -12 0.45 1.84
5 -3 -12 0 1.43
5 3 -12 0.56 1.79
-5 -3 11 -1.17 1.44
-5 -3 11 0.78 1.46
-5 3 11 0.16 1.71
5 -3 -11 0.85 1.85
5 -3 -11 0.67 1.49
5 3 -11 1.94 1.67
-5 -3 10 3.08 1.61
-5 -3 10 1.56 1.47
-5 3 10 2.37 1.66
5 -3 -10 3.93 2.06
5 -3 -10 1.41 1.46
5 3 -10 1.22 1.63
-5 -3 9 -0.56 1.4
-5 -3 9 -0.01 1.19
-5 3 9 0.49 1.35
5 -3 -9 0.98 1.54
5 -3 -9 0.3 1.29
5 3 -9 -0.27 1.26
-5 -3 8 0.85 1.38
-5 -3 8 0.33 1.13
-5 3 8 0.06 1.24
5 -3 -8 0.9 1.53
5 -3 -8 1.1 1.15
5 3 -8 0.67 1.41
-5 -3 7 1.38 1.48
-5 -3 7 2.31 1.19
-5 3 7 2.62 1.46
5 -3 -7 2.64 1.68
5 -3 -7 1.74 1.2
5 3 -7 1.62 1.36
-5 -3 6 6.42 2.13
-5 -3 6 9.34 1.54
-5 3 6 6.89 1.84
5 -3 -6 7.62 1.96
5 -3 -6 8.4 1.56
5 3 -6 8.88 1.99
5 3 -6 27.78 2.36
-5 -3 5 5.52 1.82
-5 -3 5 3.97 1.21
-5 3 5 4.66 1.52
-5 3 5 3.82 1.33
5 -3 -5 5.13 1.82
5 -3 -5 3.31 1.04
5 3 -5 3.01 1.22
5 3 -5 8.25 1.99
-5 -3 4 -0.13 0.98
-5 -3 4 0.18 0.59
-5 3 4 0.02 0.91
-5 3 4 0.77 0.99
5 -3 -4 -0.18 1.21
5 -3 -4 0.1 0.57
5 3 -4 0.47 0.97
5 3 -4 0.51 1.37
-5 -3 3 76.16 3.38
-5 -3 3 75.73 1.83
-5 3 3 78.71 2.92
5 -3 -3 78.13 3.55
5 -3 -3 74.02 2.42
5 -3 -3 74.34 3.37
5 3 -3 66.49 3.23
5 3 -3 98.24 3.6
-5 -3 2 10.59 1.81
-5 3 2 11.45 1.71
5 -3 -2 10.29 1.92
5 -3 -2 9.78 1.09
5 -3 -2 13.19 1.86
5 3 -2 11.27 1.7
5 3 -2 12.66 2.31
-5 -3 1 4.69 1.5
-5 3 1 4.11 1.27
5 -3 -1 3.6 1.28
5 -3 -1 3.11 0.88
5 -3 -1 4.02 1.25
5 3 -1 4.84 1.4
5 3 -1 8.24 2.16
-5 -3 0 0.29 0.85
-5 3 0 0.82 0.53
-5 3 0 0.66 1.1
5 -3 0 0.6 1.04
5 -3 0 0.81 0.96
5 3 0 0.19 0.72
5 3 0 0.39 1.55
-5 -3 -1 3.48 1.09
-5 3 -1 3.09 0.86
-5 3 -1 4.34 1.5
5 -3 1 3.93 1.17
5 -3 1 3.55 1.22
5 3 1 2.37 0.99
5 3 1 5.99 1.94
5 3 1 3.66 0.85
-5 -3 -2 -0.3 0.69
-5 -3 -2 0.76 0.79
-5 3 -2 -0.33 0.5
-5 3 -2 -0.08 1.13
5 -3 2 0.53 1.06
5 3 2 0.18 0.78
5 3 2 8.46 2.25
5 3 2 0.34 0.64
-5 -3 -3 19.16 1.66
-5 -3 -3 20.21 2.13
-5 3 -3 19.62 1.55
-5 3 -3 51.27 3.27
5 -3 3 33.79 1.93
5 -3 3 19.39 2.2
5 3 3 91.09 4.13
5 3 3 20.91 1.54
-5 -3 -4 0.97 0.81
-5 -3 -4 1.29 1.04
-5 3 -4 1.4 0.8
-5 3 -4 2.25 1.49
5 -3 4 1.48 0.85
5 -3 4 0.98 1.05
5 3 4 -0.02 1.74
5 3 4 1.44 0.96
-5 -3 -5 3.46 1.15
-5 -3 -5 4.46 1.36
-5 3 -5 3.47 1.06
-5 3 -5 4.53 1.81
5 -3 5 5.25 1.64
5 3 5 8.91 2.5
5 3 5 5.81 1.56
-5 -3 -6 20.98 2.44
-5 3 -6 20.47 2.12
-5 3 -6 25.69 2.96
5 -3 6 24.25 2.77
5 3 6 26.87 3.26
5 3 6 24.94 2.26
-5 -3 -7 5.11 1.61
-5 3 -7 4.68 1.45
-5 3 -7 8.66 2.3
5 -3 7 4.31 1.83
5 3 7 8.45 2.65
5 3 7 6.12 1.92
-5 -3 -8 6.9 2.04
-5 3 -8 3.52 1.46
-5 3 -8 7.51 2.45
5 -3 8 5.92 2.07
5 3 8 7.24 2.57
5 3 8 6.94 2.23
-5 -3 -9 5.66 1.91
-5 3 -9 4.48 1.68
-5 3 -9 7.51 2.57
5 -3 9 3.52 1.93
5 3 9 4.55 2.47
5 3 9 5.77 1.91
-5 -3 -10 0.38 1.52
-5 3 -10 -1.17 1.36
-5 3 -10 -0.67 2
5 -3 10 -0.8 1.67
5 3 10 0.92 2.24
5 3 10 0.43 1.59
-5 -3 -11 -0.92 1.48
-5 3 -11 0.63 1.76
-5 3 -11 1.19 2.17
5 -3 11 -0.41 1.82
5 3 11 -2 2.1
5 3 11 1.21 1.82
-5 -3 -12 -1.37 1.79
-5 3 -12 1.29 1.78
-5 3 -12 3.41 2.54
5 -3 12 1.01 1.95
5 3 12 -1.56 2.41
5 3 12 0.71 1.87
-5 -3 -13 -0.34 1.88
-5 3 -13 -0.45 2.04
-5 3 -13 1.73 2.37
5 -3 13 -0.59 1.91
5 3 13 2.69 2.84
5 3 13 2.07 2.05
-5 -3 -14 -0.25 2.06
-5 3 -14 1.36 2.26
-5 3 -14 2.85 2.65
5 -3 14 3.62 2.24
5 3 14 2.79 2.21
-5 -4 13 1.94 2.02
-5 4 13 0.71 2
5 -4 -13 1.68 2.21
5 4 -13 1.84 2.04
-5 -4 12 3.99 2.05
-5 4 12 4.77 2.18
5 -4 -12 4.03 2.32
5 4 -12 5.01 2.27
-5 -4 11 19.82 3.3
-5 4 11 18.23 3.39
5 -4 -11 17.46 3.42
5 -4 -11 16.38 2.7
5 4 -11 18.96 3.21
-5 -4 10 19.67 3.2
-5 4 10 17.79 3.35
5 -4 -10 19.65 3.3
5 -4 -10 17.23 2.57
5 4 -10 17.48 3.03
-5 -4 9 3.24 1.95
-5 4 9 3.45 1.7
5 -4 -9 0.87 1.65
5 -4 -9 3.52 1.51
5 4 -9 4.86 1.98
-5 -4 8 1.88 1.77
-5 4 8 2.46 1.59
5 -4 -8 2.07 1.79
5 -4 -8 2.82 1.28
5 4 -8 0.4 1.44
-5 -4 7 0.2 1.6
-5 4 7 0.43 1.32
5 -4 -7 1.4 1.66
5 -4 -7 1.31 1.08
5 4 -7 1.63 1.45
-5 -4 6 0.59 1.34
-5 4 6 0.38 1.02
5 -4 -6 1.1 1.49
5 -4 -6 -0.06 0.82
5 4 -6 0.97 1.26
5 4 -6 2.2 1.61
-5 -4 5 7.72 2.28
-5 4 5 8.76 2.25
-5 4 5 6.69 1.66
5 -4 -5 9.62 2.09
5 -4 -5 9.24 1.39
5 4 -5 9.24 2.06
5 4 -5 31.74 2.75
-5 -4 4 1.03 1.2
-5 4 4 -0.34 1.34
-5 4 4 -0.08 0.96
5 -4 -4 0.51 1.18
5 -4 -4 0.28 0.57
5 4 -4 0.48 0.88
5 4 -4 0.52 1.6
-5 -4 3 0.98 1.27
-5 4 3 -0.21 1.19
5 -4 -3 0.17 1.26
5 -4 -3 0.27 0.9
5 4 -3 0.99 0.92
5 4 -3 0.52 1.59
-5 -4 2 1.51 1.14
-5 4 2 1.55 1.11
5 -4 -2 1.05 1.18
5 -4 -2 0.81 1.03
5 4 -2 1.05 0.93
5 4 -2 11.18 2.38
-5 -4 1 8.17 1.86
-5 4 1 11.44 2.08
5 -4 -1 9.73 1.86
5 -4 -1 6.82 1.74
5 4 -1 5.45 1.43
5 4 -1 17.47 2.59
-5 -4 0 4.42 1.38
-5 4 0 6.44 1.74
5 -4 0 6.59 1.63
5 -4 0 4.32 1.29
5 4 0 5 1.57
5 4 0 7.29 2.09
-5 -4 -1 13.6 1.87
-5 4 -1 14.07 1.08
-5 4 -1 19.48 2.56
5 -4 1 16.97 1.9
5 -4 1 11.88 1.96
5 4 1 12.95 1.88
5 4 1 21.22 2.71
-5 -4 -2 14.24 1.75
-5 -4 -2 12.12 1.9
-5 4 -2 12.45 1.16
-5 4 -2 17.47 2.64
5 -4 2 13.37 1.83
5 -4 2 13.56 2.19
5 4 2 13.91 1.95
5 4 2 10.57 2.58
-5 -4 -3 0.16 0.87
-5 -4 -3 0.22 0.98
-5 4 -3 0.37 0.61
-5 4 -3 1.3 1.56
5 -4 3 1.29 1.09
5 -4 3 1.1 1.15
5 4 3 0.04 1.73
-5 -4 -4 0.92 0.99
-5 -4 -4 2.03 1.2
-5 4 -4 1.48 0.82
-5 4 -4 2.18 1.82
5 -4 4 1.53 1.05
5 -4 4 1.65 1.43
5 4 4 1.07 1.86
-5 -4 -5 24.01 1.98
-5 -4 -5 21.92 2.34
-5 4 -5 26.35 2.04
-5 4 -5 30.2 3.36
5 -4 5 22.56 2.64
5 4 5 33.56 3.49
-5 -4 -6 0.78 1.05
-5 4 -6 0.77 0.99
-5 4 -6 0.89 1.86
5 -4 6 1.88 1.57
5 4 6 -0.47 2.07
5 4 6 -0.12 1.1
-5 -4 -7 3.21 1.51
-5 4 -7 1.24 1.23
-5 4 -7 3.2 2.18
5 -4 7 0.48 1.57
5 4 7 2.85 2.29
5 4 7 1.47 1.28
-5 -4 -8 2.56 1.59
-5 4 -8 1.18 1.3
-5 4 -8 4.57 2.29
5 -4 8 2.79 1.88
5 4 8 4.84 2.51
5 4 8 1.64 1.48
-5 -4 -9 0.32 1.36
-5 4 -9 0.54 1.42
-5 4 -9 2.64 2.17
5 -4 9 1.15 1.83
5 4 9 6.06 2.52
5 4 9 3.19 1.65
-5 -4 -10 0.25 1.66
-5 4 -10 0.34 1.56
-5 4 -10 12.47 3.52
5 -4 10 3.46 1.91
5 4 10 16.91 3.64
5 4 10 3.14 1.8
-5 -4 -11 0.99 1.83
-5 4 -11 0.53 1.72
-5 4 -11 12.05 3.73
5 -4 11 4.4 2.09
5 4 11 15.83 4.02
5 4 11 6.42 2.16
-5 -4 -12 4.48 2.28
-5 4 -12 2.41 2.1
-5 4 -12 6.44 2.81
5 -4 12 3.35 2.12
5 4 12 6.49 2.85
5 4 12 6.98 2.3
-5 -4 -13 -0.3 1.98
-5 4 -13 0.77 2.13
-5 4 -13 1.33 2.87
5 -4 13 0.41 1.89
5 4 13 0.21 2.67
5 4 13 1.48 2.12
-5 -5 13 15.98 3.48
-5 5 13 12.23 3.75
5 -5 -13 19.04 3.86
5 5 -13 17.84 3.6
-5 -5 12 -0.4 1.56
-5 5 12 -3.49 1.85
5 -5 -12 1.22 2.23
5 5 -12 0.58 1.96
-5 -5 11 3.45 1.99
-5 5 11 2.25 2.06
5 -5 -11 4.02 2.36
5 5 -11 3.86 2.09
-5 -5 10 10.82 3.02
-5 5 10 7.34 2.36
5 -5 -10 11.36 2.79
5 5 -10 9.77 2.82
-5 -5 9 -0.2 1.58
-5 5 9 -0.06 1.49
5 -5 -9 1.63 2.01
5 5 -9 1.56 1.77
-5 -5 8 1.28 1.8
-5 5 8 1.61 1.54
5 -5 -8 0.27 1.7
5 5 -8 0.14 1.46
-5 -5 7 12.19 2.9
-5 5 7 6.13 1.85
5 -5 -7 4.18 1.84
5 5 -7 7.39 2.06
-5 -5 6 19.42 2.98
-5 5 6 18.47 2.56
5 -5 -6 16.32 2.83
5 5 -6 14.71 2.53
5 5 -6 29.27 2.96
-5 -5 5 26.58 3.13
-5 5 5 24.31 2.83
-5 5 5 24.85 2.79
5 -5 -5 25.92 3
5 5 -5 24.63 2.71
5 5 -5 31.54 2.93
-5 -5 4 1.56 1.6
-5 5 4 2.61 1.99
-5 5 4 0.98 1.22
5 -5 -4 4.47 1.85
5 5 -4 1.57 1.3
5 5 -4 3.64 1.92
-5 -5 3 25.72 2.9
-5 5 3 24.67 2.94
5 -5 -3 24.64 2.8
5 -5 -3 22.66 2.6
5 5 -3 19.72 2.22
5 5 -3 25.85 2.93
-5 -5 2 -0.65 1.26
-5 5 2 1.25 1.65
5 -5 -2 1.04 1.36
5 -5 -2 -0.95 1.03
5 5 -2 -1.11 1.04
5 5 -2 3.06 1.89
-5 -5 1 5.77 1.84
-5 5 1 50.44 3.45
5 -5 -1 12.79 2.18
5 -5 -1 6.49 1.78
5 5 -1 4.81 1.47
5 5 -1 64.87 3.86
-5 -5 0 0.49 1.16
-5 5 0 0.58 1.48
5 -5 0 -0.16 1.15
5 -5 0 -0.12 1.04
5 5 0 -0.25 0.99
5 5 0 1.5 1.89
-5 -5 -1 60.05 3.28
-5 5 -1 67.18 3.82
5 -5 1 62.39 3.21
5 -5 1 62.73 3.54
5 5 1 58.96 3.32
5 5 1 66.86 4.06
-5 -5 -2 3.41 1.34
-5 -5 -2 1.74 1.24
-5 5 -2 5.35 2.09
5 -5 2 4.56 1.47
5 -5 2 2.79 1.42
5 5 2 5.27 2.23
-5 -5 -3 0.24 1.17
-5 -5 -3 0.89 1.2
-5 5 -3 12.22 2.99
5 -5 3 2.92 1.21
5 -5 3 1.6 1.36
5 5 3 22.12 3.15
-5 -5 -4 1.1 1.13
-5 -5 -4 0.84 1.14
-5 5 -4 -0.45 1.84
5 -5 4 1.54 1.23
5 -5 4 0.76 1.45
5 5 4 2.28 2.09
-5 -5 -5 7.36 1.78
-5 -5 -5 6.5 1.84
-5 5 -5 18.8 3.34
5 -5 5 14.13 2.74
5 5 5 29.68 3.61
-5 -5 -6 11.07 2.36
-5 5 -6 21.18 3.63
5 -5 6 21.06 3.09
5 5 6 28.52 3.6
-5 -5 -7 20.88 2.86
-5 5 -7 23.49 3.79
5 -5 7 24.31 3.33
5 5 7 21.96 3.56
-5 -5 -8 -0.44 1.27
-5 5 -8 1.49 2.35
5 -5 8 1.81 1.92
5 5 8 0.48 2.23
-5 -5 -9 -0.22 1.52
-5 5 -9 2.75 2.53
5 -5 9 0.72 1.83
5 5 9 3.39 2.43
-5 -5 -10 8.37 2.49
-5 5 -10 16.45 4.29
5 -5 10 12.53 3.16
5 5 10 17.67 3.84
-5 -5 -11 0.69 1.98
-5 5 -11 3.44 2.97
5 -5 11 0.56 1.92
5 5 11 5.3 2.76
-5 -5 -12 -1.27 1.67
-5 5 -12 0.37 2.97
5 -5 12 -2 1.64
5 5 12 0.2 2.52
-5 5 -13 15.87 5.06
5 -5 13 0.25 1.97
5 5 13 20.27 4.59
-5 -6 12 3.39 2.17
-5 6 12 5.05 2.47
5 -6 -12 4.76 2.54
5 6 -12 4.14 2.35
-5 -6 11 0.8 1.95
-5 6 11 0.99 1.97
5 -6 -11 -0.56 1.94
5 6 -11 -1.3 1.71
-5 -6 10 5.78 2.3
-5 6 10 6.71 2.32
5 -6 -10 8.1 2.66
5 6 -10 7.53 2.46
-5 -6 9 4.32 2.25
-5 6 9 5.31 2.14
5 -6 -9 4.01 2.25
5 6 -9 4.01 1.94
-5 -6 8 0.77 1.79
-5 6 8 0.84 1.62
5 -6 -8 2 1.93
5 6 -8 -0.59 1.59
-5 -6 7 -0.41 1.55
-5 6 7 0.54 1.4
5 -6 -7 0.96 1.64
5 6 -7 0.17 1.55
-5 -6 6 1.2 1.86
-5 6 6 0.59 1.31
5 -6 -6 0.33 1.83
5 6 -6 0.55 1.48
5 6 -6 0.07 1.79
-5 -6 5 6.27 2.02
-5 6 5 6.86 2.39
-5 6 5 5.91 1.75
5 -6 -5 9.23 2.78
5 6 -5 6.84 2.06
5 6 -5 8.9 2.64
-5 -6 4 18.58 3.08
-5 6 4 13.72 3.26
-5 6 4 14.14 2.65
5 -6 -4 19.83 2.95
5 6 -4 12.55 2.41
5 6 -4 20.73 3.09
-5 -6 3 7.85 2.57
-5 6 3 7.99 2.56
5 -6 -3 8.4 2.47
5 -6 -3 4.85 1.78
5 6 -3 4.67 1.76
5 6 -3 5.71 2.23
-5 -6 2 53.64 3.83
-5 6 2 95.57 4.9
5 -6 -2 49.42 3.53
5 -6 -2 45.22 3.4
5 6 -2 44.09 3.21
5 6 -2 102.76 4.74
-5 -6 1 7.68 2.18
-5 6 1 19.59 3.55
5 -6 -1 10.8 2.38
5 -6 -1 3.17 1.61
5 6 -1 6.22 1.97
5 6 -1 22.5 3.29
-5 -6 0 -0.11 1.43
-5 6 0 1.76 2.11
5 -6 0 -0.8 1.41
5 -6 0 0.65 1.25
5 6 0 -0.28 1.04
5 6 0 0.75 1.99
-5 -6 -1 18.64 2.6
-5 6 -1 21.8 3.52
5 -6 1 19.87 2.66
5 -6 1 19.23 2.57
5 6 1 18.67 2.45
5 6 1 20.17 3.14
-5 -6 -2 72.29 3.91
-5 -6 -2 60.13 3.6
-5 6 -2 104.27 5.12
5 -6 2 75.57 3.7
5 -6 2 69.6 4.11
5 6 2 109.83 5.23
-5 -6 -3 2.13 1.44
-5 -6 -3 1.81 1.43
-5 6 -3 2.65 2.06
5 -6 3 3.11 1.52
5 -6 3 0.42 1.55
5 6 3 6.06 2.5
-5 -6 -4 6.37 1.73
-5 -6 -4 5.55 1.76
-5 6 -4 14.3 3.45
5 -6 4 6.39 1.99
5 -6 4 6.96 2.17
5 6 4 23.03 3.66
-5 -6 -5 2.8 1.44
-5 -6 -5 1.55 1.43
-5 6 -5 4.02 2.27
5 -6 5 4.57 1.87
5 6 5 6.73 2.55
-5 -6 -6 0.3 1.41
-5 6 -6 -0.28 2.28
5 -6 6 0.87 1.68
5 6 6 0.18 2.28
-5 -6 -7 0.12 1.47
-5 6 -7 1.38 2.44
5 -6 7 2.5 1.91
5 6 7 0.68 2.45
-5 -6 -8 2.57 1.84
-5 6 -8 1.89 2.63
5 -6 8 1.01 1.96
5 6 8 3.33 2.5
-5 -6 -9 6.87 2.22
-5 6 -9 13.34 4.36
5 -6 9 10.12 3.11
5 6 9 11.32 3.73
-5 -6 -10 4.23 2.23
-5 6 -10 14.44 4.61
5 -6 10 4.8 2.35
5 6 10 7.74 3.05
-5 -6 -11 -0.66 1.79
-5 6 -11 0.65 3
5 -6 11 0.7 2
5 6 11 1.53 2.73
-5 -6 -12 4.16 2.33
-5 6 -12 6.87 3.75
5 -6 12 4.41 2.35
5 6 12 5.09 3.04
-5 -7 11 -0.47 1.96
-5 7 11 1.62 2.17
5 -7 -11 1.13 2.28
5 7 -11 0.45 1.94
-5 -7 10 14.7 3.52
-5 7 10 14.63 3.67
5 -7 -10 18.02 3.75
5 7 -10 20.79 3.73
-5 -7 9 -1.11 1.85
-5 7 9 1.73 1.84
5 -7 -9 -1.65 1.9
5 7 -9 0.45 1.96
-5 -7 8 3.5 2.24
-5 7 8 2.96 1.95
5 -7 -8 4.05 2.14
5 7 -8 1.6 1.9
-5 -7 7 4.39 2.23
-5 7 7 5.66 2.01
5 -7 -7 4.36 2.44
5 7 -7 5.7 2.24
-5 -7 6 0.04 1.87
-5 7 6 1.17 1.5
5 -7 -6 2.27 2.19
5 7 -6 1.65 1.66
5 7 -6 4.92 2.33
-5 -7 5 9.85 2.65
-5 7 5 11.69 3.27
-5 7 5 9.23 2.26
5 -7 -5 8.85 2.54
5 7 -5 13.24 2.55
5 7 -5 13.25 3.28
-5 -7 4 -0.46 1.68
-5 7 4 -1.67 2.22
-5 7 4 0.81 1.36
5 -7 -4 0.3 1.8
5 7 -4 -0.44 1.42
5 7 -4 1.09 2.14
-5 -7 3 4.75 2.19
-5 7 3 2.72 2.61
5 -7 -3 3.97 2.01
5 -7 -3 2.9 1.75
5 7 -3 2.9 1.54
5 7 -3 3.6 2.38
-5 -7 2 18.4 3.13
-5 7 2 20.03 3.78
5 -7 -2 22.97 3.08
5 -7 -2 17.06 3
5 7 -2 18.18 2.78
5 7 -2 26.43 3.71
-5 -7 1 15.64 2.98
-5 7 1 19.94 4.07
5 -7 -1 10.76 2.72
5 -7 -1 10.39 2.53
5 7 -1 10.62 2.28
5 7 -1 20.01 3.59
-5 -7 0 -1.74 1.48
-5 7 0 -0.06 2.46
5 -7 0 0.57 1.65
5 -7 0 0.04 1.47
5 7 0 -1.01 1.19
5 7 0 0.97 2.38
-5 -7 -1 8.33 2.59
-5 7 -1 16.41 3.78
5 -7 1 11.5 2.51
5 -7 1 9.11 2.45
5 7 1 7.75 2.01
5 7 1 21.85 3.77
-5 -7 -2 8.25 2.13
-5 -7 -2 7.19 2.22
-5 7 -2 25.28 4.29
5 -7 2 13.18 2.64
5 -7 2 10.39 2.65
5 7 2 28.63 3.77
-5 -7 -3 0.09 1.44
-5 -7 -3 -1.31 1.2
-5 7 -3 0.52 2.37
5 -7 3 -0.27 1.49
5 -7 3 -0.46 1.5
5 7 3 2.61 2.62
-5 -7 -4 0.77 1.41
-5 -7 -4 0.77 1.43
-5 7 -4 1.56 2.5
5 -7 4 -0.07 1.45
5 -7 4 -0.78 1.58
5 7 4 0.77 2.58
-5 -7 -5 5.66 1.78
-5 -7 -5 4.42 1.85
-5 7 -5 14.31 3.99
5 -7 5 4.88 2.1
5 7 5 8.13 2.8
-5 -7 -6 -0.63 1.46
-5 7 -6 1.12 2.75
5 -7 6 0.91 1.7
5 7 6 1.89 2.67
-5 -7 -7 0.76 1.59
-5 7 -7 -0.84 2.64
5 -7 7 1.83 1.9
5 7 7 1.56 2.5
-5 -7 -8 2.34 1.99
-5 7 -8 2.01 3.08
5 -7 8 2.04 2.02
5 7 8 4.7 2.71
-5 -7 -9 0.22 1.8
-5 7 -9 0.61 3.19
5 -7 9 0.63 2.03
5 7 9 1.14 2.62
-5 -7 -10 9.64 2.74
-5 7 -10 28.04 5.58
5 -7 10 15.9 3.85
5 7 10 24.75 4.56
-5 7 -11 -1.71 3.34
5 -7 11 0.81 2.11
5 7 11 4.02 3.02
-5 -8 9 1.83 2.23
-5 8 9 0.43 1.74
5 -8 -9 2.63 2.51
5 8 -9 -0.97 1.83
-5 -8 8 1.04 1.97
-5 8 8 3.05 1.91
5 -8 -8 3.71 2.27
5 8 -8 1.24 2.03
-5 -8 7 -0.11 2.06
-5 8 7 -2.26 1.35
5 -8 -7 0.1 2.03
5 8 -7 0.69 1.76
-5 -8 6 8.78 2.5
-5 8 6 13.42 2.94
5 -8 -6 11.74 3.44
5 8 -6 8.23 2.63
5 8 -6 25.66 4.06
-5 -8 5 1.44 1.86
-5 8 5 0.91 1.45
5 -8 -5 0.62 1.96
5 8 -5 1.27 1.66
5 8 -5 0.81 2.38
-5 -8 4 0.34 2.02
-5 8 4 -0.68 2.45
-5 8 4 0.51 1.37
5 -8 -4 -1.64 1.87
5 8 -4 0.13 1.61
5 8 -4 2.97 2.41
-5 -8 3 3.24 2.23
-5 8 3 -0.52 2.56
-5 8 3 2.13 1.44
5 -8 -3 1.35 1.98
5 -8 -3 0.9 1.65
5 8 -3 2.47 1.65
5 8 -3 3.05 2.56
-5 -8 2 0.25 1.84
-5 8 2 0.4 2.77
5 -8 -2 2.28 1.99
5 -8 -2 1.38 1.68
5 8 -2 1.31 1.67
5 8 -2 2.22 2.53
-5 -8 1 4.32 2.13
-5 8 1 2.46 2.92
5 -8 -1 3.61 2.18
5 -8 -1 5.59 2.07
5 8 -1 2.44 1.68
5 8 -1 11.4 3.62
-5 -8 0 3.59 1.88
-5 8 0 3.5 2.9
5 -8 0 4.48 2.1
5 -8 0 1.37 1.75
5 8 0 2.84 1.64
5 8 0 4.42 2.69
-5 -8 -1 5.66 2.09
-5 -8 -1 4.38 1.84
-5 8 -1 6.46 3.18
5 -8 1 6.5 2.28
5 -8 1 6.3 2.26
5 8 1 8.75 3.04
-5 -8 -2 1.25 1.79
-5 -8 -2 1.01 1.51
-5 8 -2 1.7 2.9
5 -8 2 2.45 1.96
5 -8 2 1.7 1.86
5 8 2 3.79 2.71
-5 -8 -3 0.38 1.62
-5 -8 -3 0.55 1.49
-5 8 -3 1.3 2.95
5 -8 3 -0.88 1.72
5 -8 3 -0.39 1.77
5 8 3 -0.37 2.66
-5 -8 -4 0.33 1.57
-5 -8 -4 0.22 1.41
-5 8 -4 -3.7 2.77
5 -8 4 2.24 1.9
5 -8 4 -1.15 1.66
5 8 4 1.83 2.73
-5 -8 -5 0.06 1.56
-5 -8 -5 0.54 1.7
-5 8 -5 -1.57 2.99
5 -8 5 1.63 2.02
5 8 5 0.94 2.64
-5 -8 -6 16.93 3.06
-5 8 -6 17.95 5.35
5 -8 6 20.5 3.7
5 8 6 30.15 4.66
-5 -8 -7 1.29 1.81
-5 8 -7 1.15 3.41
5 -8 7 -2.58 1.65
5 8 7 0.2 2.68
-5 -8 -8 -1.85 1.61
-5 8 -8 -3.9 3.17
5 -8 8 -0.11 1.95
5 8 8 1.14 2.67
-5 -8 -9 7.29 2.64
-5 8 -9 8.35 4.08
5 -8 9 7.6 2.69
5 8 9 7.68 3.26
-5 -9 7 2.99 2.66
-5 9 7 4.89 2.15
5 -9 -7 1.47 2.4
5 9 -7 3.48 2.16
-5 -9 6 4.83 2.64
-5 9 6 1.7 1.71
5 -9 -6 5.71 2.61
5 9 -6 1.72 1.9
5 9 -6 3.89 2.79
-5 -9 5 0.49 2.23
-5 9 5 1.67 1.58
5 -9 -5 3.96 2.46
5 9 -5 -1.55 1.54
5 9 -5 3.17 2.72
-5 -9 4 0.35 2.1
-5 9 4 -1.34 2.79
-5 9 4 0.09 1.4
5 -9 -4 -0.18 2.1
5 9 -4 0.83 1.76
5 9 -4 0.31 2.53
-5 -9 3 0.69 2.07
-5 9 3 2.58 2.88
-5 9 3 -0.7 1.27
5 -9 -3 1.39 2.27
5 9 -3 -0.99 1.51
5 9 -3 1.09 2.52
-5 -9 2 -0.87 1.98
-5 9 2 -1.41 2.86
5 -9 -2 2.23 2.25
5 -9 -2 -0.89 1.73
5 9 -2 1.47 1.74
5 9 -2 -3.18 2.33
-5 -9 1 2.44 2.18
-5 9 1 0.29 2.98
5 -9 -1 -0.14 2.1
5 -9 -1 5.39 2.26
5 9 -1 3.42 1.84
5 9 -1 3.09 2.69
-5 -9 0 -0.12 1.8
-5 -9 0 1.51 1.61
-5 9 0 -1.61 2.91
5 -9 0 -1.05 1.95
5 -9 0 -1.1 1.72
5 9 0 2.63 2.74
-5 -9 -1 2.33 2.11
-5 -9 -1 -0.12 1.5
-5 9 -1 0.96 3.19
5 -9 1 0.2 1.89
5 -9 1 1.49 1.92
5 9 1 -1.32 2.65
-5 -9 -2 -1.1 1.7
-5 -9 -2 0.26 1.57
-5 9 -2 -0.24 2.95
5 -9 2 -0.87 1.83
5 -9 2 0.59 1.9
5 9 2 5.81 3.1
-5 -9 -3 -2.38 1.62
-5 -9 -3 2.02 1.79
-5 9 -3 0.91 3.22
5 -9 3 1.9 2.09
5 -9 3 0.07 2.02
5 9 3 -0.12 2.79
-5 -9 -4 0 1.76
-5 -9 -4 0.55 1.67
-5 9 -4 -1.92 3.04
5 -9 4 1.38 2.01
5 -9 4 -0.4 1.91
5 9 4 2.63 2.87
-5 -9 -5 0.41 1.77
-5 -9 -5 0.26 1.82
-5 9 -5 0.43 3.4
5 -9 5 3.29 2.25
5 9 5 4.08 2.9
-5 -9 -6 0.14 1.81
-5 9 -6 -2.34 3.36
5 -9 6 3.27 2.23
5 9 6 1.01 2.77
-5 -9 -7 2.53 2.11
-5 9 -7 1.31 3.81
5 -9 7 -0.61 1.98
5 9 7 2.3 2.8
-5 10 5 -0.69 1.42
5 10 -5 1.15 2.8
-5 -10 4 2.33 2.59
-5 10 4 4.02 3.55
-5 10 4 2.58 1.8
5 -10 -4 1.52 2.22
5 10 -4 1.98 2.86
-5 -10 3 -1.75 2.11
-5 10 3 3.23 3.75
-5 10 3 0.24 1.4
5 -10 -3 4.96 2.61
5 10 -3 2.24 2.8
-5 -10 2 -1.49 2.09
-5 10 2 -2 2.98
-5 10 2 1.81 1.62
5 -10 -2 0.51 2.37
5 10 -2 -0.39 2.7
-5 -10 1 -0.67 2.11
-5 10 1 0.49 3.28
5 -10 -1 0.92 2.27
5 -10 -1 -0.23 1.96
5 10 -1 -1.31 2.6
-5 -10 0 -0.42 2.08
-5 10 0 0.47 3.27
5 -10 0 3.69 2.38
5 -10 0 0.14 1.98
5 10 0 -0.76 2.61
-5 -10 -1 -0.19 2.05
-5 10 -1 -0.01 3.36
5 -10 1 -0.58 2.1
5 -10 1 0.35 2.08
5 10 1 -2.82 2.69
-5 -10 -2 0.94 2.13
-5 10 -2 -4.2 3.23
5 -10 2 0.94 2.36
5 -10 2 -2.31 1.7
5 10 2 3.47 3.06
-5 -10 -3 0.04 2.06
-5 10 -3 -4.92 3.29
5 -10 3 -1.54 2.07
5 -10 3 2.19 2.13
5 10 3 0.43 2.85
-5 -10 -4 0.49 2.14
-5 10 -4 -3.15 3.65
5 -10 4 1.49 2.35
5 10 4 2.53 2.91
5 10 5 3.34 3.15
-6 0 14 2.44 2.02
-6 0 14 -0.38 1.76
6 0 -14 1.64 1.94
-6 0 13 -0.88 1.83
6 0 -13 -0.27 1.73
6 0 -13 -0.03 1.59
-6 0 12 5.53 2.17
6 0 -12 8.45 2.77
6 0 -12 8.63 2.73
-6 0 11 -0.06 1.58
6 0 -11 -0.24 1.85
6 0 -11 -0.53 1.46
-6 0 10 87.44 4.6
6 0 -10 86.7 5.05
6 0 -10 84.49 4.63
-6 0 9 0.48 1.27
6 0 -9 0.49 1.81
6 0 -9 0.21 1.31
-6 0 8 4.03 1.41
6 0 -8 7.04 2.24
6 0 -8 4.77 1.74
-6 0 7 -0.14 0.93
6 0 -7 0.3 1.51
6 0 -7 0.25 1.04
-6 0 6 0.58 0.88
6 0 -6 1.22 1.53
6 0 -6 0.63 0.99
-6 0 5 0.05 0.7
6 0 -5 0.58 1.41
6 0 -5 -0.68 0.85
-6 0 4 93.52 3.3
6 0 -4 97.8 4.08
6 0 -4 90.95 3.62
-6 0 3 -0.71 0.58
6 0 -3 0.21 1.13
6 0 -3 0.08 0.75
6 0 -3 -0.66 1.5
6 0 -2 1.31 1.12
6 0 -2 0.48 0.76
6 0 -2 0.86 1.46
6 0 -2 -0.34 0.68
6 0 -1 -1.02 0.84
6 0 -1 -0.39 0.62
6 0 -1 -1.18 1.4
6 0 -1 -0.46 0.69
6 0 0 65.22 2.83
6 0 0 60.37 2.83
6 0 0 116.3 4.12
6 0 0 65.11 2.72
6 0 1 0.15 0.79
6 0 1 0.07 0.74
6 0 1 0.4 1.63
6 0 1 0.34 0.96
-6 0 -2 0.35 0.61
-6 0 -2 0.06 0.77
6 0 2 -1.59 1.68
6 0 2 0.08 0.95
-6 0 -3 -0.68 0.5
-6 0 -3 -0.08 0.8
6 0 3 2.29 1.85
6 0 3 0.7 1.07
-6 0 -4 127.77 4.31
6 0 4 207.45 5.92
6 0 4 123.44 4.11
-6 0 -5 -0.49 0.87
6 0 5 -1 1.84
6 0 5 0 1.19
-6 0 -6 25.56 2.51
6 0 6 30.95 3.38
6 0 6 25.88 2.68
-6 0 -7 0.4 1.2
6 0 7 0.08 2.27
6 0 7 -0.72 1.45
-6 0 -8 0.77 1.36
6 0 8 7.97 2.82
6 0 8 3.71 1.97
-6 0 -9 -0.2 1.39
6 0 9 -1.1 2.63
6 0 9 1.32 1.82
-6 0 -10 37.4 3.69
6 0 10 122.75 6.07
6 0 10 54.42 4.36
-6 0 -11 -1.03 1.55
6 0 11 0.09 2.73
6 0 11 0.39 2.02
-6 0 -12 -2.6 1.58
6 0 12 6.32 3.27
6 0 12 0.53 2.05
-6 0 -13 0.49 2
6 0 13 0.85 2.82
6 0 13 2.74 2.41
6 0 14 10.32 3.63
-6 -1 14 -0.32 1.64
-6 -1 14 -0.13 1.89
-6 1 14 0.34 1.93
6 -1 -14 -0.93 2.03
6 -1 -14 0.9 1.83
6 1 -14 0.02 1.87
-6 -1 13 3.32 2.1
-6 -1 13 3.26 2.03
-6 1 13 4.64 2.25
6 -1 -13 6.56 2.64
6 -1 -13 2.38 1.98
6 1 -13 4.82 2.12
-6 -1 12 0.14 1.65
-6 -1 12 0.35 1.74
-6 1 12 -0.71 1.63
6 -1 -12 2.08 2.16
6 -1 -12 -0.48 1.46
6 1 -12 0.34 1.69
-6 -1 11 0.34 1.64
-6 -1 11 0.78 1.7
-6 1 11 0.18 1.66
6 -1 -11 -0.67 1.85
6 -1 -11 1.61 1.64
6 1 -11 0.03 1.67
-6 -1 10 1.7 1.8
-6 -1 10 2.15 1.56
-6 1 10 3.34 1.78
6 -1 -10 3.26 2.1
6 -1 -10 1.84 1.53
6 1 -10 0.8 1.74
6 1 -10 1.51 1.61
-6 -1 9 91.2 4.2
-6 1 9 97.68 4.68
6 -1 -9 94.88 4.88
6 -1 -9 95.49 4.6
6 1 -9 91.81 5.03
6 1 -9 95.48 4.79
-6 -1 8 8.84 1.99
-6 1 8 5.74 1.65
6 -1 -8 7.13 2.2
6 -1 -8 6.94 1.97
6 1 -8 11.16 2.85
6 1 -8 6.99 2.21
-6 -1 7 4.24 1.34
-6 1 7 1.78 1.22
6 -1 -7 5.32 2.04
6 -1 -7 3.45 1.38
6 1 -7 3.7 1.95
6 1 -7 3.49 1.51
-6 -1 6 0.75 0.84
-6 1 6 -0.26 0.9
6 -1 -6 -1.28 1.38
6 -1 -6 -0.09 0.96
6 1 -6 0.56 1.37
6 1 -6 0.28 1.09
-6 -1 5 4.55 1.28
-6 1 5 5.71 1.33
-6 1 5 3.39 1.12
6 -1 -5 4.47 1.79
6 -1 -5 3.67 1.16
6 1 -5 3.55 1.73
6 1 -5 5.82 1.76
6 1 -5 2.74 1.52
-6 -1 4 22.39 1.75
-6 1 4 23.81 2.11
6 -1 -4 25.94 2.6
6 -1 -4 23.57 2.02
6 1 -4 29.3 2.56
6 1 -4 24.27 2.28
6 1 -4 65.05 2.97
-6 -1 3 25.41 1.75
6 -1 -3 26.78 2.5
6 -1 -3 27.09 2.01
6 -1 -3 28.73 2.28
6 1 -3 30.55 2.56
6 1 -3 27.66 2.28
6 1 -3 49.31 2.87
-6 -1 2 2.85 1.17
6 -1 -2 2.4 1.33
6 -1 -2 0.85 0.82
6 -1 -2 16.17 2.48
6 -1 -2 1.82 1.05
6 1 -2 2.44 1.09
6 1 -2 17.69 2.43
6 1 -2 2.07 0.84
-6 -1 1 8.26 1.54
6 -1 -1 7.3 1.65
6 -1 -1 8.97 1.33
6 -1 -1 7.59 2.42
6 -1 -1 8.15 1.46
6 1 -1 5.37 1.44
6 1 -1 9.39 2.11
6 1 -1 6.16 1.24
-6 -1 0 0.81 0.8
6 -1 0 0.1 0.92
6 -1 0 0.53 0.76
6 -1 0 0.65 1.67
6 -1 0 0.47 0.83
6 1 0 0.46 0.8
6 1 0 2.43 1.74
6 1 0 0.44 0.7
-6 -1 -1 -0.32 0.6
-6 1 -1 0.13 0.63
6 -1 1 0.62 0.81
6 -1 1 8.21 2.51
6 -1 1 -0.14 0.74
6 1 1 0.02 0.78
6 1 1 6.95 2.03
6 1 1 -0.47 0.8
-6 -1 -2 17.43 1.48
-6 -1 -2 17 1.94
-6 1 -2 16.75 1.73
6 -1 2 16.84 1.59
6 -1 2 17.84 2.67
6 -1 2 18.07 2.01
6 1 2 18.99 2.8
6 1 2 16.66 1.68
-6 -1 -3 24.13 1.5
-6 -1 -3 21.39 2.06
-6 1 -3 23.67 1.99
6 -1 3 27.42 1.65
6 -1 3 49.17 3.48
6 -1 3 16.32 1.98
6 1 3 42.64 3.38
6 1 3 23.76 2.06
-6 -1 -4 43.11 2.86
-6 1 -4 47.2 2.75
6 -1 4 65.16 3.93
6 -1 4 48.08 2.99
6 1 4 65.45 3.92
6 1 4 43.2 2.62
-6 -1 -5 0.03 1.03
-6 1 -5 0.25 0.89
6 -1 5 4.87 2.35
6 -1 5 -0.04 1.23
6 1 5 3.44 2.22
6 1 5 0.51 1.1
-6 -1 -6 0.23 1.09
-6 1 -6 0.02 1.07
6 -1 6 1.11 2.27
6 -1 6 -0.06 1.51
6 1 6 -0.8 2.04
6 1 6 1.24 1.25
-6 -1 -7 19.43 2.42
-6 1 -7 20.46 2.51
6 -1 7 25.42 3.55
6 -1 7 22.38 2.8
6 1 7 23.76 3.55
6 1 7 21.66 2.71
-6 -1 -8 40.02 3.41
-6 1 -8 36.95 3.16
6 -1 8 40.51 4.12
6 -1 8 39.64 3.5
6 1 8 42.89 4.31
6 1 8 42.93 3.47
-6 -1 -9 14.4 2.78
-6 1 -9 15.65 2.85
6 -1 9 99.05 5.62
6 -1 9 34.92 3.58
6 1 9 97.67 5.6
6 1 9 34.3 3.56
-6 -1 -10 16.36 2.98
-6 1 -10 15.55 2.88
6 -1 10 16.72 3.95
6 -1 10 12.75 3.13
6 1 10 17.37 4.05
6 1 10 17.98 3.29
-6 -1 -11 0.68 1.77
-6 1 -11 0.09 1.66
6 -1 11 -1.2 2.62
6 -1 11 1.46 2.19
6 1 11 2.71 2.96
6 1 11 1.91 2.06
-6 -1 -12 4.76 2.25
-6 1 -12 1.79 1.95
6 -1 12 6.68 3.32
6 -1 12 5.79 2.58
6 1 12 6.41 3.24
6 1 12 2.6 2.29
-6 -1 -13 1.07 2.07
-6 1 -13 -0.18 1.89
6 -1 13 8.31 3.52
6 -1 13 3.13 2.47
6 1 13 7.11 3.18
6 1 13 0.75 2.24
6 1 14 1.93 3.18
-6 -2 13 1.31 1.76
-6 2 13 1.18 2.07
6 -2 -13 2.55 2.32
6 -2 -13 2.59 2.01
6 2 -13 1.04 1.93
-6 -2 12 -0.08 1.63
-6 2 12 1.07 1.85
6 -2 -12 1.77 2.11
6 -2 -12 -0.24 1.59
6 2 -12 2.65 2.05
-6 -2 11 0.53 1.66
-6 -2 11 1.3 1.62
-6 2 11 -1.24 1.54
6 -2 -11 1 1.8
6 -2 -11 1.63 1.63
6 2 -11 -0.29 1.67
-6 -2 10 3.33 1.92
-6 -2 10 2.71 1.63
-6 2 10 1.64 1.62
6 -2 -10 2.99 1.96
6 -2 -10 3.01 1.69
6 2 -10 3.84 1.86
-6 -2 9 15.22 2.99
-6 -2 9 14.29 2.47
-6 2 9 11.27 2.54
6 -2 -9 13.28 3.01
6 -2 -9 14.92 2.51
6 2 -9 13.49 2.75
-6 -2 8 8.66 2.28
-6 -2 8 9.33 2.08
-6 2 8 8.22 2.36
6 -2 -8 11.06 2.62
6 -2 -8 9.68 2.12
6 2 -8 6.83 1.98
-6 -2 7 -0.1 1.44
-6 -2 7 0.69 0.99
-6 2 7 0.22 1.1
6 -2 -7 -0.93 1.51
6 -2 -7 -0.21 1.01
6 2 -7 0.17 1.2
-6 -2 6 2.91 1.61
-6 -2 6 1.96 0.95
-6 2 6 0.24 0.96
6 -2 -6 2.23 1.71
6 -2 -6 0.56 1.01
6 2 -6 1.37 1.26
-6 -2 5 10.16 2.31
-6 -2 5 11.46 1.52
-6 2 5 10.33 1.88
6 -2 -5 12.09 2.43
6 -2 -5 9.06 1.56
6 2 -5 10.41 1.83
6 2 -5 15.29 2.19
-6 -2 4 2.82 1.49
-6 -2 4 1.79 0.75
-6 2 4 2.29 1.1
-6 2 4 2.1 1.1
6 -2 -4 2.94 1.59
6 -2 -4 2.18 0.85
6 2 -4 2.53 1.11
6 2 -4 7.14 2.09
-6 -2 3 0.71 1.18
-6 -2 3 0.28 0.57
-6 2 3 1.41 1.02
6 -2 -3 1.27 1.36
6 -2 -3 0.91 0.77
6 -2 -3 -0.24 0.92
6 2 -3 -0.84 0.84
6 2 -3 21.8 2.53
-6 -2 2 1.12 1.1
-6 -2 2 1.42 0.66
-6 2 2 2.12 1.08
6 -2 -2 2.21 1.3
6 -2 -2 1.16 0.7
6 -2 -2 0.71 1.02
6 2 -2 1.63 1.09
6 2 -2 1.53 1.58
-6 -2 1 20.14 1.98
6 -2 -1 22.39 2.2
6 -2 -1 18.88 1.66
6 -2 -1 36.19 3.09
6 -2 -1 19.99 2.11
6 2 -1 19.79 2.06
6 2 -1 35.52 2.9
-6 -2 0 29.23 2.11
6 -2 0 28.77 2.22
6 -2 0 24.4 1.84
6 -2 0 55.5 3.53
6 -2 0 25.18 2.19
6 2 0 25.39 2.13
6 2 0 50.37 3.29
6 2 0 26.14 1.56
-6 -2 -1 18.45 1.74
-6 2 -1 16.21 1.55
6 -2 1 23.06 2.02
6 -2 1 39.32 3.35
6 -2 1 19.18 2.13
6 2 1 15.32 1.83
6 2 1 36.74 3
6 2 1 17.53 1.4
-6 -2 -2 1.29 0.78
-6 -2 -2 0.61 0.86
-6 2 -2 1.34 0.75
6 -2 2 1.66 0.99
6 -2 2 1.94 2.02
6 -2 2 -0.11 0.92
6 2 2 0.11 1.85
6 2 2 1.59 0.89
-6 -2 -3 27.27 1.76
-6 -2 -3 24.7 2.35
-6 2 -3 28.33 2.03
6 -2 3 29.72 1.83
6 -2 3 25.85 3.14
6 -2 3 22.59 2.3
6 2 3 25.89 2.94
6 2 3 24.13 1.86
-6 -2 -4 6.29 1.77
-6 2 -4 7.99 1.52
6 -2 4 10.68 2.86
6 -2 4 8.15 2.07
6 2 4 8.71 2.46
6 2 4 6.59 1.64
-6 -2 -5 4.66 1.47
-6 2 -5 6.49 1.6
6 -2 5 13.4 3.05
6 -2 5 7.82 1.82
6 2 5 10.87 2.98
6 2 5 7.07 1.55
-6 -2 -6 7.86 2.05
-6 2 -6 7.42 1.9
6 -2 6 10.13 2.86
6 -2 6 8.29 2.23
6 2 6 9.25 3.05
6 2 6 11.86 2.17
-6 -2 -7 0.21 1.25
-6 2 -7 -0.24 1.08
6 -2 7 1.99 2.45
6 -2 7 1.23 1.65
6 2 7 -0.32 2.11
6 2 7 1.15 1.45
-6 -2 -8 0.79 1.27
-6 2 -8 0.07 1.24
6 -2 8 9.1 2.96
6 -2 8 1.39 1.73
6 2 8 5.52 2.68
6 2 8 1.67 1.61
-6 -2 -9 42.6 3.53
-6 2 -9 45.36 3.63
6 -2 9 62.61 5.12
6 -2 9 48.55 4.03
6 2 9 58.83 4.86
6 2 9 48.92 3.86
-6 -2 -10 15.82 3.08
-6 2 -10 15.79 2.87
6 -2 10 15.33 4.24
6 -2 10 20.02 3.64
6 2 10 20.03 4.18
6 2 10 18.86 3.22
-6 -2 -11 23.27 3.56
-6 2 -11 22.73 3.3
-6 2 -11 25.15 4.21
6 -2 11 28.67 3.92
6 2 11 24.6 4.39
6 2 11 20.08 3.44
-6 -2 -12 -0.22 1.76
-6 2 -12 0.1 1.72
-6 2 -12 2.81 2.4
6 -2 12 -1.06 1.99
6 2 12 -2.99 2.9
6 2 12 0.09 1.96
-6 -2 -13 4.67 2.49
-6 2 -13 0.39 2.02
-6 2 -13 6.26 2.88
6 -2 13 3.82 2.43
6 2 13 8.32 3.63
6 2 13 1.86 2.23
-6 -3 13 6.73 2.46
-6 3 13 4.98 2.42
6 -3 -13 8.58 2.84
6 -3 -13 5.7 2.15
6 3 -13 8.74 2.76
-6 -3 12 3.11 2.04
-6 3 12 2.79 2.2
6 -3 -12 0.66 2.1
6 -3 -12 0.93 1.64
6 3 -12 -0.35 1.7
-6 -3 11 0.21 1.45
-6 3 11 1.76 2
6 -3 -11 1.16 2.15
6 -3 -11 4.85 1.87
6 3 -11 2.98 1.99
-6 -3 10 0.74 1.76
-6 3 10 -0.55 1.45
6 -3 -10 0.61 2
6 -3 -10 1.18 1.44
6 3 -10 -0.18 1.42
-6 -3 9 3.93 1.78
-6 3 9 4.49 1.89
6 -3 -9 3.51 2.22
6 -3 -9 8.39 2.15
6 3 -9 3.13 1.84
-6 -3 8 7.83 2.23
-6 3 8 8.26 2.4
6 -3 -8 8.67 2.53
6 -3 -8 9.19 2
6 3 -8 7.51 2.33
-6 -3 7 15.89 2.59
-6 3 7 14.42 2.46
6 -3 -7 14.74 2.82
6 -3 -7 13.25 2
6 3 -7 13.42 2.49
-6 -3 6 2.19 1.44
-6 3 6 1.75 1.24
6 -3 -6 0.41 1.38
6 -3 -6 3.15 1.19
6 3 -6 0.3 1.16
-6 -3 5 11.89 2.44
-6 3 5 10.79 2.08
6 -3 -5 12.43 2.49
6 -3 -5 10.54 1.68
6 3 -5 10.76 2.08
6 3 -5 18.6 2.48
-6 -3 4 30.77 2.89
-6 3 4 29.57 2.27
-6 3 4 25.74 2.52
6 -3 -4 29.4 2.88
6 -3 -4 28.9 1.95
6 3 -4 27.15 2.57
6 3 -4 40.71 2.99
-6 -3 3 2.16 1.25
-6 3 3 3.33 1.29
6 -3 -3 5.16 1.76
6 -3 -3 2.82 0.85
6 -3 -3 2.38 1.25
6 3 -3 3.28 1.36
6 3 -3 3.39 1.8
-6 -3 2 12.98 2.08
-6 3 2 13.9 1.99
6 -3 -2 11.74 2.13
6 -3 -2 11.81 1.37
6 -3 -2 11.07 1.93
6 3 -2 10.64 1.88
6 3 -2 40.99 3.13
-6 -3 1 0.3 0.93
-6 3 1 0.56 1.13
6 -3 -1 0.68 1.11
6 -3 -1 -0.07 0.64
6 -3 -1 -0.05 0.93
6 3 -1 0.44 0.85
6 3 -1 9.63 2.54
-6 -3 0 23.51 2.12
-6 3 0 21.27 1.57
-6 3 0 23.76 2.49
6 -3 0 22.92 2.32
6 -3 0 18.42 2.09
6 3 0 18.61 2.13
6 3 0 35.18 3.22
-6 -3 -1 13.76 1.75
-6 3 -1 13.12 1.38
-6 3 -1 13.23 2.32
6 -3 1 15.26 1.99
6 -3 1 10.53 1.93
6 3 1 12.23 1.83
6 3 1 15.27 2.85
-6 -3 -2 36.67 2.3
-6 -3 -2 36.56 2.74
-6 3 -2 36.68 2.05
-6 3 -2 36.61 2.97
6 -3 2 37.18 2.33
6 -3 2 32.01 2.8
6 3 2 31.52 2.51
6 3 2 47.16 3.58
-6 -3 -3 0.83 0.94
-6 -3 -3 0.18 0.91
-6 3 -3 0.91 0.77
-6 3 -3 0.53 1.43
6 -3 3 0.18 0.92
6 -3 3 0.26 1.13
6 3 3 2.29 2.01
-6 -3 -4 13.53 1.66
-6 -3 -4 11.8 2.13
-6 3 -4 15.36 1.81
-6 3 -4 14.2 2.62
6 -3 4 12.68 2.31
6 3 4 37.06 3.58
-6 -3 -5 6.19 1.95
-6 3 -5 7.2 1.67
-6 3 -5 8.79 2.34
6 -3 5 7.69 2.36
6 3 5 20.35 3.32
6 3 5 5.61 1.62
-6 -3 -6 4.8 1.62
-6 3 -6 4.74 1.37
-6 3 -6 6.43 2.14
6 -3 6 5.85 1.92
6 3 6 7.96 2.7
6 3 6 5.3 1.58
-6 -3 -7 16.91 2.65
-6 3 -7 16.14 2.33
-6 3 -7 19.79 3.28
6 -3 7 19.1 2.98
6 3 7 34.21 4.09
6 3 7 23.89 2.72
-6 -3 -8 33.86 3.38
-6 3 -8 28.01 2.89
-6 3 -8 33.9 3.84
6 -3 8 32.33 3.6
6 3 8 37.3 4.33
6 3 8 32.28 3.1
-6 -3 -9 0.15 1.49
-6 3 -9 1.41 1.49
-6 3 -9 2.21 2.19
6 -3 9 -0.96 1.75
6 3 9 2.98 2.61
6 3 9 1.03 1.57
-6 -3 -10 6.35 2.27
-6 3 -10 3.26 1.77
-6 3 -10 5.67 2.64
6 -3 10 3.8 2.23
6 3 10 2.77 2.6
6 3 10 5.43 2.05
-6 -3 -11 3.95 2.22
-6 3 -11 2.85 1.9
-6 3 -11 6.29 2.86
6 -3 11 4.53 2.41
6 3 11 4.47 2.81
6 3 11 1.99 1.94
-6 -3 -12 14.36 3.5
-6 3 -12 18.88 3.52
-6 3 -12 15.8 4.05
6 -3 12 16.46 3.63
6 3 12 15.27 4.7
6 3 12 15.41 3.68
-6 -3 -13 -2.19 1.67
-6 3 -13 -0.03 1.87
-6 3 -13 1.89 2.51
6 -3 13 1.36 2.05
6 3 13 6.16 3.36
6 3 13 -0.83 2.11
-6 -4 13 1.73 1.81
-6 4 13 -0.24 2.17
6 4 -13 0.73 2.06
-6 -4 12 10.14 2.77
-6 4 12 9.25 2.74
6 -4 -12 10.93 3.53
6 4 -12 9.63 3.11
-6 -4 11 3.85 2.06
-6 4 11 3.51 2.11
6 -4 -11 2.75 2.34
6 4 -11 3.36 2.12
-6 -4 10 6.08 2.34
-6 4 10 7.13 2.31
6 -4 -10 6.32 2.51
6 4 -10 2.49 1.95
-6 -4 9 4.09 2.07
-6 4 9 4.57 1.95
6 -4 -9 3 2.06
6 4 -9 4.62 2.04
-6 -4 8 8.18 2.48
-6 4 8 7.09 2.12
6 -4 -8 9.99 2.59
6 4 -8 6.92 2.1
-6 -4 7 1.18 1.75
-6 4 7 -0.15 1.25
6 -4 -7 0.32 1.66
6 4 -7 0.23 1.33
-6 -4 6 15.17 2.86
-6 4 6 16.66 2.55
6 -4 -6 16.34 2.87
6 4 -6 14.56 2.32
-6 -4 5 31.9 3.05
-6 4 5 32.96 3.11
6 -4 -5 32.54 3.29
6 4 -5 33.85 3.03
6 4 -5 42.5 3.26
-6 -4 4 1.28 1.36
-6 4 4 0.45 1.41
-6 4 4 -0.9 1.18
6 -4 -4 0.15 1.5
6 4 -4 1.37 1.3
6 4 -4 11.22 2.68
-6 -4 3 2.79 1.42
-6 4 3 3.03 1.34
6 -4 -3 3.21 1.75
6 -4 -3 4.22 1.52
6 4 -3 3.94 1.51
6 4 -3 4.11 2.03
-6 -4 2 0.48 1.3
-6 4 2 1.21 1.24
6 -4 -2 0.77 1.32
6 -4 -2 -0.15 1.15
6 4 -2 0.93 1.1
6 4 -2 3.67 1.96
-6 -4 1 16.25 2.35
-6 4 1 20.23 2.55
6 -4 -1 20.02 2.44
6 -4 -1 18.97 2.33
6 4 -1 17.45 2.29
6 4 -1 31.6 3.25
-6 -4 0 70.3 3.46
-6 4 0 69.97 3.77
6 -4 0 70.35 3.49
6 -4 0 67.76 3.68
6 4 0 62.57 3.51
6 4 0 117.91 4.85
-6 -4 -1 15.01 2.04
-6 4 -1 16.08 2.73
6 -4 1 18.61 2.21
6 -4 1 12.28 2.13
6 4 1 13.08 2.16
6 4 1 29.74 3.32
-6 -4 -2 6.73 1.86
-6 -4 -2 4.16 1.42
-6 4 -2 4.8 1.95
6 -4 2 6.74 1.7
6 -4 2 3.93 1.57
6 4 2 2.82 2.02
-6 -4 -3 1.15 1.12
-6 -4 -3 1.8 1.16
-6 4 -3 0.33 1.69
6 -4 3 1.78 1.14
6 -4 3 1.99 1.35
6 4 3 3.4 2.11
-6 -4 -4 11.25 1.8
-6 -4 -4 13.22 2.1
-6 4 -4 15.64 3.06
6 -4 4 10.43 2.37
6 4 4 10.29 3.13
-6 -4 -5 20.05 2.62
-6 4 -5 24.05 3.27
6 -4 5 18.43 2.98
6 4 5 41.26 3.87
-6 -4 -6 5.8 1.76
-6 4 -6 11.88 2.99
6 -4 6 8.34 2.33
6 4 6 23.14 3.54
-6 -4 -7 4.06 1.73
-6 4 -7 5.48 2.54
6 -4 7 3.59 1.86
6 4 7 5.32 2.73
-6 -4 -8 1.97 1.59
-6 4 -8 1.14 1.43
-6 4 -8 3.67 2.39
6 -4 8 3.41 2
6 4 8 4.13 2.73
-6 -4 -9 -0.94 1.51
-6 4 -9 0.38 1.57
-6 4 -9 -0.87 2.12
6 -4 9 2.14 2.04
6 4 9 1.86 2.55
-6 -4 -10 1.42 1.81
-6 4 -10 1.83 2.41
6 -4 10 -0.84 1.84
6 4 10 4.99 2.84
-6 -4 -11 -1.1 1.72
-6 4 -11 -0.37 2.33
6 -4 11 -1.78 1.87
6 4 11 5.8 3.07
-6 -4 -12 -0.28 1.83
-6 4 -12 4.19 2.73
6 -4 12 0.05 1.9
6 4 12 5.85 3.03
-6 -5 12 0.35 1.88
-6 5 12 0.1 2.12
6 -5 -12 3.15 2.42
6 5 -12 1.05 2.03
-6 -5 11 2.07 2.09
-6 5 11 2.46 2.1
6 -5 -11 2.63 2.16
6 5 -11 4.27 2.27
-6 -5 10 -1.04 1.48
-6 5 10 0.05 1.76
6 -5 -10 0.74 2
6 5 -10 1.24 1.94
-6 -5 9 3.2 1.84
-6 5 9 1.67 1.84
6 -5 -9 -0.25 1.91
6 5 -9 1.35 1.92
-6 -5 8 6.02 2.22
-6 5 8 5.14 2.06
6 -5 -8 7.43 2.54
6 5 -8 4.85 2.07
-6 -5 7 5.32 2.1
-6 5 7 10 2.54
6 -5 -7 7.13 2.27
6 5 -7 5.36 1.95
-6 -5 6 0.44 1.8
-6 5 6 -1.13 1.17
6 -5 -6 -0.83 1.67
6 5 -6 0.11 1.2
-6 -5 5 15.3 2.89
-6 5 5 14.12 2.49
6 -5 -5 14.91 2.9
6 5 -5 15.26 2.58
6 5 -5 12.16 2.89
-6 -5 4 4.63 2.08
-6 5 4 2.97 1.99
-6 5 4 3.34 1.6
6 -5 -4 2.92 1.89
6 5 -4 3.39 1.57
6 5 -4 3.17 2.09
-6 -5 3 7.06 2.16
-6 5 3 6.05 2.2
6 -5 -3 6.44 2.11
6 -5 -3 4.3 1.77
6 5 -3 4.89 1.7
6 5 -3 7.86 2.4
-6 -5 2 -0.55 1.35
-6 5 2 0.51 1.44
6 -5 -2 0.14 1.37
6 -5 -2 -0.81 1.08
6 5 -2 -0.21 1.17
6 5 -2 -0.11 1.95
-6 -5 1 13.08 2.42
-6 5 1 19.9 2.81
6 -5 -1 15.35 2.42
6 -5 -1 8.68 2.34
6 5 -1 8.62 2.16
6 5 -1 44.74 3.8
-6 -5 0 12.72 2.37
-6 5 0 12.84 2.67
6 -5 0 12.79 2.4
6 -5 0 10.68 2.25
6 5 0 8.98 2.11
6 5 0 22.11 3.34
-6 -5 -1 60.74 3.49
-6 5 -1 61.3 4.07
6 -5 1 52.25 3.17
6 -5 1 53.29 3.61
6 5 1 48.59 3.38
6 5 1 55.95 4.16
-6 -5 -2 1.62 1.35
-6 -5 -2 1.63 1.29
-6 5 -2 -0.17 1.71
6 -5 2 0.83 1.26
6 -5 2 1.62 1.27
6 5 2 3.87 2.23
-6 -5 -3 6.32 2.02
-6 -5 -3 6 1.82
-6 5 -3 6.24 2.28
6 -5 3 6.03 1.66
6 -5 3 8.19 2.07
6 5 3 9.57 2.7
-6 -5 -4 2.5 1.38
-6 -5 -4 4.55 1.69
-6 5 -4 5.8 2.28
6 -5 4 1.98 1.64
6 5 4 3.61 2.53
-6 -5 -5 -0.37 1.3
-6 5 -5 0.74 2.07
6 -5 5 -0.87 1.51
6 5 5 12.16 3.58
-6 -5 -6 2.51 1.58
-6 5 -6 2.31 2.3
6 -5 6 0.87 1.68
6 5 6 0.74 2.56
-6 -5 -7 3.37 1.64
-6 5 -7 3.82 2.56
6 -5 7 2.55 2.03
6 5 7 7.72 2.97
-6 -5 -8 3.47 1.9
-6 5 -8 1.56 2.42
6 -5 8 3.57 2.2
6 5 8 5.24 2.81
-6 -5 -9 0.54 1.78
-6 5 -9 2.01 2.5
6 -5 9 2.71 2.08
6 5 9 0.77 2.7
-6 -5 -10 2.02 2.07
-6 5 -10 4.49 2.79
6 -5 10 2.51 2.1
6 5 10 3.74 2.91
-6 -5 -11 1.03 2.08
-6 5 -11 3.95 3.23
6 -5 11 2.72 2.17
6 5 11 0.22 2.67
-6 5 -12 1.03 3.01
6 -5 12 0.28 1.93
6 5 12 -0.88 2.84
-6 -6 11 9.59 3.1
-6 6 11 5.24 2.47
6 -6 -11 10.32 3.08
6 6 -11 7.43 2.66
-6 -6 10 1.07 1.97
-6 6 10 1.04 1.88
6 -6 -10 0.25 2.15
6 6 -10 -0.53 1.85
-6 -6 9 1.07 1.91
-6 6 9 0.87 1.9
6 -6 -9 -0.18 2.14
6 6 -9 0.47 1.79
-6 -6 8 2.63 1.94
-6 6 8 0.11 1.7
6 -6 -8 1.11 2.02
6 6 -8 -0.32 1.79
-6 -6 7 0.93 2.06
-6 6 7 2.17 1.68
6 -6 -7 4.48 2.26
6 6 -7 2.31 1.89
-6 -6 6 22.93 3.58
-6 6 6 18.27 3.17
6 -6 -6 20.49 3.41
6 6 -6 20.9 3.09
-6 -6 5 0.91 1.92
-6 6 5 1.33 1.46
6 -6 -5 -0.31 1.84
6 6 -5 0.67 1.49
6 6 -5 -0.14 2.12
-6 -6 4 -0.82 1.63
-6 6 4 -0.88 2.16
-6 6 4 0.38 1.43
6 -6 -4 1.07 1.71
6 6 -4 -1.06 1.32
6 6 -4 6.08 2.41
-6 -6 3 -0.06 1.44
-6 6 3 -0.36 2.14
6 -6 -3 -0.5 1.61
6 -6 -3 -0.65 1.31
6 6 -3 -0.84 1.13
6 6 -3 2.74 2.29
-6 -6 2 0.88 1.47
-6 6 2 -0.31 2.05
6 -6 -2 -0.01 1.67
6 -6 -2 0.26 1.49
6 6 -2 -0.79 1.29
6 6 -2 4.2 2.38
-6 -6 1 44.6 3.57
-6 6 1 48.62 4.1
6 -6 -1 49.11 3.74
6 -6 -1 43.05 3.57
6 6 -1 35.91 3.28
6 6 -1 58.66 4.43
-6 -6 0 109.2 4.86
-6 6 0 124.98 5.44
6 -6 0 112.93 4.78
6 -6 0 100.94 4.93
6 6 0 96.22 4.7
6 6 0 186.62 6.65
-6 -6 -1 31.45 3.1
-6 6 -1 47.12 4.05
6 -6 1 29.65 3.03
6 -6 1 26.15 3.08
6 6 1 29.19 3.06
6 6 1 57.9 4.56
-6 -6 -2 -0.76 1.44
-6 -6 -2 0.48 1.13
-6 6 -2 -0.05 1.8
6 -6 2 0.97 1.4
6 -6 2 -0.96 1.4
6 6 2 1.85 2.37
-6 -6 -3 1.9 1.52
-6 -6 -3 1.16 1.4
-6 6 -3 -0.27 1.96
6 -6 3 2.29 1.52
6 -6 3 0.57 1.56
6 6 3 4.32 2.5
-6 -6 -4 6.62 1.84
-6 -6 -4 4.75 1.76
-6 6 -4 7.82 2.77
6 -6 4 6.29 2.1
6 6 4 6.86 2.93
-6 -6 -5 0.7 1.38
-6 6 -5 -0.32 2.19
6 -6 5 1.42 1.73
6 6 5 -0.89 2.51
-6 -6 -6 14.35 2.84
-6 6 -6 14.7 4.14
6 -6 6 17.63 3.52
6 6 6 28.95 4.51
-6 -6 -7 -0.56 1.5
-6 6 -7 -0.15 2.49
6 -6 7 -1.51 1.77
6 6 7 2.8 2.84
-6 -6 -8 -0.38 1.59
-6 6 -8 0.13 2.73
6 -6 8 -0.86 1.76
6 6 8 0.75 2.58
-6 -6 -9 2.34 1.92
-6 6 -9 1.16 3.05
6 -6 9 0.99 2.04
6 6 9 0.78 2.75
-6 -6 -10 -2.26 1.74
-6 6 -10 0.13 3.02
6 -6 10 1.11 2.16
6 6 10 -1.72 2.67
-6 -6 -11 14.52 3.59
-6 6 -11 16.29 5.28
6 -6 11 21.46 4.14
6 6 11 25.14 5.14
-6 -7 10 0.07 2.03
-6 7 10 1.02 1.97
6 -7 -10 -0.05 2.23
6 7 -10 -0.46 1.93
-6 -7 9 -0.63 1.92
-6 7 9 0.67 1.83
6 -7 -9 -2.18 2.06
6 7 -9 0.6 2.03
-6 -7 8 7.55 2.67
-6 7 8 8.32 2.49
6 -7 -8 11.1 3.48
6 7 -8 9.9 3.06
-6 -7 7 -2.31 1.8
-6 7 7 0.86 1.68
6 -7 -7 -1.9 1.84
6 7 -7 1.26 1.88
-6 -7 6 2.02 2.17
-6 7 6 2.38 1.69
6 -7 -6 3.84 2.33
6 7 -6 2.79 1.95
6 7 -6 3.33 2.65
-6 -7 5 1.01 2.03
-6 7 5 1.59 1.59
6 -7 -5 3.75 2.31
6 7 -5 1.56 1.72
6 7 -5 -0.67 2.31
-6 -7 4 -1.29 1.63
-6 7 4 -1.45 2.41
-6 7 4 0.68 1.5
6 -7 -4 3 2.14
6 7 -4 0.38 1.49
6 7 -4 1.78 2.41
-6 -7 3 2.1 1.77
-6 7 3 -1.1 2.49
6 -7 -3 1.74 1.97
6 -7 -3 1.93 1.65
6 7 -3 0.06 1.53
6 7 -3 13.52 3.57
-6 -7 2 5.73 2.16
-6 7 2 5.22 2.79
6 -7 -2 7.56 2.5
6 -7 -2 4.78 1.9
6 7 -2 7.95 2.26
6 7 -2 19.67 3.83
-6 -7 1 3.53 1.99
-6 7 1 1.64 2.62
6 -7 -1 3.67 2.03
6 -7 -1 4.08 1.82
6 7 -1 2.71 1.7
6 7 -1 3.49 2.72
-6 -7 0 0.4 1.58
-6 7 0 1.36 2.5
6 -7 0 0.7 1.66
6 -7 0 2.66 1.68
6 7 0 0.72 1.47
6 7 0 2.97 2.65
-6 -7 -1 -0.42 1.61
-6 -7 -1 0.14 1.39
-6 7 -1 0.07 2.41
6 -7 1 1.47 1.64
6 -7 1 0.53 1.56
6 7 1 -0.98 1.31
6 7 1 2.46 2.75
-6 -7 -2 18.27 2.94
-6 -7 -2 21.84 2.96
-6 7 -2 21.06 4.15
6 -7 2 21.79 3.01
6 -7 2 18.86 3.29
6 7 2 29.59 4.22
-6 -7 -3 9.58 2.55
-6 -7 -3 11.5 2.65
-6 7 -3 5.8 2.77
6 -7 3 9.45 2.46
6 -7 3 9.18 2.9
6 7 3 3.35 2.74
-6 -7 -4 -0.16 1.54
-6 -7 -4 0.2 1.52
-6 7 -4 1.97 2.57
6 -7 4 0.46 1.73
6 7 4 2.87 2.87
-6 -7 -5 -0.63 1.5
-6 7 -5 1.01 2.57
6 -7 5 -1.09 1.72
6 7 5 2.48 2.82
-6 -7 -6 4.23 2.01
-6 7 -6 2.27 2.89
6 -7 6 2.26 2.14
6 7 6 2.83 2.7
-6 -7 -7 -0.05 1.68
-6 7 -7 -1.73 2.64
6 -7 7 2.52 2.07
6 7 7 1.81 2.8
-6 -7 -8 10.72 3.14
-6 7 -8 7.13 3.58
6 -7 8 9.96 2.8
6 7 8 16.54 4.5
-6 -7 -9 -1.98 1.75
-6 7 -9 -0.85 3.12
6 -7 9 1.12 2.05
6 7 9 1.75 2.9
-6 7 -10 0.71 3.38
6 7 10 0.67 3.08
-6 -8 8 -1.69 1.72
-6 8 8 1.35 1.88
6 -8 -8 0.01 2.26
6 8 -8 1.56 2.06
-6 -8 7 -0.14 2.17
-6 8 7 -0.4 1.61
6 -8 -7 -0.43 2.17
6 8 -7 0.61 1.96
-6 -8 6 0.29 1.96
-6 8 6 1.72 1.77
6 -8 -6 0.14 2.15
6 8 -6 2.08 1.94
6 8 -6 1.69 2.79
-6 -8 5 0.47 2.12
-6 8 5 0.49 1.55
6 -8 -5 -0.01 1.94
6 8 -5 0.17 1.83
6 8 -5 1.78 2.69
-6 -8 4 10.24 3.05
-6 8 4 10.52 3.47
-6 8 4 10.15 2.83
6 -8 -4 15.24 3.56
6 8 -4 9.48 3
6 8 -4 13.56 4.19
-6 -8 3 1.44 1.89
-6 8 3 1.08 2.87
6 -8 -3 0.64 2.02
6 -8 -3 -1.18 1.65
6 8 -3 0.58 1.73
6 8 -3 -0.75 2.57
-6 -8 2 4.28 2.27
-6 8 2 3.59 3.04
6 -8 -2 6.98 2.55
6 -8 -2 5.51 2.39
6 8 -2 6.57 2.29
6 8 -2 8.6 3.02
-6 -8 1 26.47 3.66
-6 8 1 32.87 4.9
6 -8 -1 28.5 3.72
6 -8 -1 28.25 3.91
6 8 -1 31.61 3.5
6 8 -1 44.07 4.95
-6 -8 0 2.3 1.91
-6 8 0 3.92 3.04
6 -8 0 1.61 2.06
6 -8 0 -0.59 1.77
6 8 0 1.65 1.94
6 8 0 7.69 3.11
-6 -8 -1 16.65 3.21
-6 -8 -1 12.95 2.87
-6 8 -1 17.6 4.68
6 -8 1 15.62 3.1
6 -8 1 15.68 3.48
6 8 1 38.18 4.65
-6 -8 -2 9.3 2.9
-6 -8 -2 6.83 2.16
-6 8 -2 8.17 3.34
6 -8 2 8.07 2.66
6 -8 2 5.22 2.21
6 8 2 6 3.04
-6 -8 -3 2.24 1.89
-6 -8 -3 1.26 1.68
-6 8 -3 1.98 2.93
6 -8 3 0.16 1.96
6 -8 3 0.05 1.9
6 8 3 1.09 2.93
-6 -8 -4 0.91 1.73
-6 -8 -4 0.54 1.81
-6 8 -4 -1.12 2.71
6 -8 4 0.77 2.02
6 8 4 5.43 3.15
-6 -8 -5 -0.53 1.55
-6 8 -5 -3.47 3
6 -8 5 -1.17 1.84
6 8 5 -0.01 2.75
-6 -8 -6 1.47 1.91
-6 8 -6 2.88 3.37
6 -8 6 1.6 2.11
6 8 6 2.24 2.92
-6 -8 -7 -0.46 1.69
-6 8 -7 -0.11 3.47
6 -8 7 3.48 2.26
6 8 7 -1.36 2.65
-6 -8 -8 -0.76 1.9
-6 8 -8 -3.79 3.14
6 -8 8 0.55 2.1
6 8 8 0.9 2.95
-6 -9 6 -0.51 2.41
-6 9 6 0.25 1.74
6 -9 -6 2.75 2.64
6 9 -6 1.9 1.97
6 9 -6 0.24 3.14
-6 -9 5 -0.94 2.13
-6 9 5 0.28 1.65
6 -9 -5 -0.72 2.23
6 9 -5 -0.4 1.81
6 9 -5 3.72 3
-6 -9 4 0.19 2.28
-6 9 4 -0.65 1.53
6 -9 -4 1.06 2.37
6 9 -4 1.36 1.9
6 9 -4 1.54 2.89
-6 -9 3 3.89 2.43
-6 9 3 2.5 3.18
-6 9 3 1.68 1.7
6 -9 -3 2.83 2.49
6 9 -3 1.73 2
6 9 -3 2.77 2.91
-6 -9 2 0.6 2.18
-6 9 2 -2.3 2.93
6 -9 -2 2.52 2.35
6 -9 -2 0.11 1.93
6 9 -2 -2.09 1.52
6 9 -2 0.3 2.78
-6 -9 1 8.54 2.76
-6 9 1 11.63 3.78
6 -9 -1 10.72 3.43
6 -9 -1 8.71 2.95
6 9 -1 6.57 2.44
6 9 -1 14.42 4.47
-6 -9 0 9 2.76
-6 -9 0 7.58 2.35
-6 9 0 5.65 3.57
6 -9 0 10.57 3.31
6 -9 0 3.65 2.36
6 9 0 8.65 3.24
-6 -9 -1 6.43 2.58
-6 -9 -1 3.87 1.96
-6 9 -1 4.41 3.47
6 -9 1 9.56 3.1
6 -9 1 8.06 2.8
6 9 1 7.17 3.23
-6 -9 -2 0.92 2.03
-6 -9 -2 0.14 1.69
-6 9 -2 -3.55 2.9
6 -9 2 1.21 2.1
6 -9 2 2.77 2.26
6 9 2 -0.33 2.81
-6 -9 -3 4.29 2.24
-6 -9 -3 2.8 2.03
-6 9 -3 -3.33 2.95
6 -9 3 2.85 2.27
6 9 3 3.23 3.07
-6 -9 -4 1.34 2.05
-6 -9 -4 -0.24 1.67
-6 9 -4 -2.71 3.21
6 -9 4 -1.64 1.89
6 9 4 2 2.96
-6 -9 -5 -0.9 1.61
-6 9 -5 -5.02 3.14
6 -9 5 -0.46 2.11
6 9 5 1.36 3.02
-6 9 -6 0.26 3.71
6 -9 6 1.13 2.19
6 9 6 5.23 3.22
-6 10 1 -0.84 3.3
6 10 -1 6.05 3.37
-6 -10 0 0.13 1.65
-6 10 0 -2.65 3.3
6 -10 0 -1.41 1.89
6 10 0 3.49 3.25
-6 10 -1 1.8 3.69
6 10 1 1.69 3.07
-7 0 13 1.67 1.96
-7 0 13 1.02 1.99
7 0 -13 -0.74 2.15
7 0 -13 0.43 1.79
-7 0 12 2.82 2.06
7 0 -12 5.17 2.56
7 0 -12 1.36 1.86
-7 0 11 1.39 1.74
7 0 -11 0.39 2.09
7 0 -11 -0.68 1.58
-7 0 10 4.38 1.81
7 0 -10 3.31 2.3
7 0 -10 5.23 2.04
-7 0 9 -0.58 1.27
7 0 -9 -1.18 1.63
7 0 -9 0.87 1.54
-7 0 8 30.82 2.91
7 0 -8 29.83 3.34
7 0 -8 27.83 2.97
-7 0 7 0.03 0.98
7 0 -7 -0.24 1.73
7 0 -7 0.5 1.11
-7 0 6 3.66 1.23
7 0 -6 5.13 2.14
7 0 -6 4.45 1.46
-7 0 5 -0.28 0.71
7 0 -5 0.89 1.55
7 0 -5 -0.16 1.03
-7 0 4 3.89 1.14
7 0 -4 5.58 1.9
7 0 -4 3.54 1.29
-7 0 3 0.6 0.77
7 0 -3 -0.97 1.18
7 0 -3 0.52 0.96
7 0 -3 0.45 1.85
7 0 -2 7.28 1.93
7 0 -2 7.16 1.65
7 0 -2 12.65 2.71
7 0 -2 8.45 1.66
7 0 -1 0.79 1.05
7 0 -1 -0.46 0.79
7 0 -1 0.46 1.94
7 0 -1 0.37 0.9
7 0 0 1.79 1.09
7 0 0 -0.04 0.9
7 0 0 -0.76 1.91
7 0 0 0.26 0.87
-7 0 -1 0.16 0.76
7 0 1 -0.05 0.89
7 0 1 1.74 2.07
7 0 1 -0.55 0.82
-7 0 -2 6.69 1.3
-7 0 -2 4.94 1.58
7 0 2 3.48 2.14
7 0 2 6.6 1.65
-7 0 -3 -0.38 0.86
7 0 3 1.15 2.18
7 0 3 0.18 1.06
-7 0 -4 11.95 2.03
7 0 4 14.33 3.16
7 0 4 14.49 2.22
-7 0 -5 -1 1.04
7 0 5 0.17 2.17
7 0 5 0.05 1.28
-7 0 -6 11.65 2.41
7 0 6 14.98 3.63
7 0 6 12.78 2.49
-7 0 -7 0.58 1.28
7 0 7 1.5 2.69
7 0 7 1.29 1.59
-7 0 -8 0.26 1.46
7 0 8 22.07 4.32
7 0 8 0.31 1.55
-7 0 -9 0.3 1.59
7 0 9 1.36 2.88
7 0 9 0.98 1.87
-7 0 -10 4.84 2.09
7 0 10 8.3 3.51
7 0 10 6.5 2.52
-7 0 -11 -1.98 1.61
7 0 11 3.88 3.19
7 0 11 -1.22 2
-7 0 -12 -1.56 1.8
7 0 12 2.16 3.15
7 0 12 2.22 2.43
7 0 13 -3.67 2.88
-7 -1 13 -1.01 1.71
-7 1 13 0.07 1.9
7 -1 -13 -2.03 2.06
7 -1 -13 -1.27 1.69
7 1 -13 1.55 1.87
-7 -1 12 1.16 1.8
-7 1 12 0.08 1.83
7 -1 -12 -1.64 1.93
7 -1 -12 1.42 1.81
7 1 -12 0.36 1.85
-7 -1 11 3 2.14
-7 -1 11 3.73 1.98
-7 1 11 1.18 1.79
7 -1 -11 0.39 1.87
7 -1 -11 3.49 1.94
7 1 -11 0.33 1.66
-7 -1 10 1.58 1.9
-7 -1 10 1.95 1.53
-7 1 10 0.82 1.56
7 -1 -10 1.01 1.8
7 -1 -10 2.15 1.6
7 1 -10 3.26 1.85
-7 -1 9 5.79 2.18
-7 -1 9 3.01 1.49
-7 1 9 2.14 1.55
7 -1 -9 2.71 2.11
7 -1 -9 2.9 1.63
7 1 -9 3.4 1.83
-7 -1 8 14.62 3.03
-7 -1 8 12.83 2.3
-7 1 8 9.63 2.32
7 -1 -8 13.85 3.09
7 -1 -8 11.7 2.32
7 1 -8 10.77 3.03
7 1 -8 13.08 2.56
-7 -1 7 3.37 1.91
-7 -1 7 5.09 1.67
-7 1 7 1.86 1.27
7 -1 -7 4.03 2.13
7 -1 -7 4.97 1.62
7 1 -7 3 1.84
7 1 -7 3.77 1.54
-7 -1 6 30.04 3.27
-7 -1 6 30.6 2.34
-7 1 6 33.23 2.71
7 -1 -6 31.3 3.13
7 -1 -6 29.34 2.64
7 1 -6 28.56 3.32
7 1 -6 26.86 2.77
-7 -1 5 6.07 1.87
-7 -1 5 4.98 1.4
-7 1 5 5.19 1.64
7 -1 -5 8.24 2.28
7 -1 -5 4.83 1.39
7 1 -5 6.32 2.04
7 1 -5 5.3 1.62
-7 -1 4 13.15 2.39
-7 -1 4 13.01 1.63
-7 1 4 13.2 1.93
7 -1 -4 12.89 2.26
7 -1 -4 13.5 1.89
7 1 -4 10.86 1.93
7 1 -4 9.62 2.46
-7 -1 3 7.56 2.08
-7 -1 3 7.57 1.37
7 -1 -3 7.2 2.16
7 -1 -3 7.41 1.71
7 -1 -3 2.62 1.9
7 -1 -3 7.91 1.86
7 1 -3 7.68 1.81
7 1 -3 3.6 1.83
-7 -1 2 39.82 2.81
7 -1 -2 40.07 2.92
7 -1 -2 35.99 2.46
7 -1 -2 39.59 3.3
7 -1 -2 40.03 2.7
7 1 -2 36.75 2.75
-7 -1 1 3.84 1.3
7 -1 -1 5.09 1.49
7 -1 -1 2.26 1.04
7 -1 -1 9.56 2.72
7 -1 -1 4.06 1.3
7 1 -1 2.99 1.22
7 1 -1 8.87 2.63
7 1 -1 3.18 1.09
-7 -1 0 4.26 1.22
7 -1 0 4.45 1.33
7 -1 0 3.62 1.21
7 -1 0 1.83 2.05
7 -1 0 4.31 1.37
7 1 0 3.89 1.32
7 1 0 7.03 2.38
7 1 0 5.35 1.33
-7 -1 -1 11.01 1.56
-7 1 -1 7.58 1.55
7 -1 1 10.91 1.72
7 -1 1 5.59 2.22
7 -1 1 8.79 1.84
7 1 1 8.91 1.87
7 1 1 10.23 2.89
7 1 1 9.49 1.6
-7 -1 -2 7.56 1.31
-7 -1 -2 8.98 1.91
-7 1 -2 5.45 1.59
7 -1 2 7.53 1.53
7 -1 2 29.36 3.55
7 -1 2 7.19 1.79
7 1 2 34.43 3.55
7 1 2 6.66 1.6
-7 -1 -3 -0.06 0.98
-7 1 -3 0.76 0.92
7 -1 3 3.24 2.33
7 -1 3 0.86 1.1
7 1 3 6.47 2.44
7 1 3 1.04 1.15
-7 -1 -4 -0.4 1.01
-7 1 -4 0.14 0.96
7 -1 4 6.63 2.56
7 -1 4 0.7 1.17
7 1 4 6.21 2.61
7 1 4 0.2 1.22
-7 -1 -5 19.38 2.47
-7 1 -5 19.92 2.43
7 -1 5 22.69 3.76
7 -1 5 23.86 2.72
7 1 5 21.93 3.63
7 1 5 20.46 2.44
-7 -1 -6 3.78 1.62
-7 1 -6 4.1 1.53
7 -1 6 17.86 3.76
7 -1 6 4.4 1.79
7 1 6 19.18 3.76
7 1 6 4.78 1.78
-7 -1 -7 2.11 1.47
-7 1 -7 1.46 1.44
7 -1 7 2.69 2.91
7 -1 7 1.51 1.72
7 1 7 3.96 2.85
7 1 7 1.67 1.61
-7 -1 -8 0.09 1.41
-7 1 -8 -0.17 1.35
7 -1 8 8.02 3.25
7 -1 8 0.77 1.69
7 1 8 6.2 3.1
7 1 8 0.42 1.55
-7 -1 -9 5.19 1.92
-7 1 -9 8.2 2.58
7 -1 9 5.85 3.19
7 -1 9 9.53 2.53
7 1 9 8.96 3.41
7 1 9 6.31 2.22
-7 -1 -10 0.31 1.81
-7 1 -10 0.14 1.7
7 -1 10 1.35 3.09
7 -1 10 3.15 2.26
7 1 10 7.03 3.42
7 1 10 1.26 2.02
-7 -1 -11 -1.64 1.69
-7 1 -11 0.68 1.8
7 -1 11 1.23 3.22
7 -1 11 4.65 2.44
7 1 11 6.27 3.58
7 1 11 2.43 2.18
-7 -1 -12 -1.41 1.88
-7 1 -12 -1.36 1.81
7 -1 12 -6.18 2.98
7 -1 12 1.65 2.25
7 1 12 3.1 3.36
7 1 12 -0.16 2.22
7 -1 13 0.35 3.37
7 1 13 -1.07 3.07
-7 -2 12 1.41 1.69
-7 2 12 1.96 2.09
7 -2 -12 -3.62 1.84
7 -2 -12 1.57 1.81
7 2 -12 0.35 1.92
-7 -2 11 4.02 2.04
-7 2 11 3.72 2.26
7 -2 -11 4.39 2.26
7 -2 -11 3.83 1.85
7 2 -11 3.21 1.95
-7 -2 10 2.37 1.98
-7 2 10 2.04 1.72
7 -2 -10 1.53 2.21
7 -2 -10 2.38 1.7
7 2 -10 0.91 1.62
-7 -2 9 8.16 2.42
-7 2 9 8.55 2.65
7 -2 -9 11.64 2.97
7 -2 -9 6.6 2.15
7 2 -9 11.36 2.77
-7 -2 8 14.59 3.06
-7 2 8 8.71 2.38
7 -2 -8 10.35 3
7 -2 -8 11.78 2.37
7 2 -8 10.5 2.6
-7 -2 7 22.99 3.24
-7 2 7 20.88 2.66
7 -2 -7 20.97 3.25
7 -2 -7 19.22 2.33
7 2 -7 17.3 2.7
-7 -2 6 -0.9 1.4
-7 2 6 -0.17 1.07
7 -2 -6 0.26 1.71
7 -2 -6 1.79 1.06
7 2 -6 -0.43 1.05
-7 -2 5 6.78 2.17
-7 2 5 7.78 1.91
7 -2 -5 9.49 2.55
7 -2 -5 6.84 1.71
7 2 -5 5.01 1.6
-7 -2 4 0.03 1.31
-7 2 4 0.92 1.09
-7 2 4 0.35 1.02
7 -2 -4 -0.1 1.47
7 -2 -4 -0.2 0.8
7 2 -4 0.06 1.05
7 2 -4 0.75 1.82
-7 -2 3 0.45 1.28
-7 2 3 1.02 1.07
7 -2 -3 -0.34 1.32
7 -2 -3 0.33 0.86
7 -2 -3 -1.28 0.98
7 2 -3 0.21 0.95
7 2 -3 1.9 1.81
-7 -2 2 11.53 2.11
7 -2 -2 10.16 2.18
7 -2 -2 8.99 1.6
7 -2 -2 11.22 2.01
7 2 -2 9.04 1.84
7 2 -2 10.81 2.83
-7 -2 1 34.93 2.62
7 -2 -1 34.52 2.72
7 -2 -1 31.35 2.2
7 -2 -1 30 3.52
7 -2 -1 34.63 2.81
7 2 -1 31.38 2.68
7 2 -1 33.12 3.44
-7 -2 0 1.93 1.05
7 -2 0 1.47 1.15
7 -2 0 1.04 0.88
7 -2 0 -0.4 2.03
7 -2 0 -0.38 1.03
7 2 0 0.33 1.07
7 2 0 2.11 2.06
-7 -2 -1 0.18 0.85
-7 2 -1 -1.42 0.61
7 -2 1 -0.42 0.9
7 -2 1 -0.5 1.09
7 2 1 -0.55 0.89
7 2 1 19.12 3.16
-7 -2 -2 3.49 1.12
-7 -2 -2 3.37 1.4
-7 2 -2 1.95 0.94
7 -2 2 3 1.18
7 -2 2 3.09 2.39
7 -2 2 4.37 1.53
7 2 2 9.36 2.86
-7 -2 -3 8.3 2.01
-7 2 -3 5.65 1.55
7 -2 3 8.75 2.94
7 -2 3 7.18 1.78
7 2 3 8.8 2.66
7 2 3 5.91 1.69
-7 -2 -4 1.11 1.22
-7 2 -4 0.8 1.04
7 -2 4 -1.89 2.36
7 -2 4 0.68 1.2
7 2 4 0.03 2.26
7 2 4 1.34 1.19
-7 -2 -5 4.78 1.56
-7 2 -5 3.93 1.39
7 -2 5 6.21 2.87
7 -2 5 7.2 1.99
7 2 5 7.58 2.76
7 2 5 5 1.59
-7 -2 -6 14.05 2.55
-7 2 -6 16.19 2.41
7 -2 6 18.69 4.08
7 -2 6 18.93 2.94
7 2 6 18.47 3.6
7 2 6 14.79 2.4
-7 -2 -7 3.58 1.66
-7 2 -7 9.06 2.17
7 -2 7 20.88 4
7 -2 7 8.11 2.32
7 2 7 21.16 4.09
7 2 7 6.43 1.88
-7 -2 -8 2.77 1.74
-7 2 -8 4.59 1.76
7 -2 8 14.02 4.07
7 -2 8 5.85 2.35
7 2 8 7.3 3.13
7 2 8 4.4 1.79
-7 -2 -9 3.71 1.86
-7 2 -9 2.47 1.69
7 -2 9 14.03 4.51
7 -2 9 4.49 2.19
7 2 9 9.4 3.24
7 2 9 3.83 2.05
-7 -2 -10 0.6 1.74
-7 2 -10 1.13 1.67
7 -2 10 1.47 3.31
7 -2 10 1.74 2.22
7 2 10 0.74 2.79
7 2 10 0.72 1.84
-7 -2 -11 0.48 1.87
-7 2 -11 -0.58 1.79
-7 2 -11 3.04 2.63
7 -2 11 0.87 2.31
7 2 11 2.65 3.38
7 2 11 2.98 2.25
-7 -2 -12 6.47 2.67
-7 2 -12 9.57 3.17
-7 2 -12 10.17 3.33
7 -2 12 7.82 2.97
7 2 12 7.75 3.65
7 2 12 6.71 2.77
-7 -3 12 2.52 1.94
-7 3 12 1.24 1.94
7 -3 -12 3.49 2.43
7 3 -12 3.67 2.34
-7 -3 11 0.64 1.81
-7 3 11 -2.59 1.46
7 -3 -11 0.66 2.06
7 3 -11 -0.11 1.72
-7 -3 10 14.05 3.35
-7 3 10 13.71 3.29
7 -3 -10 11.68 3.08
7 3 -10 15.3 2.86
-7 -3 9 1.48 1.75
-7 3 9 1.51 1.55
7 -3 -9 0.04 2.07
7 -3 -9 1.01 1.34
7 3 -9 -0.53 1.43
-7 -3 8 1.32 1.72
-7 3 8 -0.15 1.39
7 -3 -8 0.06 1.76
7 -3 -8 0.64 1.15
7 3 -8 0.32 1.56
-7 -3 7 2.81 1.65
-7 3 7 2.27 1.46
7 -3 -7 4.13 2.14
7 -3 -7 3.16 1.37
7 3 -7 1.83 1.55
-7 -3 6 30.24 3.15
-7 3 6 27.69 2.9
7 -3 -6 31.34 3.28
7 -3 -6 28.66 2.49
7 3 -6 27.72 3
-7 -3 5 7.6 2.16
-7 3 5 3.81 1.62
7 -3 -5 6.47 2.17
7 -3 -5 5.51 1.51
7 3 -5 8.57 2.21
-7 -3 4 5.31 1.84
-7 3 4 4.51 1.48
-7 3 4 5.02 1.62
7 -3 -4 7.87 2.1
7 -3 -4 3.8 1.12
7 3 -4 2.43 1.42
7 3 -4 4.73 2.05
-7 -3 3 0.65 1.4
-7 3 3 1.96 1.3
7 -3 -3 1.83 1.49
7 -3 -3 0.89 0.89
7 -3 -3 0.24 1.25
7 3 -3 -0.6 0.9
7 3 -3 1.27 1.91
-7 -3 2 4.01 1.52
-7 3 2 6.42 1.67
7 -3 -2 6.16 1.83
7 -3 -2 4.4 1.35
7 -3 -2 4.28 1.54
7 3 -2 3.25 1.45
7 3 -2 3.33 2.12
-7 -3 1 19.98 2.35
-7 3 1 19.7 2.45
7 -3 -1 19.86 2.6
7 -3 -1 17.13 1.79
7 -3 -1 15.26 2.53
7 3 -1 13.96 2.27
7 3 -1 46.18 3.71
-7 -3 0 12.44 2.09
-7 3 0 11.91 1.54
-7 3 0 12 2.4
7 -3 0 10.24 2.18
7 -3 0 11.12 2.33
7 3 0 10.35 2.08
7 3 0 16.73 3.13
-7 -3 -1 44.89 2.84
-7 3 -1 41.85 2.33
-7 3 -1 41.46 3.29
7 -3 1 44.77 2.86
7 -3 1 40.88 3.17
7 3 1 36.95 3.02
7 3 1 53.31 4
-7 -3 -2 2.72 1.15
-7 -3 -2 1.75 1.29
-7 3 -2 0.46 0.81
-7 3 -2 2.9 1.72
7 -3 2 2.5 1.27
7 -3 2 3.2 1.56
7 3 2 2.63 2.36
-7 -3 -3 3.73 1.44
-7 3 -3 5.49 1.42
-7 3 -3 5.08 2.02
7 -3 3 5.57 1.81
7 3 3 8.55 2.69
-7 -3 -4 4.36 1.61
-7 3 -4 4.72 1.3
-7 3 -4 4.07 2.05
7 -3 4 4.88 1.91
7 3 4 5.65 2.69
-7 -3 -5 0.86 1.35
-7 3 -5 1.1 1.08
-7 3 -5 2.21 2.01
7 -3 5 0.97 1.47
7 3 5 5.22 2.54
-7 -3 -6 1.07 1.43
-7 3 -6 -0.32 1.09
-7 3 -6 1.72 1.88
7 -3 6 0.61 1.63
7 3 6 20 3.81
-7 -3 -7 5.92 1.88
-7 3 -7 4.35 1.56
-7 3 -7 10.32 2.83
7 -3 7 5.39 2.23
7 3 7 3.74 2.78
-7 -3 -8 1.06 1.62
-7 3 -8 0.33 1.36
-7 3 -8 1.5 2.14
7 -3 8 1.83 1.99
7 3 8 0.25 2.76
-7 -3 -9 -0.01 1.62
-7 3 -9 0.72 1.52
-7 3 -9 -1.34 1.94
7 -3 9 -1.3 1.79
7 3 9 -0.93 2.7
-7 -3 -10 -1.1 1.48
-7 3 -10 -0.82 1.53
-7 3 -10 1.06 2.24
7 -3 10 -0.15 2.19
7 3 10 3.23 2.84
-7 -3 -11 5.94 2.31
-7 3 -11 7.36 2.34
-7 3 -11 12.24 3.48
7 -3 11 4.09 2.59
7 3 11 14.53 4.65
-7 -3 -12 1.63 2.26
-7 3 -12 0.72 1.82
-7 3 -12 0.58 2.55
7 -3 12 3.33 2.45
7 3 12 1.16 3.28
-7 4 12 -0.6 2.04
-7 -4 11 5.08 2.32
-7 4 11 4.38 2.29
7 -4 -11 3.1 2.45
7 4 -11 4.54 2.28
-7 -4 10 0.93 1.94
-7 4 10 1.66 1.87
7 -4 -10 0.55 2.17
7 4 -10 -0.46 1.79
-7 -4 9 1.57 1.9
-7 4 9 0.92 1.65
7 -4 -9 -0.51 1.98
7 4 -9 0.62 1.77
-7 -4 8 0.47 1.88
-7 4 8 -0.41 1.47
7 -4 -8 0.97 2.11
7 4 -8 2.11 1.68
-7 -4 7 0.22 1.72
-7 4 7 1.88 1.53
7 -4 -7 3 2.07
7 4 -7 1.32 1.43
-7 -4 6 0.97 1.74
-7 4 6 1.92 1.52
7 -4 -6 0.98 1.7
7 4 -6 0.77 1.38
-7 -4 5 6.99 2.12
-7 4 5 6.73 1.91
7 -4 -5 8.51 2.44
7 4 -5 4.83 1.84
-7 -4 4 2.57 1.71
-7 4 4 0.72 1.38
-7 4 4 2.43 1.51
7 -4 -4 1.71 1.8
7 4 -4 3.66 1.48
7 4 -4 2.93 2.12
-7 -4 3 50.84 3.71
-7 4 3 49.92 3.16
7 -4 -3 52.6 3.74
7 -4 -3 50.48 3.62
7 4 -3 46.69 3.5
7 4 -3 67.38 4.21
-7 -4 2 0.87 1.4
-7 4 2 0.02 1.24
7 -4 -2 -0.14 1.37
7 -4 -2 0.05 1.31
7 4 -2 -0.19 1
7 4 -2 -1.25 2.01
-7 -4 1 -0.3 1.24
-7 4 1 0.08 1.34
7 -4 -1 0.02 1.35
7 -4 -1 -1.4 1.02
7 4 -1 -0.18 1.19
7 4 -1 -0.72 2.11
-7 -4 0 2.86 1.47
-7 4 0 3.26 1.72
7 -4 0 3.34 1.55
7 -4 0 3.23 1.43
7 4 0 2.94 1.48
7 4 0 1.67 2.3
-7 -4 -1 0.75 1.19
-7 4 -1 1.12 1.66
7 -4 1 0.48 1.28
7 -4 1 0.88 1.26
7 4 1 1.64 1.35
7 4 1 2.97 2.52
-7 -4 -2 0.96 1.2
-7 -4 -2 0.86 1.27
-7 4 -2 1.08 1.67
7 -4 2 1.67 1.23
7 -4 2 1.14 1.56
7 4 2 4.68 2.67
-7 -4 -3 33.89 2.71
-7 -4 -3 27.94 2.8
-7 4 -3 37.56 3.78
7 -4 3 28.18 3.12
7 4 3 54.08 4.49
-7 -4 -4 0.08 1.09
-7 4 -4 0.52 1.9
7 -4 4 1.28 1.6
7 4 4 -0.26 2.33
-7 -4 -5 7.99 2.32
-7 4 -5 12.66 3.07
7 -4 5 9.73 2.84
7 4 5 8.81 3.01
-7 -4 -6 0.34 1.38
-7 4 -6 1.77 2.13
7 -4 6 1.06 1.84
7 4 6 3.31 2.97
-7 -4 -7 0.02 1.35
-7 4 -7 1.3 2.28
7 -4 7 1.06 2.06
7 4 7 0.54 2.81
-7 -4 -8 3.59 1.95
-7 4 -8 8.32 3.02
7 -4 8 6.79 2.64
7 4 8 4.06 3.05
-7 -4 -9 0.63 1.63
-7 4 -9 0.05 2.33
7 -4 9 1.77 2.25
7 4 9 0.71 2.92
-7 -4 -10 -0.37 1.85
-7 4 -10 1.05 2.54
7 -4 10 1.96 2.23
7 4 10 0.22 2.8
-7 -4 -11 1.16 1.92
-7 4 -11 4.28 2.98
7 -4 11 4.32 2.52
7 4 11 5.21 3.17
-7 -5 11 0.92 2.03
-7 5 11 0.62 1.99
7 -5 -11 1.77 2.45
7 5 -11 2.84 2.06
-7 -5 10 8.56 2.74
-7 5 10 6.44 2.53
7 -5 -10 4.12 2.64
7 5 -10 6.51 2.44
-7 -5 9 3.55 2.2
-7 5 9 1.91 1.92
7 -5 -9 2.89 2.12
7 5 -9 2.13 1.99
-7 -5 8 5.06 2.14
-7 5 8 4.38 2.05
7 -5 -8 6.68 2.43
7 5 -8 4.68 2.01
-7 -5 7 -0.37 1.56
-7 5 7 3.45 1.85
7 -5 -7 1.92 1.96
7 5 -7 3.56 1.78
-7 -5 6 1.54 1.85
-7 5 6 1.28 1.42
7 -5 -6 1.63 2.06
7 5 -6 -0.7 1.4
-7 -5 5 2.3 1.94
-7 5 5 3.94 1.71
7 -5 -5 3.12 1.97
7 5 -5 4.8 1.98
-7 -5 4 1.4 1.81
-7 5 4 -0.33 1.37
7 -5 -4 1.61 1.93
7 5 -4 0.74 1.44
7 5 -4 0.91 2.15
-7 -5 3 1.37 1.72
-7 5 3 1.48 1.75
7 -5 -3 1.28 1.75
7 -5 -3 2.1 1.68
7 5 -3 0.67 1.45
7 5 -3 2.32 2.25
-7 -5 2 13.68 2.75
-7 5 2 12.22 2.71
7 -5 -2 13.05 2.72
7 -5 -2 16.46 2.81
7 5 -2 13.66 2.55
7 5 -2 14.22 3.44
-7 -5 1 9.97 2.67
-7 5 1 10.65 2.65
7 -5 -1 8.77 2.59
7 -5 -1 9.08 2.22
7 5 -1 8.82 2.32
7 5 -1 15.45 3.44
-7 -5 0 -0.01 1.36
-7 5 0 -0.27 1.58
7 -5 0 1.18 1.39
7 -5 0 -1.29 1.12
7 5 0 -1.03 1.21
7 5 0 -2.27 2.28
-7 -5 -1 15.29 2.64
-7 5 -1 13.35 3.05
7 -5 1 15.86 2.51
7 -5 1 9.66 2.72
7 5 1 10.18 2.44
7 5 1 16.75 3.73
-7 -5 -2 1.53 1.54
-7 -5 -2 1.92 1.53
-7 5 -2 3.39 2.04
7 -5 2 5.09 1.64
7 -5 2 3.39 1.76
7 5 2 12.76 3.77
-7 -5 -3 1.31 1.47
-7 -5 -3 1.05 1.33
-7 5 -3 1.22 1.94
7 -5 3 -0.44 1.44
7 5 3 1.4 2.59
-7 -5 -4 2.51 1.56
-7 5 -4 2.08 2.18
7 -5 4 3.41 2.1
7 5 4 0.3 2.7
-7 -5 -5 1.12 1.46
-7 5 -5 0.5 2.04
7 -5 5 1.35 1.88
7 5 5 0.2 2.7
-7 -5 -6 0.03 1.49
-7 5 -6 2.28 2.34
7 -5 6 2.61 2.11
7 5 6 2.2 2.83
-7 -5 -7 0.72 1.5
-7 5 -7 -0.07 2.26
7 -5 7 0.19 1.95
7 5 7 3.02 2.92
-7 -5 -8 0.98 1.7
-7 5 -8 0.1 2.34
7 -5 8 0.35 1.99
7 5 8 1.77 2.91
-7 -5 -9 1.54 1.99
-7 5 -9 -1.11 2.4
7 -5 9 1.47 2.11
7 5 9 1.13 2.91
-7 -5 -10 1.76 2.06
-7 5 -10 0.63 2.69
7 -5 10 1.39 2.15
7 5 10 3.36 3
7 5 11 2.03 3.12
-7 -6 10 2.04 2.29
-7 6 10 0.98 2.04
7 -6 -10 2.14 2.26
7 6 -10 2.71 2.23
-7 -6 9 4.8 2.42
-7 6 9 9.28 2.73
7 -6 -9 12.83 3.68
7 6 -9 7.96 2.76
-7 -6 8 -0.58 1.89
-7 6 8 -0.47 1.63
7 -6 -8 -0.72 2.03
7 6 -8 -1.26 1.63
-7 -6 7 -0.17 1.93
-7 6 7 2.04 1.69
7 -6 -7 -1.64 2.03
7 6 -7 -0.11 1.69
-7 -6 6 5.81 2.41
-7 6 6 5.13 2.14
7 -6 -6 9.07 2.81
7 6 -6 6.84 2.39
-7 -6 5 -0.34 1.82
-7 6 5 0.61 1.55
7 -6 -5 -1.5 1.8
7 6 -5 -0.65 1.55
7 6 -5 -1.28 2.2
-7 -6 4 0.6 1.64
-7 6 4 2.21 1.78
7 -6 -4 3.74 2.21
7 6 -4 2.69 1.82
7 6 -4 3.72 2.54
-7 -6 3 0.3 1.53
-7 6 3 -1.25 2.13
7 -6 -3 1.06 1.86
7 -6 -3 -0.63 1.42
7 6 -3 0.9 1.42
7 6 -3 1 2.39
-7 -6 2 0.95 1.68
-7 6 2 0.13 2.12
7 -6 -2 -0.44 1.66
7 -6 -2 -0.46 1.54
7 6 -2 0.03 1.39
7 6 -2 0.14 2.46
-7 -6 1 0.53 1.59
-7 6 1 0.2 1.87
7 -6 -1 0.87 1.72
7 -6 -1 -2.2 1.39
7 6 -1 -0.01 1.51
7 6 -1 5.19 2.74
-7 -6 0 0.88 1.62
-7 6 0 0.3 1.82
7 -6 0 0.99 1.61
7 -6 0 -1.08 1.43
7 6 0 -0.23 1.52
7 6 0 1.71 2.73
-7 -6 -1 16.05 3
-7 6 -1 15.48 3.34
7 -6 1 12.81 2.63
7 -6 1 16.7 2.97
7 6 1 17.27 2.9
7 6 1 18.92 4.13
-7 -6 -2 -0.36 1.42
-7 -6 -2 0.19 1.39
-7 6 -2 -1.27 1.69
7 -6 2 -1.29 1.27
7 -6 2 0.88 1.54
7 6 2 -0.19 2.69
-7 -6 -3 0.16 1.55
-7 -6 -3 0.15 1.43
-7 6 -3 0.98 2.11
7 -6 3 1.6 1.9
7 6 3 -0.85 2.67
-7 -6 -4 0.41 1.36
-7 6 -4 -0.08 2.1
7 -6 4 1.75 1.94
7 6 4 3.31 2.97
-7 -6 -5 -0.77 1.46
-7 6 -5 1.46 2.37
7 -6 5 0.56 1.87
7 6 5 1.6 2.92
-7 -6 -6 12.87 2.88
-7 6 -6 14.41 4.64
7 -6 6 17.23 3.48
7 6 6 19.29 4.56
-7 -6 -7 1.87 1.84
-7 6 -7 0.83 2.7
7 -6 7 0.29 1.92
7 6 7 -1.14 2.68
-7 -6 -8 2.32 2.02
-7 6 -8 -0.39 2.8
7 -6 8 -0.09 1.9
7 6 8 0.42 2.85
-7 -6 -9 -1.37 1.74
-7 6 -9 -0.12 3.02
7 -6 9 0.98 2.06
7 6 9 4.13 3
7 6 10 0.63 3.07
-7 -7 8 1.36 2.22
-7 7 8 0.74 1.97
7 -7 -8 1.17 2.32
7 7 -8 -0.13 1.96
-7 -7 7 1.71 2.24
-7 7 7 3.9 2.16
7 -7 -7 4.51 2.39
7 7 -7 3.88 2.19
-7 -7 6 0.38 1.99
-7 7 6 -0.4 1.46
7 -7 -6 1.39 2.13
7 7 -6 1.53 2.02
-7 -7 5 -1 1.88
-7 7 5 1.2 1.65
7 -7 -5 0.66 2.19
7 7 -5 2.05 1.99
7 7 -5 3.05 2.72
-7 -7 4 0.5 1.84
-7 7 4 1.73 1.63
7 -7 -4 -1.22 1.89
7 7 -4 0.82 1.78
7 7 -4 -0.49 2.48
-7 -7 3 -1.53 1.74
-7 7 3 -2.65 2.47
7 -7 -3 1.2 2.04
7 -7 -3 1.56 1.89
7 7 -3 0.91 1.78
7 7 -3 -0.49 2.55
-7 -7 2 0.84 1.99
-7 7 2 -1.19 2.54
7 -7 -2 1.14 2.02
7 -7 -2 1.16 1.79
7 7 -2 2.53 1.81
7 7 -2 5.09 2.97
-7 -7 1 0.07 1.61
-7 7 1 -2.18 2.38
7 -7 -1 2.14 2.03
7 -7 -1 3.35 1.93
7 7 -1 1.08 1.69
7 7 -1 -0.88 2.75
-7 -7 0 0.07 1.76
-7 7 0 1.94 2.64
7 -7 0 0.7 1.81
7 -7 0 2.81 2
7 7 0 1.24 1.78
7 7 0 4 3.06
-7 -7 -1 0.74 1.76
-7 -7 -1 -0.42 1.43
-7 7 -1 0.58 2.26
7 -7 1 0.86 1.74
7 -7 1 -0.08 1.64
7 7 1 -1.32 2.73
-7 -7 -2 4.57 2.06
-7 -7 -2 2.11 1.7
-7 7 -2 2.86 2.42
7 -7 2 4.64 2.18
7 7 2 4.63 3.09
-7 -7 -3 0.23 1.65
-7 -7 -3 -1.23 1.4
-7 7 -3 1.79 2.47
7 -7 3 -1.65 1.67
7 7 3 -1.7 2.76
-7 -7 -4 0.65 1.71
-7 7 -4 -0.42 2.36
7 -7 4 -0.09 2.01
7 7 4 -0.94 2.99
-7 -7 -5 2.22 1.85
-7 7 -5 -1.22 2.51
7 -7 5 1.44 2.2
7 7 5 1.46 3.04
-7 -7 -6 0.72 1.74
-7 7 -6 -0.34 2.81
7 -7 6 1.62 2.08
7 7 6 -3.26 2.72
-7 -7 -7 -0.81 1.7
-7 7 -7 0.46 3.06
7 -7 7 0.62 1.97
7 7 7 1.75 2.95
-7 -7 -8 1.46 2.11
-7 7 -8 -2.4 3.09
7 -7 8 0.03 2.07
7 7 8 3.26 3.25
-7 -8 6 1.67 2.25
-7 8 6 2.95 2.04
7 -8 -6 2.86 2.51
7 8 -6 3.53 2.27
-7 -8 5 -0.12 2.13
-7 8 5 0.21 1.72
7 -8 -5 -0.79 2.12
7 8 -5 -0.86 1.68
7 8 -5 1.57 2.91
-7 -8 4 -1.92 1.84
-7 8 4 0.61 1.74
7 -8 -4 1.57 2.3
7 8 -4 0.4 1.85
7 8 -4 4.56 3.17
-7 -8 3 11.37 3.48
-7 8 3 7.41 3.39
-7 8 3 9.28 3.05
7 -8 -3 11.12 3.49
7 -8 -3 12.92 3.7
7 8 -3 10.5 2.83
7 8 -3 16.98 4.53
-7 -8 2 4.7 2.51
-7 8 2 5.57 3.36
7 -8 -2 3.69 2.5
7 -8 -2 4.46 2.46
7 8 -2 7.03 2.53
7 8 -2 9.62 3.46
-7 -8 1 -0.58 1.93
-7 8 1 -2.06 2.78
7 -8 -1 -0.08 2.03
7 -8 -1 -1.9 1.66
7 8 -1 -2.35 1.47
7 8 -1 -0.67 2.85
-7 -8 0 0.49 2
-7 8 0 -3.65 2.72
7 -8 0 0.26 1.79
7 -8 0 0.37 1.96
7 8 0 1.52 1.86
7 8 0 -1.89 2.84
-7 -8 -1 3.58 2.31
-7 -8 -1 4.1 2.08
-7 8 -1 3.2 3.11
7 -8 1 7.04 2.49
7 -8 1 3.12 2.25
7 8 1 1.46 3.05
-7 -8 -2 15.12 3.27
-7 -8 -2 9.42 2.77
-7 8 -2 11.73 3.55
7 -8 2 17.76 3.67
7 8 2 15.44 4.7
-7 -8 -3 7.78 2.35
-7 -8 -3 7.25 2.5
-7 8 -3 5.34 3.24
7 -8 3 8.88 2.83
7 8 3 14.42 4.32
-7 -8 -4 0.57 1.64
-7 8 -4 -1.9 2.91
7 -8 4 0.62 2.01
7 8 4 2.46 3.21
-7 -8 -5 -0.68 1.66
-7 8 -5 0.13 3.14
7 -8 5 -1.67 1.83
7 8 5 -0.31 3.02
-7 -8 -6 -0.96 1.73
-7 8 -6 -0.67 3.07
7 -8 6 0.62 2.01
7 8 6 0.72 2.88
-7 -9 3 -0.7 2.11
-7 9 3 -0.27 1.72
7 9 -3 -0.63 1.91
7 9 -3 2.39 3.31
-7 -9 2 5.16 2.72
-7 9 2 -1.84 3.21
7 -9 -2 4.49 2.72
7 -9 -2 7.52 2.77
7 9 -2 6.83 2.49
7 9 -2 3.55 3.35
-7 -9 1 -1.35 2.13
-7 9 1 -0.41 3.3
7 -9 -1 1.47 2.3
7 -9 -1 -1.25 1.99
7 9 -1 -1.11 1.7
7 9 -1 1.94 3.34
-7 -9 0 0.4 2.05
-7 -9 0 1.47 1.74
-7 9 0 -1.18 3.15
7 -9 0 0.31 2.15
7 -9 0 -1.81 1.9
7 9 0 4.59 3.4
-7 -9 -1 3 2.3
-7 -9 -1 0.01 1.65
-7 9 -1 -2.8 3.07
7 -9 1 0.79 2.21
7 -9 1 1.94 2.26
7 9 1 -0.2 3.08
-7 -9 -2 -0.64 1.88
-7 -9 -2 1.83 1.78
-7 9 -2 -1.08 3.23
7 -9 2 -0.02 1.97
7 9 2 2.89 3.22
-7 9 -3 1.81 3.43
7 -9 3 1.63 2.31
7 9 3 3.76 3.3
-8 0 12 -0.36 1.91
8 0 -12 2.57 2.02
-8 0 11 -2.61 1.43
8 0 -11 1.73 2.4
8 0 -11 1.43 1.8
-8 0 10 3.57 1.85
8 0 -10 4.82 2.55
8 0 -10 2.4 1.73
-8 0 9 -0.1 1.35
8 0 -9 1.87 2.38
8 0 -9 0.85 1.6
-8 0 8 4.3 1.57
8 0 -8 6.94 2.41
8 0 -8 6.69 1.94
-8 0 7 1.27 1.19
8 0 -7 -0.71 1.83
8 0 -7 -0.94 1.11
-8 0 6 1.2 1.07
8 0 -6 1.03 1.86
8 0 -6 3.14 1.45
-8 0 5 0.11 0.87
8 0 -5 1.08 1.65
8 0 -5 -0.05 1.14
-8 0 4 8.28 1.76
8 0 -4 10.42 2.59
8 0 -4 9.37 2
-8 0 3 -0.39 0.86
8 0 -3 1.79 1.44
8 0 -3 -0.28 1.09
8 0 -3 0.22 2.06
8 0 -2 0.28 1.24
8 0 -2 -0.6 1.01
8 0 -2 1.08 2.14
8 0 -2 -1.25 0.99
8 0 -1 -0.5 1.05
8 0 -1 -0.81 0.95
8 0 -1 -1.13 2.07
8 0 -1 -0.6 0.87
-8 0 0 -1.48 0.85
8 0 0 -0.77 0.92
8 0 0 0.71 2.27
8 0 0 0.06 1.02
-8 0 -1 0.78 0.92
-8 0 -1 -0.54 0.89
8 0 1 -0.33 2.29
8 0 1 0.45 1.01
-8 0 -2 12.46 2.19
8 0 2 4.76 2.52
8 0 2 10.22 2.05
-8 0 -3 0.05 1.11
8 0 3 -1.25 2.49
8 0 3 -0.85 1.27
-8 0 -4 0.48 1.16
8 0 4 -0.06 2.54
8 0 4 -0.15 1.29
-8 0 -5 -1.08 1.16
8 0 5 -1.55 2.69
8 0 5 -0.26 1.36
-8 0 -6 10.45 2.44
8 0 6 8.64 3.47
8 0 6 13.64 2.59
-8 0 -7 0.11 1.45
8 0 7 0.97 3.04
8 0 7 -1.07 1.43
-8 0 -8 7.21 2.16
8 0 8 4.16 3.46
8 0 8 9.51 2.57
-8 0 -9 -1.48 1.51
8 0 9 -1.04 3.3
8 0 9 0.69 1.87
-8 0 -10 3.12 2.07
8 0 10 0.78 3.32
8 0 10 6.82 2.54
-8 0 -11 -0.07 1.89
8 0 11 -1.54 3.36
8 0 11 -0.95 2.02
-8 1 12 -0.17 1.84
-8 -1 11 6.4 2.62
-8 1 11 3.54 2.05
8 -1 -11 2.43 2.47
8 -1 -11 5.94 2.23
8 1 -11 6.35 2.36
-8 -1 10 4.48 2.23
-8 1 10 5.03 2.05
8 -1 -10 5.38 2.4
8 -1 -10 2.38 1.76
8 1 -10 9.07 2.82
-8 -1 9 4.08 2.2
-8 1 9 4.24 1.77
8 -1 -9 7.35 2.75
8 -1 -9 6.33 2.08
8 1 -9 5.34 2.12
-8 -1 8 8.75 2.59
-8 1 8 8.37 2.49
8 -1 -8 12.08 3.07
8 -1 -8 9.15 2.36
8 1 -8 8.57 2.54
-8 -1 7 19.27 3.26
-8 1 7 18.84 2.65
8 -1 -7 21.4 3.22
8 -1 -7 22.52 2.69
8 1 -7 21.35 2.9
-8 -1 6 0.92 1.63
-8 1 6 -0.19 1.06
8 -1 -6 -0.09 1.84
8 -1 -6 0.04 1.16
8 1 -6 -0.06 1.23
-8 -1 5 34.69 3.49
-8 1 5 30.39 2.73
8 -1 -5 30.57 3.2
8 -1 -5 30.33 2.83
8 1 -5 31.55 3.06
-8 -1 4 1.1 1.53
-8 1 4 -0.64 0.94
8 -1 -4 0.64 1.62
8 -1 -4 -0.82 0.91
8 1 -4 0.35 1.26
-8 -1 3 3.14 1.57
-8 1 3 2.36 1.13
8 -1 -3 5.07 1.76
8 -1 -3 2.19 1.14
8 -1 -3 4.91 2.32
8 1 -3 4.02 1.54
8 1 -3 0.26 2
-8 -1 2 6.06 1.67
8 -1 -2 5.99 1.78
8 -1 -2 4.61 1.4
8 -1 -2 2.27 2.32
8 -1 -2 5.34 1.62
8 1 -2 4.12 1.48
8 1 -2 9.06 2.81
-8 -1 1 5.22 1.55
8 -1 -1 4.1 1.52
8 -1 -1 3.43 1.39
8 -1 -1 3.99 2.29
8 -1 -1 3.69 1.45
8 1 -1 3.5 1.37
8 1 -1 3.8 2.18
-8 -1 0 2.71 1.25
8 -1 0 0.92 1.18
8 -1 0 0.66 1.08
8 -1 0 2.62 2.38
8 -1 0 1.03 1.16
8 1 0 0.77 1.23
8 1 0 1.96 2.15
-8 -1 -1 13.58 1.81
-8 -1 -1 11.89 2.17
-8 1 -1 14.97 2.06
8 -1 1 13.28 1.97
8 -1 1 15.39 3.47
8 -1 1 14.2 2.23
8 1 1 14.62 2.34
8 1 1 13.62 3.41
8 1 1 12.85 1.9
-8 -1 -2 10 2.13
-8 1 -2 9.48 1.98
8 -1 2 15.58 3.45
8 -1 2 9.47 2.13
8 1 2 13.48 3.7
8 1 2 13.2 2.12
-8 -1 -3 5.56 1.74
-8 1 -3 5.17 1.52
8 -1 3 7.52 3.06
8 -1 3 4.22 1.65
8 1 3 1.61 2.58
8 1 3 5.54 1.65
-8 -1 -4 1.34 1.33
-8 1 -4 1.38 1.25
8 -1 4 -0.5 2.82
8 -1 4 1.2 1.41
8 1 4 2.28 2.75
8 1 4 0.36 1.22
-8 -1 -5 11.73 2.42
-8 1 -5 11.07 2.41
8 -1 5 14.66 4.14
8 -1 5 8.56 2.36
8 1 5 25.42 4.07
8 1 5 7.95 2.31
-8 -1 -6 -1.11 1.28
-8 1 -6 0.56 1.33
8 -1 6 -0.02 2.89
8 -1 6 -1.13 1.38
8 1 6 2.4 3
8 1 6 -0.09 1.43
-8 -1 -7 47.48 3.92
-8 1 -7 48.05 3.85
8 -1 7 52.37 5.21
8 -1 7 47.85 4.03
8 1 7 50.79 5.38
8 1 7 52.1 3.74
-8 -1 -8 1.83 1.78
-8 1 -8 0.5 1.51
8 -1 8 3.37 3.41
8 -1 8 2.05 1.91
8 1 8 3.69 3.45
8 1 8 0.02 1.61
-8 -1 -9 -0.49 1.6
-8 1 -9 1.28 1.78
8 -1 9 3.3 3.4
8 -1 9 0.81 2.1
8 1 9 2.68 3.29
8 1 9 0.06 1.67
-8 -1 -10 -0.08 1.78
-8 1 -10 0.24 1.72
8 -1 10 3.76 3.51
8 -1 10 -1.09 1.82
8 1 10 0.59 3.54
8 1 10 -0.55 1.84
-8 -1 -11 12.6 3.48
-8 1 -11 16.8 3.75
8 -1 11 9.04 3.86
8 -1 11 15.28 3.8
8 1 11 8.96 3.89
8 1 11 18.8 3.67
-8 -2 11 15.34 3.57
-8 2 11 14.44 3.56
8 -2 -11 17.57 4.02
8 -2 -11 17.97 3.02
8 2 -11 16.58 3.33
-8 -2 10 2.87 1.99
-8 2 10 3.52 1.93
8 -2 -10 4.06 2.53
8 -2 -10 4.5 1.92
8 2 -10 5.18 2.28
-8 -2 9 4.75 2.08
-8 2 9 2.84 1.82
8 -2 -9 3.83 2.43
8 -2 -9 5.73 1.88
8 2 -9 5.26 2.12
-8 -2 8 0.2 1.84
-8 2 8 1.77 1.47
8 -2 -8 -1.38 1.7
8 -2 -8 -0.39 1.14
8 2 -8 0.59 1.52
-8 -2 7 10.04 2.98
-8 2 7 13.54 2.65
8 -2 -7 10.96 3.19
8 -2 -7 9.69 2.22
8 2 -7 8.02 2.44
-8 -2 6 9.95 2.59
-8 2 6 9.95 2.34
8 -2 -6 10.65 2.73
8 -2 -6 10.73 2.14
8 2 -6 10.62 2.42
-8 -2 5 0.73 1.59
-8 2 5 -0.37 1.13
8 -2 -5 -0.62 1.72
8 -2 -5 -0.45 0.99
8 2 -5 -0.21 1.16
-8 -2 4 28.7 3
-8 2 4 22.47 2.72
8 -2 -4 25.81 3.21
8 -2 -4 23.59 2.41
8 2 -4 22.92 2.81
-8 -2 3 -0.14 1.3
-8 2 3 1.13 1.26
8 -2 -3 0.91 1.52
8 -2 -3 0.51 0.96
8 -2 -3 -0.94 1.26
8 2 -3 0.18 1.16
8 2 -3 -0.32 1.94
-8 -2 2 1.02 1.32
-8 2 2 1.64 1.35
8 -2 -2 1.22 1.47
8 -2 -2 0.14 1
8 -2 -2 0.35 1.39
8 2 -2 0.24 1.22
8 2 -2 0.33 1.99
-8 -2 1 38.09 2.93
8 -2 -1 33.49 2.87
8 -2 -1 30.92 2.57
8 -2 -1 39.33 3.9
8 -2 -1 34.26 3.08
8 2 -1 29.2 2.92
8 2 -1 35.05 3.65
-8 -2 0 9.37 1.95
-8 2 0 5.34 1.4
8 -2 0 7.88 2.11
8 -2 0 3.4 2.41
8 -2 0 6.62 1.82
8 2 0 5.39 1.63
8 2 0 13.08 3.31
-8 -2 -1 17.25 2.08
-8 2 -1 12.37 1.85
8 -2 1 14.17 2.11
8 -2 1 32.57 4.05
8 -2 1 13.59 2.54
8 2 1 13.83 2.42
8 2 1 19.4 3.67
-8 -2 -2 2.22 1.41
-8 2 -2 0.99 0.96
8 -2 2 5.96 3
8 -2 2 0.5 1.35
8 2 2 1.01 2.63
-8 -2 -3 12.43 2.42
-8 2 -3 13.84 1.96
8 -2 3 15.69 4.02
8 -2 3 16.34 2.66
8 2 3 13.05 3.78
-8 -2 -4 13 2.49
-8 2 -4 12.38 2.08
8 -2 4 22.25 4.3
8 -2 4 14.31 2.79
8 2 4 19.45 3.98
-8 -2 -5 0.14 1.35
-8 2 -5 2.04 1.36
8 -2 5 2.32 3
8 -2 5 1.51 1.69
8 2 5 2.26 2.91
-8 -2 -6 0.82 1.44
-8 2 -6 0.92 1.38
8 -2 6 4.19 3.31
8 -2 6 2 1.62
8 2 6 0.09 2.87
-8 -2 -7 3.64 1.83
-8 2 -7 4.68 1.79
8 -2 7 4.57 3.42
8 -2 7 6.67 2.48
8 2 7 3.98 3.24
-8 -2 -8 -0.58 1.55
-8 2 -8 -0.63 1.46
8 -2 8 -3.15 3.12
8 -2 8 0.49 2.01
8 2 8 -0.06 3.06
-8 -2 -9 0.07 1.61
-8 2 -9 0.31 1.68
8 -2 9 6.17 3.72
8 -2 9 2.37 2.33
8 2 9 3.15 3.12
-8 -2 -10 5.97 2.29
-8 2 -10 7.33 2.37
8 -2 10 3.19 3.56
8 -2 10 5.67 2.65
8 2 10 6.66 3.75
-8 -2 -11 0.71 2.11
-8 2 -11 2.31 2.01
-8 2 -11 3.82 2.94
8 -2 11 0.83 2.36
8 2 11 15.78 5.11
-8 -3 11 -0.28 1.83
-8 3 11 1.14 2.03
8 -3 -11 -2.03 2.18
8 3 -11 0.13 1.89
-8 -3 10 -1.08 1.68
-8 3 10 -1.01 1.68
8 -3 -10 1.53 2.37
8 3 -10 -0.8 1.8
-8 -3 9 24.97 3.8
-8 3 9 26.81 3.69
8 -3 -9 24.25 4.04
8 3 -9 28.25 3.71
-8 -3 8 7.71 2.5
-8 3 8 12.25 2.79
8 -3 -8 9.46 2.85
8 3 -8 9.32 2.81
-8 -3 7 2.2 1.66
-8 3 7 2.43 1.61
8 -3 -7 1.6 2.17
8 3 -7 -0.19 1.39
-8 -3 6 0.71 1.49
-8 3 6 -0.97 1.14
8 -3 -6 0.17 1.94
8 3 -6 -0.69 1.3
-8 -3 5 2.56 1.76
-8 3 5 1.28 1.35
8 -3 -5 4.84 2.22
8 3 -5 1.79 1.65
-8 -3 4 0.27 1.49
-8 3 4 -2.14 1.11
8 -3 -4 -0.43 1.62
8 3 -4 -0.58 1.29
-8 -3 3 3.93 1.77
-8 3 3 1.79 1.39
8 -3 -3 4.45 1.87
8 -3 -3 2.37 1.72
8 3 -3 2.22 1.61
8 3 -3 2.37 2.04
-8 -3 2 15.02 2.54
-8 3 2 14.39 2.34
8 -3 -2 13.76 2.6
8 -3 -2 11.15 2.69
8 3 -2 12.46 2.45
8 3 -2 19.23 3.59
-8 -3 1 18.34 2.62
-8 3 1 15.49 2.57
8 -3 -1 16.98 2.56
8 -3 -1 17.23 2.72
8 3 -1 15.77 2.53
8 3 -1 17.61 3.65
-8 -3 0 2.39 1.35
-8 3 0 2.06 1.6
8 -3 0 2.33 1.44
8 -3 0 1.84 1.49
8 3 0 1.84 1.32
8 3 0 4.93 2.65
-8 -3 -1 14.28 2.3
-8 3 -1 12.88 2.79
8 -3 1 13.49 2.31
8 -3 1 11.86 2.56
8 3 1 7.09 2.24
8 3 1 10.68 3.11
-8 -3 -2 19.29 2.75
-8 3 -2 21.57 3.09
8 -3 2 18.97 3.01
8 3 2 21.59 3.79
-8 -3 -3 28.16 3.07
-8 3 -3 26.74 3.51
8 -3 3 24.1 3.08
8 3 3 17.58 4.12
-8 -3 -4 0.65 1.37
-8 3 -4 4.66 2.13
8 -3 4 1.68 1.72
8 3 4 1.36 2.82
-8 -3 -5 3.52 1.7
-8 3 -5 6.79 2.37
8 -3 5 6.82 2.22
8 3 5 3.13 2.97
-8 -3 -6 2.95 1.72
-8 3 -6 6.53 2.65
8 -3 6 6.64 2.49
8 3 6 2.01 2.91
-8 -3 -7 2.23 1.71
-8 3 -7 3.15 2.29
8 -3 7 0.92 1.88
8 3 7 -0.94 2.89
-8 -3 -8 5.72 2.14
-8 3 -8 11.56 3.19
8 -3 8 7.39 2.52
8 3 8 5 3.2
-8 -3 -9 13.74 3.27
-8 3 -9 18.12 4.33
8 -3 9 22.71 4.05
-8 -3 -10 0.97 2.03
-8 3 -10 2.05 2.52
8 -3 10 0.66 2.3
8 3 10 0.46 3.23
8 3 11 -0.17 3.2
-8 -4 10 6.59 2.64
-8 4 10 3.85 2.34
8 -4 -10 4.99 2.81
8 4 -10 1.65 2.17
-8 -4 9 3.28 2.2
-8 4 9 1.15 1.7
8 -4 -9 -1.19 1.9
8 4 -9 1.33 2
-8 -4 8 0.57 1.86
-8 4 8 1.19 1.76
8 -4 -8 0.75 2.21
8 4 -8 1.47 1.83
-8 -4 7 0.75 1.97
-8 4 7 1.39 1.64
8 -4 -7 4.05 2.42
8 4 -7 0.65 1.81
-8 -4 6 0.87 1.8
-8 4 6 1.16 1.53
8 -4 -6 -0.04 2.06
8 4 -6 1.93 1.55
-8 -4 5 0.95 1.64
-8 4 5 0.3 1.33
8 -4 -5 -1.39 1.82
8 4 -5 -0.12 1.54
-8 -4 4 2.03 1.65
-8 4 4 0.76 1.42
8 -4 -4 -1.33 1.69
8 4 -4 0.43 1.56
-8 -4 3 0.5 1.47
-8 4 3 -1.38 1.21
8 -4 -3 -1.84 1.5
8 -4 -3 -1.99 1.32
8 4 -3 0.23 1.29
8 4 -3 1.08 2.23
-8 -4 2 4.37 1.81
-8 4 2 7.21 1.99
8 -4 -2 6.22 2.07
8 -4 -2 4.01 1.98
8 4 -2 3.23 1.63
8 4 -2 4.86 2.61
-8 -4 1 9.06 2.47
-8 4 1 13.4 2.64
8 -4 -1 12.32 2.65
8 -4 -1 7.43 2.07
8 4 -1 8.35 2.38
8 4 -1 7.25 2.82
-8 -4 0 5.24 1.78
-8 4 0 5.18 1.94
8 -4 0 4.12 1.72
8 -4 0 3.82 1.94
8 4 0 3.17 1.76
8 4 0 2.16 2.63
-8 -4 -1 -0.15 1.29
-8 4 -1 0.26 1.64
8 -4 1 1.56 1.48
8 -4 1 1.52 1.69
8 4 1 0.44 1.49
8 4 1 4.81 2.85
-8 -4 -2 2.39 1.55
-8 4 -2 3.42 1.99
8 -4 2 3.39 1.86
8 4 2 0.14 2.85
-8 -4 -3 3.25 1.58
-8 4 -3 3.09 2.1
8 -4 3 3.94 1.99
8 4 3 7.18 3.29
-8 -4 -4 1.13 1.43
-8 4 -4 6.27 2.52
8 -4 4 5.56 2.31
8 4 4 2.05 3.02
-8 -4 -5 -0.83 1.37
-8 4 -5 0.53 2.02
8 -4 5 -0.85 1.82
8 4 5 6.65 3.31
-8 -4 -6 0.07 1.41
-8 4 -6 1.24 2.28
8 -4 6 -0.11 1.94
8 4 6 3.18 3.08
-8 -4 -7 2.78 1.84
-8 4 -7 4.55 2.7
8 -4 7 1.6 2.08
8 4 7 1.27 2.93
-8 -4 -8 -0.68 1.58
-8 4 -8 1.84 2.5
8 -4 8 1.63 2.14
8 4 8 -1.51 2.84
-8 -4 -9 4.2 2.23
-8 4 -9 6.9 3.34
8 -4 9 5.36 2.62
8 4 9 1.98 3.21
-8 -4 -10 26.36 4.06
-8 4 -10 31.53 5.07
8 -4 10 31.28 4.36
8 4 10 21.2 5.04
-8 -5 9 0.03 1.98
-8 5 9 0.76 1.98
8 -5 -9 2.18 2.44
8 5 -9 3.25 2.19
-8 -5 8 2.05 2.18
-8 5 8 2.6 1.9
8 -5 -8 2.83 2.41
8 5 -8 1.9 1.83
-8 -5 7 -0.24 1.97
-8 5 7 3.84 1.97
8 -5 -7 2.66 2.36
8 5 -7 1.27 1.83
-8 -5 6 -0.04 1.87
-8 5 6 -0.81 1.47
8 -5 -6 2.79 2.16
8 5 -6 2.9 1.89
-8 -5 5 0.76 1.81
-8 5 5 0.15 1.52
8 -5 -5 -1.21 1.82
8 5 -5 0.19 1.56
-8 -5 4 -0.1 1.71
-8 5 4 0.35 1.51
8 -5 -4 -0.59 1.84
8 5 -4 -0.6 1.38
8 5 -4 0.14 2.3
-8 -5 3 2.47 1.88
-8 5 3 0.57 1.66
8 -5 -3 1.28 1.97
8 -5 -3 1.52 1.94
8 5 -3 2.18 1.53
8 5 -3 5 2.73
-8 -5 2 0.82 1.62
-8 5 2 0.34 1.48
8 -5 -2 -1.28 1.61
8 -5 -2 0.9 1.86
8 5 -2 0.24 1.47
8 5 -2 -1.49 2.44
-8 -5 1 2.98 1.79
-8 5 1 3.32 1.85
8 -5 -1 2.41 1.77
8 -5 -1 2.65 1.92
8 5 -1 3.55 1.82
8 5 -1 0.78 2.66
-8 -5 0 2.47 1.67
-8 5 0 2.63 1.9
8 -5 0 2 1.63
8 -5 0 1.85 1.73
8 5 0 1.75 1.7
8 5 0 0.78 2.76
-8 -5 -1 2.02 1.6
-8 -5 -1 1.88 1.4
-8 5 -1 1.51 1.8
8 -5 1 1.72 1.92
8 5 1 1.06 1.48
8 5 1 4.89 2.9
-8 -5 -2 1.2 1.42
-8 5 -2 -2.71 1.54
8 -5 2 0.52 1.82
8 5 2 -3.31 2.69
-8 -5 -3 13.17 2.74
-8 5 -3 12.42 3.54
8 -5 3 12.53 3.14
8 5 3 14.93 4.48
-8 -5 -4 -0.05 1.42
-8 5 -4 -0.07 2.03
8 -5 4 0.62 1.88
8 5 4 -0.1 3
-8 -5 -5 0.12 1.51
-8 5 -5 2.59 2.38
8 -5 5 1.49 2.01
8 5 5 -0.1 3.07
-8 -5 -6 0.01 1.51
-8 5 -6 0.71 2.5
8 -5 6 1.66 2.15
8 5 6 4.13 3.25
-8 -5 -7 1.65 1.88
-8 5 -7 1.71 2.59
8 -5 7 3.85 2.37
8 5 7 -1.59 2.95
-8 -5 -8 -0.05 1.81
-8 5 -8 0.24 2.59
8 -5 8 1.15 2.23
8 5 8 -0.57 2.9
-8 -5 -9 3.78 2.44
-8 5 -9 8.68 3.55
8 -5 9 7.13 2.74
8 5 9 2.36 3.14
-8 -6 8 -0.48 2.08
-8 6 8 0.28 1.9
8 -6 -8 0.48 2.26
8 6 -8 2.5 1.99
-8 -6 7 0.52 2.14
-8 6 7 3.67 2.13
8 -6 -7 1.98 2.43
8 6 -7 3.5 2.22
-8 -6 6 -1.55 1.63
-8 6 6 0.78 1.79
8 -6 -6 -0.8 2.11
8 6 -6 1.06 1.79
-8 -6 5 0.15 2.06
-8 6 5 0.78 1.6
8 -6 -5 0.76 2.14
8 6 -5 0.77 1.76
-8 -6 4 14.61 3.37
-8 6 4 19.19 3.59
8 -6 -4 15.35 3.5
8 6 -4 13.09 3.09
8 6 -4 16.69 3.98
-8 -6 3 -0.24 1.76
8 -6 -3 -0.64 1.78
8 -6 -3 -0.35 1.75
8 6 -3 1.96 1.72
8 6 -3 0.36 2.7
-8 -6 2 4.82 2.11
-8 6 2 3.03 2.28
8 -6 -2 8.86 2.6
8 -6 -2 6.38 2.48
8 6 -2 7.41 2.4
8 6 -2 2.3 2.79
-8 -6 1 7.96 2.31
-8 6 1 4.25 2.1
8 -6 -1 5.93 2.33
8 -6 -1 9.29 2.67
8 6 -1 7.09 2.26
8 6 -1 4.67 3.11
-8 -6 0 2.58 1.93
-8 6 0 2.08 1.99
8 -6 0 3.92 2.06
8 -6 0 3.06 2.13
8 6 0 3.92 2.16
8 6 0 0.66 2.97
-8 -6 -1 4.84 2.02
-8 -6 -1 3.94 1.97
-8 6 -1 1.97 1.91
8 -6 1 4.01 2.33
8 6 1 5.57 3.18
-8 -6 -2 2.09 1.6
-8 6 -2 3.09 2.19
8 -6 2 2.82 2.1
8 6 2 5.86 3.44
-8 -6 -3 8.82 2.47
-8 6 -3 9.7 2.82
8 -6 3 9.98 2.72
8 6 3 1.14 3.06
-8 -6 -4 3.96 1.92
-8 6 -4 4.34 2.68
8 -6 4 2.78 2.28
8 6 4 6.59 3.4
-8 -6 -5 0.18 1.59
-8 6 -5 1.09 2.63
8 -6 5 -0.47 1.93
8 6 5 -1.07 2.99
-8 -6 -6 -0.45 1.62
-8 6 -6 0.28 2.82
8 -6 6 -0.02 2.08
8 6 6 -2.2 2.82
-8 -6 -7 -0.15 1.68
-8 6 -7 1.44 2.95
8 -6 7 0.51 2.03
8 6 7 1.06 3.03
-8 6 -8 6.26 3.72
8 -6 8 2.09 2.26
8 6 8 2.29 3.14
-8 -7 6 0.44 2.15
-8 7 6 0.61 1.88
8 -7 -6 1.99 2.43
8 7 -6 -1.62 1.82
-8 -7 5 2.81 2.3
-8 7 5 4.42 2.13
8 -7 -5 8.79 2.97
8 7 -5 6.27 2.41
-8 -7 4 -0.43 1.94
-8 7 4 -0.93 1.64
8 -7 -4 0.34 2.2
8 7 -4 0.08 1.9
8 7 -4 3.89 2.97
-8 -7 3 -0.54 1.81
8 -7 -3 0.67 1.99
8 -7 -3 0.74 2.09
8 7 -3 -0.12 1.87
8 7 -3 1.33 2.91
-8 -7 2 2.07 2.18
-8 7 2 -0.62 2.79
8 -7 -2 4.74 2.51
8 -7 -2 1.66 2.11
8 7 -2 4.23 2.21
8 7 -2 1.09 3.11
-8 -7 1 0.49 1.92
-8 7 1 -1.48 2.61
8 -7 -1 -0.12 1.91
8 -7 -1 1.59 2.03
8 7 -1 0.29 1.84
8 7 -1 -3.54 2.73
-8 -7 0 -1.36 1.67
-8 7 0 0.7 2.36
8 -7 0 2.31 1.98
8 -7 0 1.95 2.05
8 7 0 -0.07 1.66
8 7 0 2.23 3.22
-8 -7 -1 -0.31 1.7
-8 -7 -1 3.03 1.74
-8 7 -1 1.2 2.25
8 -7 1 1.03 2.15
8 7 1 4.11 3.39
-8 -7 -2 3.25 1.78
-8 7 -2 3.19 2.39
8 -7 2 5.44 2.53
8 7 2 6.88 3.44
-8 -7 -3 0.28 1.68
-8 7 -3 0.57 2.34
8 -7 3 0 1.81
8 7 3 1.15 3.26
-8 -7 -4 -0.56 1.63
-8 7 -4 -0.55 2.48
8 -7 4 -0.21 1.91
8 7 4 1.66 3.22
-8 -7 -5 -0.36 1.67
-8 7 -5 0.25 2.63
8 -7 5 0.59 2.13
8 7 5 2.65 3.19
-8 -7 -6 1.65 2.03
-8 7 -6 0 2.9
8 -7 6 1.26 2.11
8 7 6 3.19 3.27
-8 -8 3 -1.4 2.14
-8 8 3 -0.69 1.56
8 -8 -3 -0.08 2.08
8 8 -3 -2.17 1.86
8 8 -3 4.01 3.31
-8 -8 2 2.3 2.16
-8 8 2 -3.36 2.96
8 -8 -2 1.41 2.27
8 -8 -2 0.94 2.16
8 8 -2 0.46 2.05
8 8 -2 -1.8 3.06
-8 -8 1 18.13 4.07
-8 8 1 10.42 3.64
8 -8 -1 13.52 3.53
8 -8 -1 14.43 3.41
8 8 -1 12.14 3.61
8 8 -1 16.24 4.87
-8 -8 0 37.55 4.31
-8 -8 0 40.58 4.19
-8 8 0 25.49 5.29
8 -8 0 42.8 4.28
8 -8 0 31.48 4.43
8 8 0 34.18 5.38
-8 -8 -1 -0.97 2
-8 -8 -1 -0.85 1.44
-8 8 -1 0.82 2.95
8 -8 1 0.4 2.13
8 8 1 2.61 3.32
-8 -8 -2 0 1.76
-8 8 -2 -1.37 2.86
8 -8 2 -0.01 1.96
8 8 2 1.31 3.41
-8 -8 -3 9.99 3.07
-8 8 -3 6.33 3.44
8 -8 3 11.72 3.78
8 8 3 2.84 3.41
-9 0 10 0.93 2.03
9 0 -10 -2.34 1.44
-9 0 9 -1.38 1.54
9 0 -9 -0.97 2.23
9 0 -9 -0.35 1.66
9 0 -8 3.36 2.38
9 0 -8 6.03 2.16
9 0 -7 -1.04 1.97
9 0 -7 0.54 1.38
9 0 -6 3.6 2.16
9 0 -6 0.95 1.49
9 0 -5 -1.32 1.65
9 0 -5 0.78 1.36
9 0 -4 4.01 1.93
9 0 -4 2.86 1.49
-9 0 3 -0.69 1.3
9 0 -3 -0.38 1.43
9 0 -3 -0.62 1.11
-9 0 2 1.55 1.36
9 0 -2 -0.12 1.13
9 0 -2 -0.77 2.32
-9 0 1 0.07 1.15
9 0 -1 -0.86 1.09
9 0 -1 -2.35 2.39
-9 0 0 -0.48 1
9 0 0 -0.99 1.09
9 0 0 -0.28 2.53
9 0 0 1.7 1.3
-9 0 -1 -0.97 1.05
9 0 1 1.29 2.73
9 0 1 0.7 1.26
-9 0 -2 10.15 2.27
9 0 2 9.66 3.5
9 0 2 15.2 2.42
-9 0 -3 -0.54 1.15
9 0 3 -1.16 2.98
9 0 3 -0.37 1.08
-9 0 -4 -0.21 1.18
9 0 4 2.35 3.31
9 0 4 -0.14 1.3
-9 0 -5 -0.68 1.3
9 0 5 2.09 3.44
9 0 5 0.24 1.32
-9 0 -6 4.2 1.84
9 0 6 5.44 3.57
9 0 6 6.78 2.05
-9 0 -7 -0.45 1.55
9 0 7 2.68 3.35
9 0 7 0.35 1.49
-9 0 -8 3.4 2.05
9 0 8 2.54 3.61
9 0 8 5.59 2.14
-9 0 -9 -0.77 1.81
9 0 9 -3.03 3.32
9 0 9 1.47 2.08
9 0 10 0.56 3.6
9 0 10 3.67 2.43
-9 -1 10 4.57 2.44
-9 1 10 3.26 1.95
9 -1 -10 2.9 2.59
9 -1 -10 3.91 2.05
9 1 -10 4.91 2.29
-9 -1 9 4.2 2.48
-9 1 9 3.56 1.87
9 -1 -9 5.53 2.78
9 -1 -9 5.19 2.07
9 1 -9 6.92 2.38
-9 -1 8 0.43 1.88
-9 1 8 -0.8 1.39
9 -1 -8 0.97 2.22
9 -1 -8 0.43 1.43
9 1 -8 -2.1 1.27
-9 -1 7 2.45 2.03
-9 1 7 3.57 1.62
9 -1 -7 4.36 2.53
9 -1 -7 3.21 1.68
9 1 -7 2.38 1.87
-9 -1 6 -0.42 1.59
-9 1 6 0.25 1.17
9 -1 -6 -0.49 1.98
9 -1 -6 -0.6 1.15
9 1 -6 -0.29 1.59
-9 -1 5 22.09 3.25
-9 1 5 23.1 2.65
9 -1 -5 22.29 3.53
9 -1 -5 20.63 2.77
9 1 -5 18.85 2.8
-9 -1 4 -0.03 1.45
-9 1 4 -0.2 1.02
9 -1 -4 0.33 1.68
9 -1 -4 -0.42 1.12
9 1 -4 -1.13 1.18
-9 -1 3 35.53 3.48
-9 1 3 32.52 2.85
9 -1 -3 30.95 3.33
9 -1 -3 28.23 2.78
9 1 -3 28.71 3.07
-9 -1 2 7.72 2.47
9 -1 -2 9.28 2.6
9 -1 -2 8.63 2.17
9 -1 -2 3.96 2.59
9 -1 -2 7.15 1.92
9 1 -2 6.14 1.79
9 1 -2 2.16 2.32
-9 -1 1 1.32 1.32
9 -1 -1 1.44 1.41
9 -1 -1 0.13 1.17
9 -1 -1 0.23 2.62
9 -1 -1 -0.34 1.36
9 1 -1 0.36 1.24
9 1 -1 1.32 2.47
-9 -1 0 2.58 1.34
-9 1 0 1.89 1.27
9 -1 0 -0.73 2.54
9 -1 0 0.66 1.38
9 1 0 2.39 1.5
9 1 0 2.79 2.73
-9 -1 -1 35.74 3.26
-9 1 -1 36.03 3.08
9 -1 1 26.81 4.16
9 -1 1 39.76 3.26
9 1 1 24.96 4.15
-9 -1 -2 7.39 2.31
-9 1 -2 9.98 2.25
9 -1 2 12.39 4.05
9 -1 2 9.29 2.54
9 1 2 9.35 3.37
-9 -1 -3 -1.14 1.21
-9 1 -3 -1.19 1.02
9 -1 3 1.87 3.11
9 -1 3 0 1.23
9 1 3 4.78 3.06
-9 -1 -4 -1.44 1.16
-9 1 -4 0.86 1.35
9 -1 4 -0.85 3.13
9 -1 4 0.04 1.5
9 1 4 -3.51 2.88
-9 -1 -5 22.42 3.04
-9 1 -5 23.43 3.09
9 -1 5 17.44 4.49
9 -1 5 26.76 3.3
9 1 5 17.55 4.79
-9 -1 -6 7.97 2.23
-9 1 -6 7.89 2.12
9 -1 6 10.28 3.8
9 -1 6 9.01 2.41
9 1 6 0.16 3.09
-9 -1 -7 1.99 1.79
-9 1 -7 2.71 1.78
9 -1 7 -3.78 3.08
9 -1 7 5.27 2.26
9 1 7 -0.22 3.22
-9 -1 -8 0.68 1.73
-9 1 -8 -0.81 1.62
9 -1 8 -2.36 3.18
9 -1 8 -1.76 1.78
9 1 8 -0.02 3.4
-9 -1 -9 -0.44 1.86
-9 1 -9 0.01 1.8
9 -1 9 -1.83 3.49
9 -1 9 1.11 1.95
9 1 9 -0.69 3.46
9 -1 10 3.58 3.77
9 1 10 3.6 3.71
-9 -2 10 -1.41 1.9
-9 2 10 -1.1 1.58
9 2 -10 -0.89 1.89
-9 -2 9 2.14 2.17
-9 2 9 1.06 1.67
9 -2 -9 1.8 2.27
9 2 -9 1.59 1.69
-9 -2 8 2.49 1.89
-9 2 8 1.83 1.66
9 -2 -8 1.91 2.32
9 2 -8 1.34 1.82
-9 -2 7 3.1 2.06
-9 2 7 4.12 1.8
9 -2 -7 3.48 2.37
9 2 -7 3.72 2
-9 -2 6 6.07 2.3
-9 2 6 6.12 1.9
9 -2 -6 7.12 2.68
9 2 -6 6.65 2.19
-9 -2 5 1.89 1.78
-9 2 5 0.41 1.29
9 -2 -5 1.03 2.06
9 2 -5 1.77 1.64
-9 -2 4 4.54 2.01
-9 2 4 4.84 1.73
9 -2 -4 7.23 2.43
9 -2 -4 4.15 1.51
9 2 -4 5.65 1.98
-9 -2 3 5.59 1.96
-9 2 3 2.38 1.42
9 -2 -3 5.38 2.02
9 -2 -3 3.13 1.44
9 -2 -3 4.18 1.84
9 2 -3 4.23 1.87
-9 -2 2 2.77 1.64
-9 2 2 4.2 1.66
9 -2 -2 1.63 1.62
9 -2 -2 2.07 1.29
9 -2 -2 2.21 1.71
9 2 -2 4.16 1.79
9 2 -2 -0.63 2.2
-9 -2 1 1.61 1.38
9 -2 -1 0.04 1.31
9 -2 -1 0.92 1.24
9 -2 -1 -1.78 2.55
9 -2 -1 -0.61 1.41
9 2 -1 1.66 1.38
9 2 -1 1.67 2.46
-9 -2 0 0.48 1.17
-9 2 0 1.3 1.07
9 -2 0 0.03 2.62
9 -2 0 2.26 1.64
9 2 0 0.6 1.3
9 2 0 5.06 2.86
-9 -2 -1 1.44 1.5
-9 2 -1 0.54 1.04
9 -2 1 0.17 2.95
9 -2 1 1.7 1.66
9 2 1 -0.92 2.75
-9 -2 -2 2.23 1.59
-9 2 -2 2.62 1.3
9 -2 2 2.78 3.26
9 -2 2 1.61 1.66
9 2 2 0.03 3.04
-9 -2 -3 9.85 2.59
-9 2 -3 10.29 2.21
9 -2 3 6.75 3.7
9 -2 3 13.86 2.89
9 2 3 5.41 3.4
-9 -2 -4 -0.06 1.42
-9 2 -4 1.04 1.33
9 -2 4 -0.34 3.23
9 -2 4 -0.12 1.43
9 2 4 1.33 3.18
-9 -2 -5 2.11 1.68
-9 2 -5 3.42 1.56
9 -2 5 3.59 3.6
9 -2 5 1.82 1.9
9 2 5 1.85 3.26
-9 -2 -6 0.09 1.61
-9 2 -6 0.52 1.5
9 -2 6 4.16 3.7
9 -2 6 0.15 1.81
9 2 6 0.83 3.29
-9 -2 -7 -1.77 1.4
-9 2 -7 0.25 1.47
9 -2 7 2.06 3.57
9 -2 7 0.8 1.87
9 2 7 0.87 3.2
-9 -2 -8 -1.54 1.61
-9 2 -8 -0.59 1.53
9 -2 8 0.21 3.37
9 -2 8 0.56 1.92
9 2 8 -0.88 3.37
-9 -2 -9 0.6 1.95
-9 2 -9 -0.31 1.75
9 -2 9 2.51 3.75
9 -2 9 2.49 2.38
9 2 9 4.99 3.58
-9 -3 9 -0.23 1.9
-9 3 9 2.34 1.96
9 -3 -9 0.67 2.49
9 3 -9 1.21 1.92
-9 -3 8 -1.09 1.8
-9 3 8 0.95 1.7
9 -3 -8 -0.56 2.21
9 3 -8 0.4 1.73
-9 -3 7 16.92 3.4
-9 3 7 11.99 3.04
9 -3 -7 14.61 3.69
9 3 -7 11.46 3.01
-9 -3 6 5.14 2.13
-9 3 6 4.39 1.84
9 -3 -6 1.68 2.22
9 3 -6 2.77 1.93
-9 -3 5 1.95 1.85
-9 3 5 2.79 1.68
9 -3 -5 2.77 2.29
9 3 -5 1.03 1.72
-9 -3 4 1.16 1.71
-9 3 4 2.21 1.48
9 -3 -4 1.43 1.93
9 3 -4 -0.45 1.26
-9 -3 3 0.72 1.58
9 -3 -3 1.24 1.7
9 -3 -3 2.13 1.89
9 3 -3 3.13 1.76
9 3 -3 0.05 2.36
-9 -3 2 2.78 1.7
-9 3 2 -1.11 1.26
9 -3 -2 1.67 1.71
9 -3 -2 1.96 1.78
9 3 -2 -0.47 1.37
9 3 -2 1.24 2.44
-9 -3 1 19.14 2.74
-9 3 1 18.38 2.85
9 -3 -1 14.92 2.84
9 -3 -1 11.87 3.08
9 3 -1 16.03 2.75
9 3 -1 17.45 4.07
-9 -3 0 2.04 1.51
-9 3 0 2.68 1.77
9 -3 0 0.84 1.76
9 3 0 1.57 1.7
9 3 0 0.48 2.77
-9 -3 -1 9.69 2.52
-9 3 -1 10.9 2.85
9 -3 1 10.39 2.96
9 3 1 10.71 3.46
-9 -3 -2 -0.05 1.34
-9 3 -2 0.21 1.67
9 -3 2 -1.31 1.36
9 3 2 -1.97 2.93
-9 -3 -3 0.54 1.27
-9 3 -3 0.24 1.74
9 -3 3 -1.08 1.48
9 3 3 1.78 3.19
-9 -3 -4 -0.54 1.35
-9 3 -4 1.36 2.05
9 -3 4 -1.01 1.75
9 3 4 -3.89 2.84
-9 -3 -5 1.64 1.72
-9 3 -5 0.78 2
9 -3 5 5.16 2.23
9 3 5 -1.26 3.05
-9 -3 -6 1.89 1.75
-9 3 -6 3.78 2.47
9 -3 6 2.88 2.19
9 3 6 1.86 3.14
-9 -3 -7 0.46 1.78
-9 3 -7 2.88 2.41
9 -3 7 1.29 2.05
9 3 7 2.01 3.15
-9 -3 -8 4.66 2.29
-9 3 -8 4.93 2.84
9 -3 8 4.29 2.55
9 3 8 1.88 3.22
-9 3 -9 0.94 2.53
9 -3 9 -0.04 2.32
9 3 9 0.52 3.25
-9 -4 8 12.52 3.48
-9 4 8 13.51 3.48
9 -4 -8 8.02 2.94
9 4 -8 11.04 3.19
-9 -4 7 7.96 2.72
-9 4 7 7.7 2.37
9 -4 -7 13.26 3.77
9 4 -7 8.03 2.66
-9 -4 6 2.28 1.91
-9 4 6 0.45 1.6
9 -4 -6 -1.56 2.02
9 4 -6 -1.9 1.43
-9 -4 5 -1.4 1.58
-9 4 5 1.77 1.67
9 -4 -5 0.85 2.11
9 4 -5 0.91 1.64
-9 -4 4 -0.39 1.58
-9 4 4 -0.42 1.4
9 -4 -4 0.07 1.95
9 4 -4 0.73 1.69
-9 -4 3 1.34 1.82
9 -4 -3 3.6 2.12
9 -4 -3 4.13 2.03
9 4 -3 2.52 1.7
9 4 -3 2.72 2.84
-9 -4 2 1.03 1.67
-9 4 2 1.23 1.49
9 -4 -2 2.9 1.94
9 -4 -2 0.35 1.77
9 4 -2 0.71 1.67
9 4 -2 2.53 2.84
-9 -4 1 4.41 1.88
-9 4 1 3.13 1.84
9 -4 -1 3.48 1.95
9 -4 -1 0.45 1.96
9 4 -1 3.92 1.99
9 4 -1 7.17 3.18
-9 -4 0 10.4 2.62
-9 4 0 8.4 2.8
9 -4 0 6.46 2.49
9 4 0 7.28 2.31
9 4 0 5.88 3.22
-9 -4 -1 1.89 1.6
-9 4 -1 1.07 1.79
9 -4 1 1.64 1.91
9 4 1 2.32 3.11
-9 -4 -2 2.34 1.68
-9 4 -2 1.56 1.95
9 -4 2 5 2.22
9 4 2 1.76 3.23
-9 -4 -3 1.53 1.66
-9 4 -3 -1.71 1.73
9 -4 3 -0.8 1.64
9 4 3 0.86 3.24
-9 -4 -4 0.31 1.48
-9 4 -4 1.19 2.15
9 -4 4 1.37 1.93
9 4 4 -3.11 2.98
-9 -4 -5 7.55 2.36
-9 4 -5 6.63 2.72
9 -4 5 9.69 2.92
9 4 5 0.3 3.19
-9 -4 -6 0.49 1.66
-9 4 -6 -0.02 2.24
9 -4 6 0.52 2.07
9 4 6 -3.12 2.9
-9 -4 -7 5.08 2.21
-9 4 -7 12.29 3.59
9 -4 7 9.52 3.07
9 4 7 7.18 3.41
-9 -4 -8 -0.4 1.77
-9 4 -8 -2.48 2.24
9 -4 8 1.14 2.23
9 4 8 -0.95 2.89
-9 -5 7 4.45 2.35
-9 5 7 3.68 2.13
9 -5 -7 6.46 2.73
9 5 -7 6.55 2.63
-9 -5 6 -0.38 1.97
-9 5 6 0.7 1.81
9 -5 -6 1.82 2.43
9 5 -6 2.2 2.06
-9 -5 5 0.74 1.87
-9 5 5 -0.13 1.61
9 -5 -5 2.19 2.29
9 5 -5 -0.01 1.63
-9 -5 4 -0.38 1.85
-9 5 4 0.45 1.6
9 -5 -4 0.01 2.19
9 5 -4 -1.85 1.62
-9 -5 3 3.21 2.14
9 -5 -3 2.48 2.15
9 -5 -3 1.66 2.08
9 5 -3 3.18 1.97
9 5 -3 1.9 2.87
-9 -5 2 2.53 1.85
-9 5 2 0.31 1.62
9 -5 -2 -1.16 1.58
9 -5 -2 -0.55 1.79
9 5 -2 -1.24 1.44
9 5 -2 0.73 2.91
-9 -5 1 7.05 2.21
-9 5 1 8.5 2.42
9 -5 -1 9.76 3.03
9 -5 -1 7.64 2.67
9 5 -1 4.41 2.26
9 5 -1 3.45 3.1
-9 -5 0 1.39 1.62
-9 5 0 1.01 1.82
9 -5 0 -2.11 1.86
9 5 0 -1.29 1.42
9 5 0 -0.76 3.1
-9 -5 -1 -0.96 1.32
-9 5 -1 0.65 1.92
9 -5 1 -1.55 1.76
9 5 1 1.92 3.18
-9 -5 -2 3.75 1.87
-9 5 -2 3.72 2.22
9 -5 2 5.97 2.66
9 5 2 6.08 3.48
-9 -5 -3 0.28 1.54
-9 5 -3 0.84 2.04
9 -5 3 0.58 2.19
9 5 3 4.82 3.35
-9 -5 -4 0.5 1.68
-9 5 -4 -1.02 2.04
9 -5 4 0.7 2.01
9 5 4 1.2 3.29
-9 -5 -5 1.75 1.86
-9 5 -5 1.23 2.41
9 -5 5 2.04 2.37
9 5 5 -0.19 3.21
-9 -5 -6 2.13 1.93
-9 5 -6 -1.36 2.33
9 -5 6 -2.61 2.07
9 5 6 -1.66 3.03
-9 -5 -7 0.98 1.85
-9 5 -7 1.61 2.79
9 -5 7 -0.19 2.27
9 5 7 -1.73 3.02
-9 6 6 2.41 2.14
9 6 -6 5.02 2.49
-9 -6 5 0.89 2.13
-9 6 5 1.14 1.83
9 -6 -5 2.04 2.4
9 6 -5 1.27 1.96
-9 -6 4 4.21 2.32
-9 6 4 1.26 1.98
9 -6 -4 3.61 2.47
9 6 -4 2.74 2.1
-9 -6 3 -0.65 1.97
9 -6 -3 1.99 2.11
9 -6 -3 1.15 2.29
9 6 -3 0.04 2
9 6 -3 -2.56 2.79
-9 -6 2 -0.64 1.77
9 -6 -2 0.98 1.99
9 -6 -2 0.09 2.25
9 6 -2 -0.28 1.74
9 6 -2 0.74 3.13
-9 -6 1 -0.19 1.77
-9 6 1 0.48 2.02
9 -6 -1 2.9 2.12
9 -6 -1 0.52 2.11
9 6 -1 1.05 2.09
9 6 -1 0.04 3.09
-9 -6 0 0.66 1.87
-9 6 0 -0.26 1.91
9 -6 0 0.25 2.13
9 6 0 1.53 2.09
9 6 0 -1.53 3.1
-9 -6 -1 3.85 2
-9 6 -1 1.79 2.22
9 -6 1 4.13 2.48
9 6 1 -0.02 3.11
-9 -6 -2 0.27 1.57
-9 6 -2 -0.08 2.13
9 -6 2 0.39 2.05
9 6 2 -1.4 3.11
-9 -6 -3 1.72 1.7
-9 6 -3 0.79 2.26
9 -6 3 2.94 2.35
9 6 3 2.68 3.32
-9 -6 -4 0.74 1.75
-9 6 -4 0.54 2.45
9 -6 4 1.6 2.3
9 6 4 -2.08 3.09
-9 -6 -5 0.35 1.87
-9 6 -5 -0.28 2.5
9 -6 5 -0.96 2.06
9 6 5 3.28 3.29
-9 7 3 2.25 2.1
-9 -7 2 0.6 2.23
9 -7 -2 1.29 2.17
9 -7 -2 4.18 2.43
9 7 -2 1.22 2.07
9 7 -2 4.08 3.42
-9 -7 1 -0.65 1.96
-9 7 1 -2.39 2.67
9 -7 -1 -1.08 2.06
9 7 -1 -1.09 1.83
9 7 -1 -0.9 3.32
-9 -7 0 0.61 2.05
-9 -7 0 0.88 1.61
-9 7 0 -1.21 2.21
9 -7 0 1.95 2.33
9 7 0 0.98 2
9 7 0 2.38 3.48
-9 -7 -1 2.22 1.87
-9 7 -1 1.76 2.54
9 -7 1 -0.06 2.13
9 7 1 3.17 3.59
-9 -7 -2 1.44 1.78
-9 7 -2 -1.52 2.27
9 -7 2 1.58 2.32
9 7 2 -0.8 3.38
-10 0 8 3.26 2.34
10 0 -8 1.61 1.77
-10 0 7 -0.22 1.8
10 0 -7 -0.08 1.6
-10 0 6 21.4 3.58
10 0 -6 15.46 3.01
-10 0 5 1.51 1.95
10 0 -5 -0.71 1.3
-10 0 4 7.76 2.49
10 0 -4 8.17 2.34
-10 0 3 0.12 1.56
10 0 -3 0.91 1.51
-10 0 2 6.03 2
10 0 -2 2.77 1.61
10 0 -1 -0.47 1.33
10 0 -1 -2.35 2.63
-10 0 0 31.74 3.25
10 0 0 19.9 4.39
-10 0 -1 -0.34 1.31
10 0 1 -0.55 3
-10 0 -2 8.21 2.43
10 0 2 6.78 3.58
-10 0 -3 -1.34 1.22
10 0 3 1.88 3.5
-10 0 -4 0.34 1.38
10 0 4 -0.87 3.52
-10 0 -5 0.52 1.57
10 0 5 1.08 3.65
-10 0 -6 2.01 1.9
10 0 6 -1.07 3.48
-10 0 -7 0.25 1.7
10 0 7 -2.64 3.35
10 0 8 2.15 3.54
-10 -1 8 5.28 2.5
10 -1 -8 2.98 1.77
10 1 -8 2.15 1.94
-10 -1 7 6.18 2.43
10 -1 -7 11.32 3.74
10 -1 -7 5.13 2.06
10 1 -7 4.76 2.09
-10 -1 6 1.59 1.83
10 -1 -6 0.38 2.18
10 -1 -6 2.29 1.66
10 1 -6 2.09 1.75
-10 -1 5 3.08 1.93
10 -1 -5 1.68 2.09
10 -1 -5 -0.41 1.48
10 1 -5 2.15 1.7
-10 -1 4 8.77 2.83
10 -1 -4 9.35 2.72
10 -1 -4 8.6 2.26
10 1 -4 12.16 2.67
-10 -1 3 3.06 1.93
10 -1 -3 4.51 2.12
10 -1 -3 3.62 1.65
10 1 -3 1.37 1.46
-10 -1 2 2.48 1.67
10 -1 -2 1.75 1.66
10 -1 -2 1.19 1.43
10 1 -2 -0.37 1.39
10 -1 -1 10.89 2.36
10 1 -1 7.79 2.4
10 1 -1 2.55 2.9
-10 -1 0 0.15 1.41
-10 1 0 -0.03 1.19
10 -1 0 0.06 2.99
10 -1 0 -0.03 1.64
10 1 0 0.68 1.6
10 1 0 0.2 2.79
-10 -1 -1 29.28 3.32
-10 1 -1 30.75 3.18
10 -1 1 18.85 4.54
10 -1 1 27.07 3.4
10 1 1 15.17 3.98
-10 -1 -2 -1.41 1.33
-10 1 -2 1.68 1.49
10 -1 2 -1.14 3.21
10 -1 2 0.75 1.65
10 1 2 2.34 3.35
-10 -1 -3 0.85 1.59
-10 1 -3 0.35 1.38
10 -1 3 0.46 3.57
10 -1 3 1.2 1.69
10 1 3 -0.31 3.36
-10 -1 -4 6.52 2.14
-10 1 -4 8.57 2.67
10 -1 4 5.86 3.91
10 -1 4 6.13 2.2
10 1 4 5.12 3.72
-10 -1 -5 -0.14 1.64
-10 1 -5 1.42 1.6
10 -1 5 -3.12 3.44
10 -1 5 -0.32 1.59
10 1 5 -1.12 3.52
-10 -1 -6 1.58 1.85
-10 1 -6 3.23 1.88
10 -1 6 -2.82 3.5
10 -1 6 -0.24 1.73
10 1 6 -5.01 3.24
-10 -1 -7 4.67 2.32
-10 1 -7 8.88 2.91
10 -1 7 4.9 3.81
10 -1 7 8.02 2.67
10 1 7 4.1 3.81
-10 -2 7 1.64 2.08
-10 2 7 2.2 1.78
10 -2 -7 2.25 2.46
10 2 -7 1.89 2.05
-10 -2 6 3.21 2.17
-10 2 6 1.18 1.54
10 -2 -6 3.53 2.44
10 2 -6 0.09 1.55
-10 -2 5 3.41 2.1
-10 2 5 4.95 1.9
10 -2 -5 7.83 2.63
10 2 -5 3 1.85
-10 -2 4 -0.14 1.69
-10 2 4 -1.01 1.19
10 -2 -4 0.57 2
10 2 -4 1.51 1.67
-10 -2 3 -1.17 1.47
-10 2 3 -0.62 1.17
10 -2 -3 1.23 1.9
10 2 -3 0.56 1.59
-10 -2 2 -1.61 1.33
10 -2 -2 1.79 1.72
10 -2 -2 0.22 1.77
10 2 -2 -0.22 1.39
10 2 -2 0.17 2.78
-10 2 1 0.5 1.56
10 -2 -1 -2.01 1.49
10 2 -1 0.09 1.55
10 2 -1 -2.76 2.65
10 -2 0 0.12 3.37
10 -2 0 0.47 1.54
10 2 0 -0.06 1.54
10 2 0 -0.08 3.04
-10 -2 -1 0.62 1.46
10 -2 1 0.14 3.52
10 -2 1 0.86 1.53
10 2 1 -4.48 2.9
-10 -2 -2 1.12 1.56
10 -2 2 -2 3.47
10 -2 2 0.3 1.7
10 2 2 -1.22 3.24
-10 -2 -3 -0.17 1.45
10 -2 3 -0.1 3.62
10 -2 3 0.21 1.7
10 2 3 -0.02 3.35
-10 -2 -4 0.13 1.48
10 -2 4 0.37 3.68
10 -2 4 1.18 1.77
10 2 4 3.93 3.65
-10 -2 -5 0.58 1.67
10 -2 5 1.9 3.73
10 -2 5 0.81 1.86
10 2 5 1.31 3.35
-10 -2 -6 -0.78 1.49
10 -2 6 0.54 3.59
10 -2 6 -1.14 1.66
10 2 6 -0.3 3.32
-10 -2 -7 1.1 1.95
10 -2 7 -1.33 3.56
10 -2 7 4.31 2.45
10 2 7 2.51 3.56
-10 -3 7 -1.17 1.82
-10 3 7 -0.03 1.65
10 3 -7 0.47 2.03
-10 -3 6 0.98 1.97
-10 3 6 1.68 1.64
10 -3 -6 -1.26 2.22
10 3 -6 -0.57 1.79
-10 -3 5 4.45 2.24
-10 3 5 2.91 1.81
10 -3 -5 5.15 2.69
10 3 -5 4.61 2.18
-10 -3 4 6.2 2.2
-10 3 4 5.16 2
10 -3 -4 3.99 2.34
10 3 -4 3.86 2.1
-10 -3 3 0.09 1.73
-10 3 3 -0.08 1.31
10 -3 -3 0.71 1.92
10 3 -3 -0.12 1.49
-10 -3 2 -0.02 1.59
10 -3 -2 -1.56 1.62
10 -3 -2 -0.44 1.89
10 3 -2 -1.44 1.37
10 3 -2 -2.25 3
-10 -3 1 0.08 1.63
-10 3 1 -1.42 1.3
10 -3 -1 -0.36 1.73
10 3 -1 -0.54 1.64
10 3 -1 2.55 3.03
-10 3 0 1.89 1.87
10 -3 0 1.48 2.08
10 3 0 1.6 1.88
10 3 0 -0.09 3.07
-10 -3 -1 1.39 1.51
-10 3 -1 0.47 1.74
10 -3 1 0.09 1.8
10 3 1 0.83 3.33
-10 -3 -2 3.02 1.77
-10 3 -2 1.73 1.94
10 -3 2 1.45 1.88
10 3 2 1.63 3.62
-10 -3 -3 -0.57 1.6
-10 3 -3 1.76 2.01
10 -3 3 1.89 1.92
10 3 3 -0.14 3.4
-10 -3 -4 7.67 2.44
-10 3 -4 11.65 3.61
10 -3 4 9.62 2.74
10 3 4 0.3 3.37
-10 -3 -5 1 1.78
-10 3 -5 4.13 2.5
10 -3 5 2.16 2.19
10 3 5 -1.38 3.15
-10 -3 -6 6.47 2.43
-10 3 -6 6.99 2.88
10 -3 6 6.04 2.66
10 3 6 -0.21 3.22
-10 4 6 -1.5 1.5
10 4 -6 -0.04 1.82
-10 -4 5 13.15 3.38
-10 4 5 18.44 3.54
10 -4 -5 16.91 4.09
10 4 -5 10.62 3.19
-10 -4 4 0.1 1.86
-10 4 4 0.65 1.6
10 -4 -4 0.89 2.18
10 4 -4 -0.37 1.58
-10 -4 3 1.16 1.9
-10 4 3 1.64 1.76
10 -4 -3 -1.67 1.86
10 4 -3 -0.08 1.76
-10 -4 2 5.98 2.24
10 -4 -2 5.12 2.31
10 -4 -2 5.6 2.45
10 4 -2 3.85 2.15
10 4 -2 1.67 3.1
-10 -4 1 0.71 1.71
-10 4 1 -1.89 1.55
10 -4 -1 -0.65 1.94
10 4 -1 1.06 1.85
10 4 -1 2 3.21
-10 4 0 8.89 2.59
10 -4 0 10.87 2.86
10 4 0 5.02 2.27
10 4 0 2.04 3.35
-10 -4 -1 1.9 1.78
-10 4 -1 0.18 1.83
10 -4 1 2.34 2.29
10 4 1 3.15 3.57
-10 -4 -2 5.57 2.15
-10 4 -2 4.58 2.38
10 -4 2 6.57 2.54
10 4 2 -1.46 3.3
-10 -4 -3 0.04 1.46
-10 4 -3 0.55 2.07
10 -4 3 2.61 2.16
10 4 3 -0.73 3.36
-10 -4 -4 6.17 2.24
-10 4 -4 5.39 2.59
10 -4 4 8.48 2.93
10 4 4 -0.77 3.32
-10 -4 -5 1.56 1.83
-10 4 -5 -0.41 2.19
10 -4 5 -0.27 2.11
10 4 5 -0.21 3.32
-10 5 4 -1.06 1.47
10 5 -4 0.28 2.02
-10 -5 3 6.44 2.47
-10 5 3 5.66 2.24
10 -5 -3 5.78 2.64
10 5 -3 6.96 2.49
-10 -5 2 0.26 1.93
10 -5 -2 -1.03 2.09
10 5 -2 -1.27 1.51
10 5 -2 0.13 3.17
-10 -5 1 -0.71 1.93
-10 5 1 -0.38 1.86
10 -5 -1 -0.03 2.19
10 5 -1 -3.33 1.4
10 5 -1 -0.97 3.22
-10 -5 0 4.05 2.03
-10 5 0 -0.53 1.94
10 -5 0 4.38 2.58
10 5 0 0.72 1.81
10 5 0 -2.06 3.26
-10 -5 -1 1.19 1.84
-10 5 -1 -0.32 1.94
10 -5 1 1.26 2.28
10 5 1 1.02 3.39
-10 -5 -2 1.17 1.76
-10 5 -2 3.72 2.38
10 -5 2 1.56 2.39
10 5 2 -0.72 3.5
-10 -5 -3 3.48 2.11
-10 5 -3 1.93 2.34
10 -5 3 2.37 2.41
10 5 3 1.34 3.57
-11 0 4 14.85 3.22
11 0 -4 12.03 2.96
-11 0 3 1.25 1.68
11 0 -3 0.11 1.55
11 0 -2 0.42 1.53
-11 0 1 0.93 1.54
-11 0 0 -0.72 1.36
11 0 0 -4.05 3.11
-11 0 -1 -1.06 1.33
11 0 1 -1.94 3.44
-11 0 -2 9.63 2.73
11 0 2 0.52 3.65
-11 0 -3 2.31 1.72
11 0 3 -5.45 3.45
-11 0 -4 -0.6 1.68
11 0 4 -1.27 3.67
-11 -1 4 -0.71 1.59
-11 1 4 -1.83 1.65
11 1 -4 -0.52 1.57
-11 -1 3 -0.48 1.72
-11 1 3 -1.23 1.66
11 1 -3 0.25 1.7
11 1 -2 3.24 1.92
11 1 -1 0.3 1.59
-11 -1 0 2.15 1.76
11 -1 0 0.15 3.52
11 1 0 -0.69 3.32
-11 -1 -1 23.74 3.4
11 -1 1 7.6 4.04
11 1 1 5.96 3.98
-11 -1 -2 0.11 1.57
11 -1 2 -0.48 3.61
11 1 2 -3.79 3.39
-11 -1 -3 -0.19 1.62
11 -1 3 0.86 3.87
11 1 3 -0.94 3.66
11 -1 4 -2.45 3.72
11 1 4 0.94 3.73
-11 -2 3 3.18 2.14
11 2 -3 3.88 2.07
11 2 -2 1.85 1.88
11 2 -1 0.9 1.83
-11 -2 0 2.05 1.74
-11 2 0 3.95 2.04
11 2 0 -1.41 3.36
-11 -2 -1 2.49 1.85
-11 2 -1 10.08 3.24
11 2 1 1.1 3.49
-11 -2 -2 0.32 1.7
-11 2 -2 3.8 2.22
11 -2 2 -2.55 3.87
11 -2 2 2.32 2.33
11 2 2 0.92 3.62
-11 -2 -3 4.21 2.15
11 -2 3 -1.65 3.87
11 -2 3 7.29 2.43
11 2 3 -0.07 3.67
11 3 -2 4.14 2.26
11 -3 -1 3.47 2.31
11 3 -1 2.22 1.96
11 3 -1 2.41 3.93
-11 -3 0 5.11 2.1
-11 3 0 3.34 2.2
11 -3 0 3.35 2.14
11 3 0 -4.82 3.34
-11 -3 -1 2.08 1.8
-11 3 -1 0.58 1.8
11 -3 1 -0.21 1.97
11 3 1 -2.72 3.41
