#------------------------------------------------------------------------------
#$Date: 2016-03-22 21:36:34 +0200 (Tue, 22 Mar 2016) $
#$Revision: 179022 $
#$URL: svn://www.crystallography.net/cod/cif/4/12/20/4122020.cif $
#------------------------------------------------------------------------------
#
# This file is available in the Crystallography Open Database (COD),
# http://www.crystallography.net/
#
# All data on this site have been placed in the public domain by the
# contributors.
#
data_4122020
loop_
_publ_author_name
'Lee, Sarah Yunmi'
'Neufeind, Stefan'
'Fu, Gregory C.'
_publ_section_title
;
 Enantioselective Nucleophile-Catalyzed Synthesis of Tertiary Alkyl
 Fluorides via the \a-Fluorination of Ketenes: Synthetic and Mechanistic
 Studies.
;
_journal_issue                   25
_journal_name_full               'Journal of the American Chemical Society'
_journal_page_first              8899
_journal_page_last               8902
_journal_paper_doi               10.1021/ja5044209
_journal_volume                  136
_journal_year                    2014
_chemical_absolute_configuration ad
_chemical_formula_moiety         'C12 H15 Br F N O'
_chemical_formula_sum            'C12 H15 Br F N O'
_chemical_formula_weight         288.16
_chemical_name_systematic
;
 ?
;
_space_group_crystal_system      monoclinic
_space_group_IT_number           4
_space_group_name_Hall           'P 2yb'
_space_group_name_H-M_alt        'P 1 21 1'
_symmetry_space_group_name_Hall  'P 2yb'
_symmetry_space_group_name_H-M   'P 1 21 1'
_atom_sites_solution_hydrogens   geom
_atom_sites_solution_primary     direct
_audit_creation_date             2013-07-31
_audit_creation_method
;
  Olex2 1.2
  (compiled Apr 23 2013 17:59:47, GUI svn.r4466)
;
_cell_angle_alpha                90
_cell_angle_beta                 95.193(4)
_cell_angle_gamma                90
_cell_formula_units_Z            2
_cell_length_a                   8.4495(7)
_cell_length_b                   5.1247(4)
_cell_length_c                   14.4009(12)
_cell_measurement_reflns_used    4500
_cell_measurement_temperature    100
_cell_measurement_theta_max      26.596
_cell_measurement_theta_min      2.420
_cell_volume                     621.02(9)
_computing_data_reduction        'SAINT v8.27A (Bruker, 2012)'
_computing_molecular_graphics
;
O. V. Dolomanov, L. J. Bourhis, R. J. Gildea, J. A. K. Howard and H. Puschmann,
OLEX2: a complete structure solution, refinement and analysis program.
J. Appl. Cryst. (2009). 42, 339-341.
;
_computing_publication_material
;
O. V. Dolomanov, L. J. Bourhis, R. J. Gildea, J. A. K. Howard and H. Puschmann,
OLEX2: a complete structure solution, refinement and analysis program.
J. Appl. Cryst. (2009). 42, 339-341.
;
_computing_structure_refinement
;
SHELXL, G.M. Sheldrick, Acta Cryst.
(2008). A64, 112-122
;
_computing_structure_solution
;
SHELXS, G.M. Sheldrick, Acta Cryst.
(2008). A64, 112-122
;
_diffrn_ambient_temperature      100
_diffrn_measured_fraction_theta_full 0.997
_diffrn_measured_fraction_theta_max 0.994
_diffrn_radiation_type           MoK\a
_diffrn_radiation_wavelength     0.71073
_diffrn_reflns_av_unetI/netI     0.0338
_diffrn_reflns_Laue_measured_fraction_full 0.997
_diffrn_reflns_Laue_measured_fraction_max 0.994
_diffrn_reflns_limit_h_max       10
_diffrn_reflns_limit_h_min       -10
_diffrn_reflns_limit_k_max       6
_diffrn_reflns_limit_k_min       -6
_diffrn_reflns_limit_l_max       18
_diffrn_reflns_limit_l_min       -17
_diffrn_reflns_number            23534
_diffrn_reflns_point_group_measured_fraction_full 0.989
_diffrn_reflns_point_group_measured_fraction_max 0.984
_diffrn_reflns_theta_full        25.242
_diffrn_reflns_theta_max         26.371
_diffrn_reflns_theta_min         2.420
_exptl_absorpt_coefficient_mu    3.301
_exptl_absorpt_correction_T_max  0.862085
_exptl_absorpt_correction_T_min  0.634353
_exptl_absorpt_correction_type   multi-scan
_exptl_absorpt_process_details
;
 TWINABS-2012/1 (Bruker,2012) was used for absorption correction.
 
For component 1:
 wR2(int) was 0.0924 before and 0.0763 after correction.
 The Ratio of minimum to maximum transmission is 0.74.
 The \l/2 correction factor is Not present

Final HKLF 4 output contains 23534 reflections, Rint = 0.0432
 (14358 with I > 3sig(I), Rint = 0.0381)
;
_exptl_crystal_colour            colourless
_exptl_crystal_colour_primary    colourless
_exptl_crystal_density_diffrn    1.541
_exptl_crystal_F_000             292
_exptl_crystal_size_max          0.25
_exptl_crystal_size_mid          0.24
_exptl_crystal_size_min          0.08
_refine_diff_density_max         0.659
_refine_diff_density_min         -0.544
_refine_diff_density_rms         0.072
_refine_ls_abs_structure_details
;
 Flack x determined using 987 quotients [(I+)-(I-)]/[(I+)+(I-)]
 (Parsons and Flack (2004), Acta Cryst. A60, s61).
;
_refine_ls_abs_structure_Flack   0.021(6)
_refine_ls_extinction_method     none
_refine_ls_goodness_of_fit_ref   1.092
_refine_ls_hydrogen_treatment    constr
_refine_ls_matrix_type           full
_refine_ls_number_parameters     149
_refine_ls_number_reflns         2470
_refine_ls_number_restraints     1
_refine_ls_restrained_S_all      1.092
_refine_ls_R_factor_all          0.0361
_refine_ls_R_factor_gt           0.0343
_refine_ls_shift/su_max          0.000
_refine_ls_shift/su_mean         0.000
_refine_ls_structure_factor_coef Fsqd
_refine_ls_weighting_details
;
 w=1/[\s^2^(Fo^2^)+(0.0379P)^2^+0.7929P]
 where P=(Fo^2^+2Fc^2^)/3
;
_refine_ls_weighting_scheme      calc
_refine_ls_wR_factor_gt          0.0842
_refine_ls_wR_factor_ref         0.0856
_reflns_Friedel_coverage         0.775
_reflns_Friedel_fraction_full    0.979
_reflns_Friedel_fraction_max     0.972
_reflns_number_gt                2404
_reflns_number_total             2470
_reflns_threshold_expression     'I > 2\s(I)'
_cod_data_source_file            ja5044209_si_002.cif
_cod_data_source_block           syl003
_cod_depositor_comments
'Adding full bibliography for 4122019--4122021.cif.'
_cod_database_code               4122020
#BEGIN Tags that were not found in dictionaries:
_olex2_refinement_description
;
1. Fixed Uiso
 At 1.2 times of:
  All C(H) groups, All N(H) groups
 At 1.5 times of:
  All C(H,H,H) groups
2.a Ternary CH refined with riding coordinates:
 C4(H4)
2.b Aromatic/amide H refined with riding coordinates:
 N1(H1), C9(H9), C8(H8), C11(H11), C12(H12)
2.c Idealised Me refined as rotating group:
 C5(H5A,H5B,H5C), C3(H3A,H3B,H3C), C6(H6A,H6B,H6C)
;
_shelx_res_file
;
TITL syl003 in P2(1)
CELL 0.71073 8.4495 5.1247 14.4009 90 95.193 90
ZERR 2 0.0007 0.0004 0.0012 0 0.004 0
LATT -1
SYMM -X,0.5+Y,-Z
 
SFAC C H Br F N O
UNIT 24 30 2 2 2 2
 
L.S. 10
PLAN  20
TEMP -173.15
BOND
fmap 2
acta
SHEL 999 0.8
OMIT 2 3 3
OMIT 2 4 2
 
WGHT    0.037900    0.792900
BASF   0.30159
FVAR       0.85696
BR1   3    0.651842    0.670331    0.727224    11.00000    0.04310    0.04437 =
         0.02900   -0.00216    0.00397    0.00250
F1    4    0.868148    0.399798    0.159568    11.00000    0.06289    0.01302 =
         0.04528   -0.00376    0.01578    0.00564
O1    6    0.805071    0.963780    0.292049    11.00000    0.06512    0.01048 =
         0.03726   -0.00447    0.00550   -0.00030
N1    5    0.810597    0.531047    0.327169    11.00000    0.03817    0.00685 =
         0.02970   -0.00400    0.00012   -0.00030
AFIX  43
H1    2    0.822643    0.372927    0.305041    11.00000   -1.20000
AFIX   0
C9    1    0.814673    0.786206    0.567936    11.00000    0.01935    0.01664 =
         0.03075   -0.00545   -0.00569    0.00126
AFIX  43
H9    2    0.861789    0.922944    0.605453    11.00000   -1.20000
AFIX   0
C7    1    0.780454    0.559159    0.422037    11.00000    0.01656    0.01373 =
         0.02994   -0.00141    0.00171    0.00399
C8    1    0.849028    0.758529    0.476541    11.00000    0.01809    0.01356 =
         0.03914    0.00360   -0.00442   -0.00059
AFIX  43
H8    2    0.920011    0.876817    0.450993    11.00000   -1.20000
AFIX   0
C1    1    0.821608    0.737226    0.269254    11.00000    0.04053    0.01057 =
         0.03564   -0.00042    0.00632   -0.00104
C11   1    0.645006    0.406760    0.552521    11.00000    0.02174    0.01285 =
         0.03562    0.00317    0.00135   -0.00227
AFIX  43
H11   2    0.576523    0.286172    0.579034    11.00000   -1.20000
AFIX   0
C12   1    0.681040    0.380363    0.461266    11.00000    0.02108    0.01273 =
         0.03681   -0.00189   -0.00430   -0.00286
AFIX  43
H12   2    0.637622    0.238775    0.424763    11.00000   -1.20000
AFIX   0
C2    1    0.861978    0.672071    0.169123    11.00000    0.04604    0.01386 =
         0.04407    0.00501    0.01205    0.00158
C4    1    0.726072    0.771684    0.100652    11.00000    0.05620    0.02203 =
         0.04004   -0.00101    0.00281   -0.00390
AFIX  13
H4    2    0.721352    0.965616    0.107586    11.00000   -1.20000
AFIX   0
C5    1    0.569362    0.665925    0.119644    11.00000    0.03911    0.06989 =
         0.03840   -0.01337    0.00075   -0.00978
AFIX 137
H5A   2    0.571879    0.474978    0.116373    11.00000   -1.50000
H5B   2    0.487551    0.732794    0.073115    11.00000   -1.50000
H5C   2    0.544817    0.719925    0.182027    11.00000   -1.50000
AFIX   0
C10   1    0.711326    0.613535    0.604282    11.00000    0.02603    0.01973 =
         0.02204    0.00153   -0.00559    0.00491
C3    1    1.026739    0.768788    0.156738    11.00000    0.04629    0.04101 =
         0.06488   -0.00925    0.02095   -0.00221
AFIX 137
H3A   2    1.101625    0.696352    0.206011    11.00000   -1.50000
H3B   2    1.028595    0.959735    0.160378    11.00000   -1.50000
H3C   2    1.057389    0.713317    0.095751    11.00000   -1.50000
AFIX   0
C6    1    0.766021    0.713040    0.000363    11.00000    0.09743    0.04638 =
         0.03971   -0.00077    0.01945   -0.00166
AFIX 137
H6A   2    0.874435    0.771641   -0.007409    11.00000   -1.50000
H6B   2    0.691044    0.805359   -0.044020    11.00000   -1.50000
H6C   2    0.757972    0.524856   -0.011210    11.00000   -1.50000
AFIX   0
HKLF 5
 
REM  syl003 in P2(1)
REM R1 =  0.0343 for    2404 Fo > 4sig(Fo)  and  0.0361 for all    2470 data
REM    149 parameters refined using      1 restraints
 
END  
     
WGHT      0.0379      0.7929 

REM Highest difference peak  0.659,  deepest hole -0.544,  1-sigma level  0.072
Q1    1   0.7156  0.3979  0.1529  11.00000  0.05    0.66
Q2    1   0.7258  0.6731  0.1677  11.00000  0.05    0.59
Q3    1   0.6708  0.8702  0.7339  11.00000  0.05    0.53
Q4    1   0.7324  0.6684  0.7776  11.00000  0.05    0.47
Q5    1   0.6473  0.6678  0.6750  11.00000  0.05    0.47
Q6    1   0.6613  0.4630  0.7306  11.00000  0.05    0.43
Q7    1   0.7011  0.9476  0.1493  11.00000  0.05    0.42
Q8    1   0.8854  0.7718  0.1203  11.00000  0.05    0.31
Q9    1   0.7200  0.7173  0.2614  11.00000  0.05    0.30
Q10   1   0.8793  0.6816  0.0172  11.00000  0.05    0.29
Q11   1   0.7204  0.6103  0.2645  11.00000  0.05    0.28
Q12   1   0.5475  0.1704  0.3649  11.00000  0.05    0.24
Q13   1   1.0325  1.2088  0.1998  11.00000  0.05    0.23
Q14   1   0.7200  0.4151  0.5873  11.00000  0.05    0.22
Q15   1   0.6265  0.7510  0.7803  11.00000  0.05    0.21
Q16   1   0.5669  0.9195  0.2956  11.00000  0.05    0.20
Q17   1   0.8437  0.6694  0.2251  11.00000  0.05    0.20
Q18   1   0.8738  0.1839  0.1431  11.00000  0.05    0.20
Q19   1   1.0267  1.0854  0.1991  11.00000  0.05    0.19
Q20   1   0.5749  0.8332  0.1226  11.00000  0.05    0.19


;
_shelx_space_group_comment
;
The symmetry employed for this shelxl refinement is uniquely defined
by the following loop, which should always be used as a source of
symmetry information in preference to the above space-group names.
They are only intended as comments.
;
_shelxl_version_number           2013-2
#END Tags that were not found in dictionaries
loop_
_space_group_symop_operation_xyz
'x, y, z'
'-x, y+1/2, -z'
loop_
_atom_site_label
_atom_site_type_symbol
_atom_site_fract_x
_atom_site_fract_y
_atom_site_fract_z
_atom_site_U_iso_or_equiv
_atom_site_adp_type
_atom_site_occupancy
_atom_site_site_symmetry_order
_atom_site_calc_flag
_atom_site_refinement_flags_posn
_atom_site_refinement_flags_adp
Br1 Br 0.65184(9) 0.67033(18) 0.72722(5) 0.03878(19) Uani 1 1 d . .
F1 F 0.8681(6) 0.3998(8) 0.1596(3) 0.0397(12) Uani 1 1 d . .
O1 O 0.8051(7) 0.9638(9) 0.2920(4) 0.0376(14) Uani 1 1 d . .
N1 N 0.8106(7) 0.5310(11) 0.3272(4) 0.0251(13) Uani 1 1 d . .
H1 H 0.8226 0.3729 0.3050 0.030 Uiso 1 1 calc R U
C9 C 0.8147(8) 0.7862(12) 0.5679(5) 0.0227(14) Uani 1 1 d . .
H9 H 0.8618 0.9229 0.6055 0.027 Uiso 1 1 calc R U
C7 C 0.7805(8) 0.5592(12) 0.4220(5) 0.0201(13) Uani 1 1 d . .
C8 C 0.8490(8) 0.7585(12) 0.4765(5) 0.0240(15) Uani 1 1 d . .
H8 H 0.9200 0.8768 0.4510 0.029 Uiso 1 1 calc R U
C1 C 0.8216(9) 0.7372(10) 0.2693(6) 0.0287(16) Uani 1 1 d . .
C11 C 0.6450(8) 0.4068(12) 0.5525(5) 0.0235(14) Uani 1 1 d . .
H11 H 0.5765 0.2862 0.5790 0.028 Uiso 1 1 calc R U
C12 C 0.6810(8) 0.3804(12) 0.4613(5) 0.0240(14) Uani 1 1 d . .
H12 H 0.6376 0.2388 0.4248 0.029 Uiso 1 1 calc R U
C2 C 0.8620(8) 0.672(2) 0.1691(4) 0.0342(15) Uani 1 1 d . .
C4 C 0.7261(12) 0.7717(14) 0.1007(6) 0.0395(19) Uani 1 1 d . .
H4 H 0.7214 0.9656 0.1076 0.047 Uiso 1 1 calc R U
C5 C 0.5694(9) 0.666(4) 0.1196(5) 0.0493(18) Uani 1 1 d . .
H5A H 0.5719 0.4750 0.1164 0.074 Uiso 1 1 calc R U
H5B H 0.4876 0.7328 0.0731 0.074 Uiso 1 1 calc R U
H5C H 0.5448 0.7199 0.1820 0.074 Uiso 1 1 calc R U
C10 C 0.7113(8) 0.6135(11) 0.6043(4) 0.0231(16) Uani 1 1 d . .
C3 C 1.0267(11) 0.7688(17) 0.1567(7) 0.050(2) Uani 1 1 d . .
H3A H 1.1016 0.6964 0.2060 0.075 Uiso 1 1 calc R U
H3B H 1.0286 0.9597 0.1604 0.075 Uiso 1 1 calc R U
H3C H 1.0574 0.7133 0.0958 0.075 Uiso 1 1 calc R U
C6 C 0.7660(14) 0.713(3) 0.0004(6) 0.060(3) Uani 1 1 d . .
H6A H 0.8744 0.7716 -0.0074 0.091 Uiso 1 1 calc R U
H6B H 0.6910 0.8054 -0.0440 0.091 Uiso 1 1 calc R U
H6C H 0.7580 0.5249 -0.0112 0.091 Uiso 1 1 calc R U
loop_
_atom_site_aniso_label
_atom_site_aniso_U_11
_atom_site_aniso_U_22
_atom_site_aniso_U_33
_atom_site_aniso_U_23
_atom_site_aniso_U_13
_atom_site_aniso_U_12
Br1 0.0431(3) 0.0444(4) 0.0290(3) -0.0022(5) 0.0040(3) 0.0025(6)
F1 0.063(3) 0.0130(18) 0.045(3) -0.0038(18) 0.016(2) 0.0056(19)
O1 0.065(4) 0.010(2) 0.037(3) -0.004(2) 0.006(3) 0.000(2)
N1 0.038(4) 0.007(2) 0.030(3) -0.004(2) 0.000(3) 0.000(2)
C9 0.019(3) 0.017(3) 0.031(4) -0.005(3) -0.006(3) 0.001(3)
C7 0.017(3) 0.014(3) 0.030(4) -0.001(3) 0.002(3) 0.004(3)
C8 0.018(3) 0.014(3) 0.039(4) 0.004(2) -0.004(3) -0.001(2)
C1 0.041(4) 0.011(3) 0.036(3) 0.000(3) 0.006(4) -0.001(2)
C11 0.022(3) 0.013(3) 0.036(3) 0.003(2) 0.001(3) -0.002(3)
C12 0.021(3) 0.013(3) 0.037(4) -0.002(3) -0.004(3) -0.003(3)
C2 0.046(4) 0.014(2) 0.044(3) 0.005(6) 0.012(3) 0.002(5)
C4 0.056(5) 0.022(3) 0.040(4) -0.001(3) 0.003(4) -0.004(4)
C5 0.039(4) 0.070(5) 0.038(3) -0.013(8) 0.001(3) -0.010(8)
C10 0.026(3) 0.020(4) 0.022(3) 0.002(2) -0.006(3) 0.005(2)
C3 0.046(5) 0.041(4) 0.065(6) -0.009(4) 0.021(5) -0.002(4)
C6 0.097(8) 0.046(6) 0.040(4) -0.001(4) 0.019(4) -0.002(6)
loop_
_atom_type_symbol
_atom_type_description
_atom_type_scat_dispersion_real
_atom_type_scat_dispersion_imag
_atom_type_scat_source
C C 0.0033 0.0016 'International Tables Vol C Tables 4.2.6.8 and 6.1.1.4'
H H 0.0000 0.0000 'International Tables Vol C Tables 4.2.6.8 and 6.1.1.4'
Br Br -0.2901 2.4595 'International Tables Vol C Tables 4.2.6.8 and 6.1.1.4'
F F 0.0171 0.0103 'International Tables Vol C Tables 4.2.6.8 and 6.1.1.4'
N N 0.0061 0.0033 'International Tables Vol C Tables 4.2.6.8 and 6.1.1.4'
O O 0.0106 0.0060 'International Tables Vol C Tables 4.2.6.8 and 6.1.1.4'
loop_
_geom_angle_atom_site_label_1
_geom_angle_atom_site_label_2
_geom_angle_atom_site_label_3
_geom_angle
C1 N1 C7 122.8(6)
C10 C9 C8 119.4(6)
C8 C7 N1 121.2(6)
C8 C7 C12 119.4(6)
C12 C7 N1 119.3(6)
C9 C8 C7 120.2(6)
O1 C1 N1 124.2(7)
O1 C1 C2 119.8(7)
N1 C1 C2 116.0(6)
C12 C11 C10 118.3(6)
C11 C12 C7 120.8(6)
F1 C2 C1 108.6(6)
F1 C2 C4 107.5(6)
F1 C2 C3 105.8(6)
C4 C2 C1 108.2(6)
C3 C2 C1 108.9(7)
C3 C2 C4 117.5(7)
C2 C4 C6 108.8(8)
C5 C4 C2 113.0(7)
C5 C4 C6 112.2(8)
C9 C10 Br1 118.9(5)
C9 C10 C11 121.7(6)
C11 C10 Br1 119.3(5)
loop_
_geom_bond_atom_site_label_1
_geom_bond_atom_site_label_2
_geom_bond_distance
Br1 C10 1.906(7)
F1 C2 1.404(11)
O1 C1 1.218(8)
N1 C7 1.420(9)
N1 C1 1.355(8)
C9 C8 1.381(10)
C9 C10 1.379(9)
C7 C8 1.383(9)
C7 C12 1.396(10)
C1 C2 1.548(10)
C11 C12 1.382(10)
C11 C10 1.385(9)
C2 C4 1.532(11)
C2 C3 1.503(11)
C4 C5 1.479(13)
C4 C6 1.542(12)
loop_
_refln_index_h
_refln_index_k
_refln_index_l
_refln_F_squared_meas
_refln_F_squared_sigma
_refln_scale_group_code
1 0 0 26.6962 0.40481 1
2 0 0 3927.99 55.2697 1
-3 0 1 187.189 3.21917 -2
3 0 0 187.189 3.21917 1
-4 0 1 1879.78 33.0414 -2
4 0 0 1879.78 33.0414 1
5 0 0 44.3664 1.51727 1
-6 0 2 777.867 15.3604 -2
6 0 0 777.867 15.3604 1
-7 0 2 214.056 5.47855 -2
7 0 0 214.056 5.47855 1
-8 0 3 53.4776 10.0741 -2
8 0 0 53.4776 10.0741 1
-8 0 2 8.26285 5.61494 -2
8 0 0 8.26285 5.61494 1
-9 0 3 57.3533 4.29802 -2
9 0 0 57.3533 4.29802 1
-10 0 3 54.4254 4.42642 -2
10 0 0 54.4254 4.42642 1
0 -1 0 0.85502 0.19053 1
0 1 0 0.72409 0.19072 1
1 1 0 9356.83 244.039 -2
-1 -1 0 9356.83 244.039 1
-1 -1 0 9999.99 579.358 -2
1 1 0 9999.99 579.358 1
-2 -1 0 770.929 11.686 1
2 -1 -1 895.799 55.4088 -2
2 1 0 895.799 55.4088 1
-3 1 1 763.076 12.8317 -2
-3 -1 0 763.076 12.8317 1
3 -1 -1 738.471 11.8778 -2
3 1 0 738.471 11.8778 1
-4 1 1 439.783 8.84374 -2
-4 -1 0 439.783 8.84374 1
4 -1 -1 356.469 7.45153 -2
4 1 0 356.469 7.45153 1
-5 -1 0 602.644 10.318 1
5 1 0 580.456 10.6463 1
-6 1 2 66.9597 2.39021 -2
-6 -1 0 66.9597 2.39021 1
6 -1 -2 69.2048 2.14553 -2
6 1 0 69.2048 2.14553 1
-7 1 2 76.8014 3.18152 -2
-7 -1 0 76.8014 3.18152 1
7 -1 -2 60.7746 2.74818 -2
7 1 0 60.7746 2.74818 1
-8 1 2 146.449 8.42301 -2
-8 -1 0 146.449 8.42301 1
8 -1 -2 115.068 13.3505 -2
8 1 0 115.068 13.3505 1
8 -1 -3 65.4878 8.12696 -2
8 1 0 65.4878 8.12696 1
-9 1 3 77.9667 4.78223 -2
-9 -1 0 77.9667 4.78223 1
9 -1 -3 63.6475 4.08928 -2
9 1 0 63.6475 4.08928 1
-10 1 3 27.3288 4.82597 -2
-10 -1 0 27.3288 4.82597 1
10 -1 -3 38.4293 4.0683 -2
10 1 0 38.4293 4.0683 1
-11 1 3 52.4264 22.3648 -2
-11 -1 0 52.4264 22.3648 1
0 2 0 1914.79 40.0868 -2
0 -2 0 1914.79 40.0868 1
0 -2 0 2014.56 28.851 -2
0 2 0 2014.56 28.851 1
1 2 0 652.372 15.0727 -2
-1 -2 0 652.372 15.0727 1
-1 -2 0 642.619 12.8554 -2
1 2 0 642.619 12.8554 1
-2 2 1 282.133 12.0516 -2
-2 -2 0 282.133 12.0516 1
2 -2 -1 262.827 11.9807 -2
2 2 0 262.827 11.9807 1
-3 2 1 572.976 9.92195 -2
-3 -2 0 572.976 9.92195 1
3 -2 -1 585.165 8.51177 -2
3 2 0 585.165 8.51177 1
-4 2 1 326.318 6.65047 -2
-4 -2 0 326.318 6.65047 1
4 -2 -1 348.665 5.45076 -2
4 2 0 348.665 5.45076 1
-5 2 2 39.0408 4.70756 -2
-5 -2 0 39.0408 4.70756 1
5 -2 -2 38.2068 3.02069 -2
5 2 0 38.2068 3.02069 1
-6 2 2 217.785 5.04021 -2
-6 -2 0 217.785 5.04021 1
6 -2 -2 242.622 4.40363 -2
6 2 0 242.622 4.40363 1
-7 2 2 128.141 4.01387 -2
-7 -2 0 128.141 4.01387 1
7 -2 -2 98.8133 3.56116 -2
7 2 0 98.8133 3.56116 1
-8 2 2 18.3551 10.45 -2
-8 -2 0 18.3551 10.45 1
8 -2 -3 84.0916 12.6408 -2
8 2 0 84.0916 12.6408 1
-9 2 3 15.3316 4.8885 -2
-9 -2 0 15.3316 4.8885 1
9 -2 -3 15.4076 3.37195 -2
9 2 0 15.4076 3.37195 1
-10 2 3 40.3322 5.85838 -2
-10 -2 0 40.3322 5.85838 1
10 -2 -3 49.5785 4.58722 -2
10 2 0 49.5785 4.58722 1
0 -3 0 -0.5085 0.71616 1
0 3 0 -0.1141 0.51334 1
1 3 0 1268.39 25.1755 -2
-1 -3 0 1268.39 25.1755 1
-1 -3 0 1312.53 15.8201 -2
1 3 0 1312.53 15.8201 1
-2 3 1 671.01 16.9838 -2
-2 -3 0 671.01 16.9838 1
2 -3 -1 645.367 10.0004 -2
2 3 0 645.367 10.0004 1
-3 3 1 375.093 7.48285 -2
-3 -3 0 375.093 7.48285 1
3 -3 -1 364.222 5.04577 -2
3 3 0 364.222 5.04577 1
-4 3 1 171.244 4.37575 -2
-4 -3 0 171.244 4.37575 1
4 -3 -1 182.476 3.35777 -2
4 3 0 182.476 3.35777 1
-5 3 2 486.089 25.4742 -2
-5 -3 0 486.089 25.4742 1
5 -3 -2 584.304 14.3123 -2
5 3 0 584.304 14.3123 1
-6 3 2 53.4865 3.09269 -2
-6 -3 0 53.4865 3.09269 1
6 -3 -2 38.3893 2.1778 -2
6 3 0 38.3893 2.1778 1
-7 3 2 24.7641 3.91494 -2
-7 -3 0 24.7641 3.91494 1
7 -3 -2 28.0277 2.97763 -2
7 3 0 28.0277 2.97763 1
-8 3 2 65.4012 12.678 -2
-8 -3 0 65.4012 12.678 1
-9 3 3 48.2832 7.05256 -2
-9 -3 0 48.2832 7.05256 1
9 -3 -3 62.2491 4.67335 -2
9 3 0 62.2491 4.67335 1
0 4 0 599.534 17.163 -2
0 -4 0 599.534 17.163 1
0 -4 0 611.804 11.3241 -2
0 4 0 611.804 11.3241 1
1 4 0 296.726 6.91605 -2
-1 -4 0 296.726 6.91605 1
-1 -4 0 284.777 4.2026 -2
1 4 0 284.777 4.2026 1
-2 4 1 228.405 5.70078 -2
-2 -4 0 228.405 5.70078 1
2 -4 -1 220.846 3.88447 -2
2 4 0 220.846 3.88447 1
-3 4 1 508.571 13.5731 -2
-3 -4 0 508.571 13.5731 1
3 -4 -1 452.947 6.89546 -2
3 4 0 452.947 6.89546 1
-4 4 1 378.089 11.5362 -2
-4 -4 0 378.089 11.5362 1
4 -4 -1 381.507 6.3065 -2
4 4 0 381.507 6.3065 1
-5 4 2 92.1321 6.37829 -2
-5 -4 0 92.1321 6.37829 1
5 -4 -2 111.103 5.87968 -2
5 4 0 111.103 5.87968 1
-6 4 2 98.9468 5.0297 -2
-6 -4 0 98.9468 5.0297 1
6 -4 -2 107.16 3.40668 -2
6 4 0 107.16 3.40668 1
-7 4 2 45.1091 4.70897 -2
-7 -4 0 45.1091 4.70897 1
7 -4 -2 40.8487 3.57332 -2
7 4 0 40.8487 3.57332 1
0 -5 0 0.70309 3.45363 1
0 5 0 0.93077 1.61753 1
1 5 0 10.1961 3.52176 -2
-1 -5 0 10.1961 3.52176 1
-1 -5 0 13.4872 1.8539 -2
1 5 0 13.4872 1.8539 1
-2 5 1 323.667 11.1172 -2
-2 -5 0 323.667 11.1172 1
2 -5 -1 304.102 6.45555 -2
2 5 0 304.102 6.45555 1
-3 5 1 123.011 6.04437 -2
-3 -5 0 123.011 6.04437 1
3 -5 -1 117.089 2.89416 -2
3 5 0 117.089 2.89416 1
-4 5 1 108.092 6.35973 -2
-4 -5 0 108.092 6.35973 1
4 -5 -1 102.49 3.4023 -2
4 5 0 102.49 3.4023 1
-5 5 2 76.308 10.9609 -2
-5 -5 0 76.308 10.9609 1
5 -5 -2 72.7877 10.7436 -2
5 5 0 72.7877 10.7436 1
-6 5 2 14.6158 4.6912 -2
-6 -5 0 14.6158 4.6912 1
6 -5 -2 24.6262 3.06301 -2
6 5 0 24.6262 3.06301 1
-7 5 2 35.0839 7.68648 -2
-7 -5 0 35.0839 7.68648 1
7 -5 -2 23.1191 5.99586 -2
7 5 0 23.1191 5.99586 1
0 6 0 4.33362 5.55944 -2
0 -6 0 4.33362 5.55944 1
0 -6 0 19.8713 2.9737 -2
0 6 0 19.8713 2.9737 1
1 6 0 39.0058 7.86261 -2
-1 -6 0 39.0058 7.86261 1
-1 -6 0 50.4002 4.24903 -2
1 6 0 50.4002 4.24903 1
-2 6 1 25.1344 8.4381 -2
-2 -6 0 25.1344 8.4381 1
2 -6 -1 26.6001 6.81699 -2
2 6 0 26.6001 6.81699 1
-3 6 1 41.5092 5.76988 -2
-3 -6 0 41.5092 5.76988 1
3 -6 -1 34.8019 2.69798 -2
3 6 0 34.8019 2.69798 1
-4 6 1 23.6775 7.44173 -2
-4 -6 0 23.6775 7.44173 1
4 -6 -1 31.0076 4.3163 -2
4 6 0 31.0076 4.3163 1
5 -6 -2 22.6752 16.241 -2
5 6 0 22.6752 16.241 1
-10 0 2 20.2425 3.99943 -2
-10 0 1 20.2425 3.99943 1
-9 0 2 90.728 4.66566 -2
-9 0 1 90.728 4.66566 1
-8 0 2 66.6673 10.3074 -2
-8 0 1 66.6673 10.3074 1
-8 0 1 87.0773 6.38179 -2
-8 0 1 87.0773 6.38179 1
-7 0 1 240.428 5.92241 -2
-7 0 1 240.428 5.92241 1
-6 0 1 11.1447 1.76204 -2
-6 0 1 11.1447 1.76204 1
-5 0 1 505.314 8.73258 1
4 0 0 2992.96 50.4352 -2
-4 0 1 2992.96 50.4352 1
3 0 0 159.149 2.71587 -2
-3 0 1 159.149 2.71587 1
-2 0 1 1669.04 22.3064 1
-1 0 1 32.7563 0.43962 1
1 0 1 107.966 1.73845 1
2 0 1 7739.38 129.728 1
-3 0 2 728.145 12.8771 -2
3 0 1 728.145 12.8771 1
-4 0 2 1072.93 19.8306 -2
4 0 1 1072.93 19.8306 1
5 0 1 196.853 4.11408 1
-6 0 3 589.119 11.8307 -2
6 0 1 589.119 11.8307 1
-7 0 3 94.0425 3.52206 -2
7 0 1 94.0425 3.52206 1
-8 0 3 300.388 11.6086 -2
8 0 1 300.388 11.6086 1
-8 0 4 284.561 20.2358 -2
8 0 1 284.561 20.2358 1
-9 0 4 116.486 5.10125 -2
9 0 1 116.486 5.10125 1
-10 0 4 1.49423 3.83429 -2
10 0 1 1.49423 3.83429 1
-11 0 4 27.4383 22.0294 -2
11 0 1 27.4383 22.0294 1
-10 1 2 43.4023 4.97361 -2
10 -1 -1 43.4023 4.97361 1
10 -1 -2 38.441 4.24096 -2
-10 1 1 38.441 4.24096 1
-9 1 2 54.1355 4.47264 -2
9 -1 -1 54.1355 4.47264 1
9 -1 -2 59.163 4.16795 -2
-9 1 1 59.163 4.16795 1
-8 1 1 40.7494 6.3719 -2
8 -1 -1 40.7494 6.3719 1
-8 1 2 80.9997 12.4321 -2
8 -1 -1 80.9997 12.4321 1
8 -1 -1 38.9564 10.4566 -2
-8 1 1 38.9564 10.4566 1
8 -1 -2 92.91 11.3688 -2
-8 1 1 92.91 11.3688 1
-7 1 1 182.883 4.65692 -2
7 -1 -1 182.883 4.65692 1
7 -1 -1 179.611 4.3176 -2
-7 1 1 179.611 4.3176 1
-6 1 1 556.54 10.5942 -2
6 -1 -1 556.54 10.5942 1
6 -1 -1 543.638 9.72911 -2
-6 1 1 543.638 9.72911 1
-5 1 1 293.791 19.6416 -2
5 -1 -1 293.791 19.6416 1
-5 1 1 195.708 3.64818 1
4 1 0 663.293 12.5753 -2
4 -1 -1 663.293 12.5753 1
-4 -1 0 791.604 11.6294 -2
-4 1 1 791.604 11.6294 1
3 1 0 1642.41 24.776 -2
3 -1 -1 1642.41 24.776 1
-3 -1 0 1630.37 25.5154 -2
-3 1 1 1630.37 25.5154 1
2 -1 -1 538.2 8.54425 1
-2 -1 0 812.655 50.3465 -2
-2 1 1 812.655 50.3465 1
1 1 1 1488.24 91.116 -2
1 -1 -1 1488.24 91.116 1
-1 -1 -1 1625.23 95.6317 -2
-1 1 1 1625.23 95.6317 1
0 1 1 508.288 6.11421 -2
0 -1 -1 508.288 6.11421 1
0 -1 -1 500.736 5.61614 -2
0 1 1 500.736 5.61614 1
-1 1 1 2033.71 78.766 -2
-1 -1 -1 2033.71 78.766 1
1 -1 -1 1941.18 83.9758 -2
1 1 1 1941.18 83.9758 1
-2 1 2 1969.21 114.461 -2
-2 -1 -1 1969.21 114.461 1
2 1 1 1208.42 17.7174 1
-3 1 2 2154.41 36.7473 -2
-3 -1 -1 2154.41 36.7473 1
3 -1 -2 2006.3 35.0384 -2
3 1 1 2006.3 35.0384 1
-4 1 2 711.614 13.2887 -2
-4 -1 -1 711.614 13.2887 1
4 -1 -2 712.535 12.2634 -2
4 1 1 712.535 12.2634 1
-5 1 3 86.422 8.04199 -2
-5 -1 -1 86.422 8.04199 1
5 1 1 8.07937 0.98646 1
-6 1 3 254.225 6.2341 -2
-6 -1 -1 254.225 6.2341 1
6 -1 -3 282.744 5.70635 -2
6 1 1 282.744 5.70635 1
-7 1 3 430.42 9.47343 -2
-7 -1 -1 430.42 9.47343 1
7 -1 -3 414.763 8.97403 -2
7 1 1 414.763 8.97403 1
-8 1 3 40.7738 6.55889 -2
-8 -1 -1 40.7738 6.55889 1
-8 1 4 101.567 12.2166 -2
-8 -1 -1 101.567 12.2166 1
8 -1 -3 29.9718 7.90849 -2
8 1 1 29.9718 7.90849 1
8 -1 -4 116.022 13.7774 -2
8 1 1 116.022 13.7774 1
-9 1 4 35.5575 4.63675 -2
-9 -1 -1 35.5575 4.63675 1
9 -1 -4 35.6038 3.79857 -2
9 1 1 35.6038 3.79857 1
-10 1 4 36.4376 5.48455 -2
-10 -1 -1 36.4376 5.48455 1
10 -1 -4 28.2607 3.99543 -2
10 1 1 28.2607 3.99543 1
-10 2 2 18.5646 5.44162 -2
10 -2 -1 18.5646 5.44162 1
10 -2 -2 29.2581 4.28733 -2
-10 2 1 29.2581 4.28733 1
-9 2 2 50.3426 5.03868 -2
9 -2 -1 50.3426 5.03868 1
9 -2 -2 48.4646 3.97452 -2
-9 2 1 48.4646 3.97452 1
-8 2 1 187.842 16.0472 -2
8 -2 -1 187.842 16.0472 1
8 -2 -2 138.222 14.4754 -2
-8 2 1 138.222 14.4754 1
-7 2 1 33.5605 2.96149 -2
7 -2 -1 33.5605 2.96149 1
7 -2 -1 39.9308 2.77502 -2
-7 2 1 39.9308 2.77502 1
-6 2 1 78.5114 2.84444 -2
6 -2 -1 78.5114 2.84444 1
6 -2 -1 79.6824 2.27652 -2
-6 2 1 79.6824 2.27652 1
-5 2 1 502.677 32.0711 -2
5 -2 -1 502.677 32.0711 1
5 -2 -1 477.483 16.1577 -2
-5 2 1 477.483 16.1577 1
4 2 0 470.706 8.59991 -2
4 -2 -1 470.706 8.59991 1
-4 -2 0 463.623 7.33072 -2
-4 2 1 463.623 7.33072 1
3 2 0 274.12 4.5005 -2
3 -2 -1 274.12 4.5005 1
-3 -2 0 263.223 3.9871 -2
-3 2 1 263.223 3.9871 1
2 2 0 539.68 33.7183 -2
2 -2 -1 539.68 33.7183 1
-2 -2 0 536.065 34.0472 -2
-2 2 1 536.065 34.0472 1
1 2 1 1569.08 32.4471 -2
1 -2 -1 1569.08 32.4471 1
-1 -2 -1 1602.91 25.3619 -2
-1 2 1 1602.91 25.3619 1
0 2 1 163.514 2.34395 -2
0 -2 -1 163.514 2.34395 1
0 -2 -1 154.516 1.73864 -2
0 2 1 154.516 1.73864 1
-1 2 1 1804.47 44.7 -2
-1 -2 -1 1804.47 44.7 1
1 -2 -1 1764.91 28.9884 -2
1 2 1 1764.91 28.9884 1
-2 2 2 865.128 29.3908 -2
-2 -2 -1 865.128 29.3908 1
2 -2 -2 805.065 24.2607 -2
2 2 1 805.065 24.2607 1
-3 2 2 459.986 7.90117 -2
-3 -2 -1 459.986 7.90117 1
3 -2 -2 455.923 6.36996 -2
3 2 1 455.923 6.36996 1
-4 2 2 646.606 10.8061 -2
-4 -2 -1 646.606 10.8061 1
4 -2 -2 547.469 9.77457 -2
4 2 1 547.469 9.77457 1
-5 2 3 538.093 19.7533 -2
-5 -2 -1 538.093 19.7533 1
5 -2 -3 518 25.0278 -2
5 2 1 518 25.0278 1
-6 2 3 200.167 6.02342 -2
-6 -2 -1 200.167 6.02342 1
6 -2 -3 251.278 4.65533 -2
6 2 1 251.278 4.65533 1
-7 2 3 90.285 3.96621 -2
-7 -2 -1 90.285 3.96621 1
7 -2 -3 94.3028 3.09858 -2
7 2 1 94.3028 3.09858 1
-8 2 3 147.614 10.7551 -2
-8 -2 -1 147.614 10.7551 1
8 -2 -4 125.023 13.9472 -2
8 2 1 125.023 13.9472 1
-9 2 4 47.0316 5.24215 -2
-9 -2 -1 47.0316 5.24215 1
9 -2 -4 46.6076 4.32786 -2
9 2 1 46.6076 4.32786 1
-10 2 4 17.1673 5.79565 -2
-10 -2 -1 17.1673 5.79565 1
10 -2 -4 16.2963 5.11829 -2
10 2 1 16.2963 5.11829 1
-10 3 2 16.8642 14.5041 -2
10 -3 -1 16.8642 14.5041 1
10 -3 -2 21.0006 8.9739 -2
-10 3 1 21.0006 8.9739 1
-9 3 2 32.2927 6.58512 -2
9 -3 -1 32.2927 6.58512 1
9 -3 -2 39.8529 4.22309 -2
-9 3 1 39.8529 4.22309 1
-8 3 1 7.9663 10.9576 -2
8 -3 -1 7.9663 10.9576 1
-7 3 1 165.844 5.58372 -2
7 -3 -1 165.844 5.58372 1
7 -3 -1 166.758 4.67291 -2
-7 3 1 166.758 4.67291 1
-6 3 1 118.57 4.33686 -2
6 -3 -1 118.57 4.33686 1
6 -3 -1 129.664 3.25693 -2
-6 3 1 129.664 3.25693 1
-5 3 1 30.6168 5.78953 -2
5 -3 -1 30.6168 5.78953 1
5 -3 -1 28.0889 3.24352 -2
-5 3 1 28.0889 3.24352 1
4 3 0 98.1276 2.67369 -2
4 -3 -1 98.1276 2.67369 1
-4 -3 0 75.4621 2.12787 -2
-4 3 1 75.4621 2.12787 1
3 3 0 693.883 13.9875 -2
3 -3 -1 693.883 13.9875 1
-3 -3 0 713.074 9.6606 -2
-3 3 1 713.074 9.6606 1
2 3 0 525.931 14.577 -2
2 -3 -1 525.931 14.577 1
-2 -3 0 579.741 9.85612 -2
-2 3 1 579.741 9.85612 1
1 3 1 473.626 10.3498 -2
1 -3 -1 473.626 10.3498 1
-1 -3 -1 495.248 5.9991 -2
-1 3 1 495.248 5.9991 1
0 3 1 520.944 8.58373 -2
0 -3 -1 520.944 8.58373 1
0 -3 -1 480.189 5.46777 -2
0 3 1 480.189 5.46777 1
-1 3 1 421.826 8.42668 -2
-1 -3 -1 421.826 8.42668 1
1 -3 -1 398.199 4.62682 -2
1 3 1 398.199 4.62682 1
-2 3 2 70.7062 2.92624 -2
-2 -3 -1 70.7062 2.92624 1
2 -3 -2 87.6214 1.94207 -2
2 3 1 87.6214 1.94207 1
-3 3 2 731.056 13.9689 -2
-3 -3 -1 731.056 13.9689 1
3 -3 -2 693.572 8.95358 -2
3 3 1 693.572 8.95358 1
-4 3 2 414.995 9.08449 -2
-4 -3 -1 414.995 9.08449 1
4 -3 -2 416.924 6.34687 -2
4 3 1 416.924 6.34687 1
-5 3 3 135.773 7.56538 -2
-5 -3 -1 135.773 7.56538 1
5 -3 -3 158.241 5.04256 -2
5 3 1 158.241 5.04256 1
-6 3 3 211.628 6.19222 -2
-6 -3 -1 211.628 6.19222 1
6 -3 -3 208.644 4.34713 -2
6 3 1 208.644 4.34713 1
-7 3 3 250.112 9.71412 -2
-7 -3 -1 250.112 9.71412 1
7 -3 -3 304.75 6.68227 -2
7 3 1 304.75 6.68227 1
-8 3 3 25.2694 11.6133 -2
-8 -3 -1 25.2694 11.6133 1
-9 3 4 17.4807 6.63333 -2
-9 -3 -1 17.4807 6.63333 1
9 -3 -4 17.759 4.60309 -2
9 3 1 17.759 4.60309 1
-9 4 2 -0.3179 9.63833 -2
9 -4 -1 -0.3179 9.63833 1
9 -4 -2 25.3828 10.6118 -2
-9 4 1 25.3828 10.6118 1
-7 4 1 37.2266 4.32071 -2
7 -4 -1 37.2266 4.32071 1
7 -4 -1 35.3543 3.47147 -2
-7 4 1 35.3543 3.47147 1
-6 4 1 81.0494 4.49824 -2
6 -4 -1 81.0494 4.49824 1
6 -4 -1 83.0589 3.25287 -2
-6 4 1 83.0589 3.25287 1
-5 4 1 62.2294 5.42736 -2
5 -4 -1 62.2294 5.42736 1
5 -4 -1 78.6746 6.32216 -2
-5 4 1 78.6746 6.32216 1
4 4 0 255.584 9.13626 -2
4 -4 -1 255.584 9.13626 1
-4 -4 0 302.477 5.22008 -2
-4 4 1 302.477 5.22008 1
3 4 0 410.822 11.8288 -2
3 -4 -1 410.822 11.8288 1
-3 -4 0 453.97 6.59526 -2
-3 4 1 453.97 6.59526 1
2 4 0 457.235 11.0912 -2
2 -4 -1 457.235 11.0912 1
-2 -4 0 490.807 7.30108 -2
-2 4 1 490.807 7.30108 1
1 4 1 474.743 11.3319 -2
1 -4 -1 474.743 11.3319 1
-1 -4 -1 408.393 5.61673 -2
-1 4 1 408.393 5.61673 1
0 4 1 31.8274 1.3702 -2
0 -4 -1 31.8274 1.3702 1
0 -4 -1 31.9048 0.89746 -2
0 4 1 31.9048 0.89746 1
-1 4 1 231.586 5.78101 -2
-1 -4 -1 231.586 5.78101 1
1 -4 -1 237.389 3.72432 -2
1 4 1 237.389 3.72432 1
-2 4 2 344.73 9.3737 -2
-2 -4 -1 344.73 9.3737 1
2 -4 -2 336.316 5.65307 -2
2 4 1 336.316 5.65307 1
-3 4 2 213.916 7.7631 -2
-3 -4 -1 213.916 7.7631 1
3 -4 -2 221.483 3.48854 -2
3 4 1 221.483 3.48854 1
-4 4 2 119.713 5.62317 -2
-4 -4 -1 119.713 5.62317 1
4 -4 -2 126.384 2.8817 -2
4 4 1 126.384 2.8817 1
-5 4 3 267.02 13.5169 -2
-5 -4 -1 267.02 13.5169 1
5 -4 -3 247.554 8.2271 -2
5 4 1 247.554 8.2271 1
-6 4 3 87.7235 5.24781 -2
-6 -4 -1 87.7235 5.24781 1
6 -4 -3 93.4676 3.10368 -2
6 4 1 93.4676 3.10368 1
-7 4 3 30.4355 5.3922 -2
-7 -4 -1 30.4355 5.3922 1
7 -4 -3 33.4619 3.30548 -2
7 4 1 33.4619 3.30548 1
-7 5 1 116.851 9.63148 -2
7 -5 -1 116.851 9.63148 1
7 -5 -1 108.799 6.76612 -2
-7 5 1 108.799 6.76612 1
-6 5 1 49.7645 5.03582 -2
6 -5 -1 49.7645 5.03582 1
6 -5 -1 47.1566 3.42763 -2
-6 5 1 47.1566 3.42763 1
-5 5 1 21.5976 9.20723 -2
5 -5 -1 21.5976 9.20723 1
5 -5 -1 28.6233 10.0484 -2
-5 5 1 28.6233 10.0484 1
4 5 0 55.2965 4.53595 -2
4 -5 -1 55.2965 4.53595 1
-4 -5 0 79.237 3.06139 -2
-4 5 1 79.237 3.06139 1
3 5 0 108.836 5.43846 -2
3 -5 -1 108.836 5.43846 1
-3 -5 0 133.185 3.01488 -2
-3 5 1 133.185 3.01488 1
2 5 0 288.823 10.3149 -2
2 -5 -1 288.823 10.3149 1
-2 -5 0 281.828 5.46001 -2
-2 5 1 281.828 5.46001 1
1 5 1 80.0363 5.03114 -2
1 -5 -1 80.0363 5.03114 1
-1 -5 -1 89.5996 2.47417 -2
-1 5 1 89.5996 2.47417 1
0 5 1 491.517 15.779 -2
0 -5 -1 491.517 15.779 1
0 -5 -1 473.082 6.99733 -2
0 5 1 473.082 6.99733 1
-1 5 1 33.5835 3.72269 -2
-1 -5 -1 33.5835 3.72269 1
1 -5 -1 37.6572 2.03154 -2
1 5 1 37.6572 2.03154 1
-2 5 2 59.0495 5.12177 -2
-2 -5 -1 59.0495 5.12177 1
2 -5 -2 56.4869 2.55643 -2
2 5 1 56.4869 2.55643 1
-3 5 2 50.349 4.30303 -2
-3 -5 -1 50.349 4.30303 1
3 -5 -2 56.1639 2.17525 -2
3 5 1 56.1639 2.17525 1
-4 5 2 111.024 6.82215 -2
-4 -5 -1 111.024 6.82215 1
4 -5 -2 121.809 3.53292 -2
4 5 1 121.809 3.53292 1
5 -5 -3 37.3073 10.0447 -2
5 5 1 37.3073 10.0447 1
-6 5 3 73.3862 6.84534 -2
-6 -5 -1 73.3862 6.84534 1
6 -5 -3 69.8825 3.86433 -2
6 5 1 69.8825 3.86433 1
7 -5 -3 21.3226 6.08485 -2
7 5 1 21.3226 6.08485 1
5 -6 -1 26.4621 15.9947 -2
-5 6 1 26.4621 15.9947 1
4 6 0 16.7397 5.35955 -2
4 -6 -1 16.7397 5.35955 1
-4 -6 0 15.4736 4.35544 -2
-4 6 1 15.4736 4.35544 1
3 6 0 25.1877 4.83494 -2
3 -6 -1 25.1877 4.83494 1
-3 -6 0 20.5682 2.72947 -2
-3 6 1 20.5682 2.72947 1
-2 -6 0 46.4274 5.94598 -2
-2 6 1 46.4274 5.94598 1
1 6 1 64.4532 7.70805 -2
1 -6 -1 64.4532 7.70805 1
-1 -6 -1 61.4169 4.53227 -2
-1 6 1 61.4169 4.53227 1
0 6 1 8.48947 3.74834 -2
0 -6 -1 8.48947 3.74834 1
0 -6 -1 6.69563 1.98709 -2
0 6 1 6.69563 1.98709 1
-1 6 1 92.4734 9.67957 -2
-1 -6 -1 92.4734 9.67957 1
1 -6 -1 67.1443 4.07258 -2
1 6 1 67.1443 4.07258 1
-2 6 2 39.6346 10.0739 -2
-2 -6 -1 39.6346 10.0739 1
2 -6 -2 14.4035 12.3561 -2
2 -6 -1 14.4035 12.3561 -2
2 6 1 14.4035 12.3561 1
2 -6 -2 64.7363 11.3832 -2
2 6 1 64.7363 11.3832 1
-3 6 2 41.089 6.1102 -2
-3 -6 -1 41.089 6.1102 1
3 -6 -2 40.2849 2.67142 -2
3 6 1 40.2849 2.67142 1
-4 6 2 40.4728 6.45794 -2
-4 -6 -1 40.4728 6.45794 1
4 -6 -2 42.3349 4.77975 -2
4 6 1 42.3349 4.77975 1
5 -6 -3 49.6692 16.0398 -2
5 6 1 49.6692 16.0398 1
-10 0 1 40.1498 4.66101 -2
-10 0 2 40.1498 4.66101 1
-9 0 1 81.1116 4.25418 -2
-9 0 2 81.1116 4.25418 1
8 0 0 13.6919 5.04087 -2
-8 0 2 13.6919 5.04087 1
7 0 0 300.553 6.37876 -2
-7 0 2 300.553 6.37876 1
6 0 0 364.559 7.25769 -2
-6 0 2 364.559 7.25769 1
-5 0 2 51.8093 1.29926 1
4 0 1 673.559 10.4186 -2
-4 0 2 673.559 10.4186 1
3 0 1 1109.62 16.3425 -2
-3 0 2 1109.62 16.3425 1
-2 0 2 672.535 8.40955 1
-1 0 2 242.888 2.90614 1
0 0 2 1550.78 20.6251 -2
0 0 2 1550.78 20.6251 1
1 0 2 1142.89 18.1741 1
2 0 2 285.184 4.8811 1
-3 0 3 72.8185 1.60164 -2
3 0 2 72.8185 1.60164 1
-4 0 3 1079.79 19.0765 -2
4 0 2 1079.79 19.0765 1
5 0 2 166.319 3.52396 1
-6 0 4 780.324 15.4529 -2
6 0 2 780.324 15.4529 1
-7 0 4 261.511 6.41931 -2
7 0 2 261.511 6.41931 1
-8 0 5 42.9894 7.77173 -2
8 0 2 42.9894 7.77173 1
-8 0 4 31.5998 7.08632 -2
8 0 2 31.5998 7.08632 1
-9 0 5 11.6205 3.86853 -2
9 0 2 11.6205 3.86853 1
-10 0 5 17.6519 4.20148 -2
10 0 2 17.6519 4.20148 1
-10 1 1 20.5509 4.67626 -2
10 -1 -2 20.5509 4.67626 1
10 -1 -1 18.9774 4.0866 -2
-10 1 2 18.9774 4.0866 1
-9 1 1 53.3488 4.37129 -2
9 -1 -2 53.3488 4.37129 1
9 -1 -1 42.2976 4.04858 -2
-9 1 2 42.2976 4.04858 1
8 1 0 160.311 8.94615 -2
8 -1 -2 160.311 8.94615 1
-8 -1 0 178.001 12.282 -2
-8 1 2 178.001 12.282 1
7 1 0 54.855 2.89141 -2
7 -1 -2 54.855 2.89141 1
-7 -1 0 77.713 2.78361 -2
-7 1 2 77.713 2.78361 1
6 1 0 59.416 2.2926 -2
6 -1 -2 59.416 2.2926 1
-6 -1 0 66.5902 1.86521 -2
-6 1 2 66.5902 1.86521 1
5 -1 -2 468.294 8.79837 1
-5 1 2 507.959 7.80748 1
4 1 1 781.877 13.4175 -2
4 -1 -2 781.877 13.4175 1
-4 -1 -1 751.573 12.5999 -2
-4 1 2 751.573 12.5999 1
3 1 1 927.1 14.1392 -2
3 -1 -2 927.1 14.1392 1
-3 -1 -1 982.967 13.136 -2
-3 1 2 982.967 13.136 1
2 -1 -2 1769.69 26.9876 1
-2 -1 -1 2401.29 107.044 -2
-2 1 2 2401.29 107.044 1
1 1 2 1155.47 50.8147 -2
1 -1 -2 1155.47 50.8147 1
-1 -1 -2 1178.18 52.1751 -2
-1 1 2 1178.18 52.1751 1
0 1 2 1853.23 28.1963 -2
0 -1 -2 1853.23 28.1963 1
0 -1 -2 1835.69 23.7286 -2
0 1 2 1835.69 23.7286 1
-1 1 2 644.959 17.4196 -2
-1 -1 -2 644.959 17.4196 1
1 -1 -2 666.855 15.8773 -2
1 1 2 666.855 15.8773 1
-2 1 3 2081.47 88.3441 -2
-2 -1 -2 2081.47 88.3441 1
2 1 2 1921.73 30.1546 1
-3 1 3 1204.21 22.4611 -2
-3 -1 -2 1204.21 22.4611 1
3 -1 -3 1116.36 19.411 -2
3 1 2 1116.36 19.411 1
-4 1 3 338.097 7.98313 -2
-4 -1 -2 338.097 7.98313 1
4 -1 -3 395.516 6.34173 -2
4 1 2 395.516 6.34173 1
-5 -1 -2 826.545 15.696 1
5 -1 -4 1063.94 47.5459 -2
5 1 2 1063.94 47.5459 1
-6 1 4 157.03 4.36827 -2
-6 -1 -2 157.03 4.36827 1
6 -1 -4 171.432 3.6819 -2
6 1 2 171.432 3.6819 1
-7 1 4 152.272 4.45497 -2
-7 -1 -2 152.272 4.45497 1
7 -1 -4 143.351 4.00799 -2
7 1 2 143.351 4.00799 1
-8 1 4 238.368 11.2394 -2
-8 -1 -2 238.368 11.2394 1
8 -1 -4 234.313 17.9608 -2
8 1 2 234.313 17.9608 1
8 -1 -5 209.265 18.4431 -2
8 1 2 209.265 18.4431 1
-9 1 5 77.1804 5.12128 -2
-9 -1 -2 77.1804 5.12128 1
9 -1 -5 73.2283 4.71348 -2
9 1 2 73.2283 4.71348 1
-10 1 5 21.8338 5.54318 -2
-10 -1 -2 21.8338 5.54318 1
10 -1 -5 19.7693 4.69414 -2
10 1 2 19.7693 4.69414 1
-10 2 1 34.3402 5.60236 -2
10 -2 -2 34.3402 5.60236 1
10 -2 -1 44.3685 4.44552 -2
-10 2 2 44.3685 4.44552 1
-9 2 1 39.6488 4.65053 -2
9 -2 -2 39.6488 4.65053 1
9 -2 -1 39.9823 3.72531 -2
-9 2 2 39.9823 3.72531 1
7 2 0 116.164 4.30551 -2
7 -2 -2 116.164 4.30551 1
-7 -2 0 134.994 3.81119 -2
-7 2 2 134.994 3.81119 1
6 2 0 326.737 7.36079 -2
6 -2 -2 326.737 7.36079 1
-6 -2 0 321.957 5.77445 -2
-6 2 2 321.957 5.77445 1
5 2 0 58.4362 6.69321 -2
5 -2 -2 58.4362 6.69321 1
-5 -2 0 55.2979 4.17688 -2
-5 2 2 55.2979 4.17688 1
4 2 1 580.115 11.1747 -2
4 -2 -2 580.115 11.1747 1
-4 -2 -1 649.467 9.53623 -2
-4 2 2 649.467 9.53623 1
3 2 1 1076.39 16.4273 -2
3 -2 -2 1076.39 16.4273 1
-3 -2 -1 1050.96 14.6909 -2
-3 2 2 1050.96 14.6909 1
2 2 1 854.517 49.6472 -2
2 -2 -2 854.517 49.6472 1
-2 -2 -1 765.215 36.0949 -2
-2 2 2 765.215 36.0949 1
1 2 2 930.399 19.6742 -2
1 -2 -2 930.399 19.6742 1
-1 -2 -2 861.429 14.6845 -2
-1 2 2 861.429 14.6845 1
0 2 2 1413.19 20.8836 -2
0 -2 -2 1413.19 20.8836 1
0 -2 -2 1332.12 15.3413 -2
0 2 2 1332.12 15.3413 1
-1 2 2 1370.58 37.2002 -2
-1 -2 -2 1370.58 37.2002 1
1 -2 -2 1553.22 25.3534 -2
1 2 2 1553.22 25.3534 1
-2 -2 -2 48.2917 1.35052 1
2 -2 -3 212.6 6.62326 -2
2 2 2 212.6 6.62326 1
-3 2 3 1436.44 28.1368 -2
-3 -2 -2 1436.44 28.1368 1
3 -2 -3 1568.04 21.0455 -2
3 2 2 1568.04 21.0455 1
-4 2 3 881.071 15.9603 -2
-4 -2 -2 881.071 15.9603 1
4 -2 -3 748.34 13.6395 -2
4 2 2 748.34 13.6395 1
-5 2 4 112.355 6.85601 -2
-5 -2 -2 112.355 6.85601 1
5 -2 -4 102.113 5.37249 -2
5 2 2 102.113 5.37249 1
-6 2 4 466.931 10.2582 -2
-6 -2 -2 466.931 10.2582 1
6 -2 -4 427.726 7.95196 -2
6 2 2 427.726 7.95196 1
-7 2 4 260.604 7.35434 -2
-7 -2 -2 260.604 7.35434 1
7 -2 -4 251.762 5.74958 -2
7 2 2 251.762 5.74958 1
-8 2 4 30.6687 8.02723 -2
-8 -2 -2 30.6687 8.02723 1
-9 2 5 51.311 5.10082 -2
-9 -2 -2 51.311 5.10082 1
9 -2 -5 56.36 4.61128 -2
9 2 2 56.36 4.61128 1
-10 2 5 48.1141 9.4045 -2
-10 -2 -2 48.1141 9.4045 1
10 -2 -5 50.1584 5.37115 -2
10 2 2 50.1584 5.37115 1
-10 3 1 -12.762 14.7166 -2
10 -3 -2 -12.762 14.7166 1
10 -3 -1 18.6268 8.89009 -2
-10 3 2 18.6268 8.89009 1
-9 3 1 41.879 5.56712 -2
9 -3 -2 41.879 5.56712 1
9 -3 -1 24.5613 3.99157 -2
-9 3 2 24.5613 3.99157 1
7 3 0 30.8106 3.51691 -2
7 -3 -2 30.8106 3.51691 1
-7 -3 0 33.4087 2.84107 -2
-7 3 2 33.4087 2.84107 1
6 3 0 48.454 3.03524 -2
6 -3 -2 48.454 3.03524 1
-6 -3 0 52.635 2.30541 -2
-6 3 2 52.635 2.30541 1
5 3 0 424.042 19.393 -2
5 -3 -2 424.042 19.393 1
-5 -3 0 407.154 11.897 -2
-5 3 2 407.154 11.897 1
4 3 1 326.016 6.6223 -2
4 -3 -2 326.016 6.6223 1
-4 -3 -1 329.084 5.91344 -2
-4 3 2 329.084 5.91344 1
3 3 1 347.51 6.67432 -2
3 -3 -2 347.51 6.67432 1
-3 -3 -1 369.04 5.4311 -2
-3 3 2 369.04 5.4311 1
2 3 1 152.924 4.68696 -2
2 -3 -2 152.924 4.68696 1
-2 -3 -1 121.26 2.83031 -2
-2 3 2 121.26 2.83031 1
1 3 2 1123.02 25.8558 -2
1 -3 -2 1123.02 25.8558 1
-1 -3 -2 981.277 13.6011 -2
-1 3 2 981.277 13.6011 1
0 3 2 711.92 13.5444 -2
0 -3 -2 711.92 13.5444 1
0 -3 -2 725.776 7.92382 -2
0 3 2 725.776 7.92382 1
-1 3 2 733.111 14.6683 -2
-1 -3 -2 733.111 14.6683 1
1 -3 -2 759.766 9.22144 -2
1 3 2 759.766 9.22144 1
-2 3 3 371.447 8.54397 -2
-2 -3 -2 371.447 8.54397 1
2 -3 -3 378.425 5.74828 -2
2 3 2 378.425 5.74828 1
-3 3 3 211.983 4.22778 -2
-3 -3 -2 211.983 4.22778 1
3 -3 -3 184.982 2.78273 -2
3 3 2 184.982 2.78273 1
-4 3 3 59.805 2.55275 -2
-4 -3 -2 59.805 2.55275 1
4 -3 -3 61.8939 1.71148 -2
4 3 2 61.8939 1.71148 1
-5 3 4 384.561 25.1291 -2
-5 -3 -2 384.561 25.1291 1
5 -3 -4 330.867 8.4065 -2
5 3 2 330.867 8.4065 1
5 -3 -4 322.002 22.6342 -2
5 -3 -3 322.002 22.6342 -2
5 3 2 322.002 22.6342 1
-6 3 4 89.6134 4.76719 -2
-6 -3 -2 89.6134 4.76719 1
6 -3 -4 87.4813 2.76304 -2
6 3 2 87.4813 2.76304 1
-7 3 4 57.1265 4.97131 -2
-7 -3 -2 57.1265 4.97131 1
7 -3 -4 48.103 3.10363 -2
7 3 2 48.103 3.10363 1
-8 3 4 77.3431 13.6043 -2
-8 -3 -2 77.3431 13.6043 1
8 -3 -4 73.4898 15.1232 -2
8 3 2 73.4898 15.1232 1
8 -3 -5 54.1154 18.5175 -2
8 3 2 54.1154 18.5175 1
-9 3 5 46.2876 8.66346 -2
-9 -3 -2 46.2876 8.66346 1
9 -3 -5 57.7761 4.91465 -2
9 3 2 57.7761 4.91465 1
-9 4 1 17.5865 9.71639 -2
9 -4 -2 17.5865 9.71639 1
9 -4 -1 35.1075 10.4723 -2
-9 4 2 35.1075 10.4723 1
7 4 0 39.3084 4.33104 -2
7 -4 -2 39.3084 4.33104 1
-7 -4 0 51.2793 3.91364 -2
-7 4 2 51.2793 3.91364 1
6 4 0 104.497 4.74088 -2
6 -4 -2 104.497 4.74088 1
-6 -4 0 118.191 3.77089 -2
-6 4 2 118.191 3.77089 1
5 4 0 70.3166 6.5852 -2
5 -4 -2 70.3166 6.5852 1
-5 -4 0 72.8874 8.1531 -2
-5 4 2 72.8874 8.1531 1
4 4 1 154.252 5.37891 -2
4 -4 -2 154.252 5.37891 1
-4 -4 -1 154.867 3.50939 -2
-4 4 2 154.867 3.50939 1
3 4 1 205.07 5.5649 -2
3 -4 -2 205.07 5.5649 1
-3 -4 -1 207.842 3.27452 -2
-3 4 2 207.842 3.27452 1
2 4 1 211.108 6.91683 -2
2 -4 -2 211.108 6.91683 1
-2 -4 -1 249.416 4.43753 -2
-2 4 2 249.416 4.43753 1
1 4 2 159.922 5.01158 -2
1 -4 -2 159.922 5.01158 1
-1 -4 -2 168.363 2.89213 -2
-1 4 2 168.363 2.89213 1
0 4 2 594.392 13.6959 -2
0 -4 -2 594.392 13.6959 1
0 -4 -2 610.389 7.51866 -2
0 4 2 610.389 7.51866 1
-1 4 2 312.881 8.00427 -2
-1 -4 -2 312.881 8.00427 1
1 -4 -2 280.129 4.30956 -2
1 4 2 280.129 4.30956 1
-2 4 3 116.126 4.97444 -2
-2 -4 -2 116.126 4.97444 1
2 -4 -3 125.497 2.55062 -2
2 4 2 125.497 2.55062 1
2 -4 -3 47.0011 8.46864 -2
2 -4 -2 47.0011 8.46864 -2
2 4 2 47.0011 8.46864 1
-3 4 3 15.592 2.63524 -2
-3 -4 -2 15.592 2.63524 1
3 -4 -3 27.1664 1.28743 -2
3 4 2 27.1664 1.28743 1
-4 4 3 141.754 5.97875 -2
-4 -4 -2 141.754 5.97875 1
4 -4 -3 135.204 3.21386 -2
4 4 2 135.204 3.21386 1
-5 4 4 51.6962 10.3038 -2
-5 -4 -2 51.6962 10.3038 1
5 -4 -4 49.132 4.61794 -2
5 4 2 49.132 4.61794 1
-6 4 4 55.7404 5.91621 -2
-6 -4 -2 55.7404 5.91621 1
6 -4 -4 63.0761 2.85778 -2
6 4 2 63.0761 2.85778 1
-7 4 4 43.459 5.81049 -2
-7 -4 -2 43.459 5.81049 1
7 -4 -4 49.8771 3.55544 -2
7 4 2 49.8771 3.55544 1
8 -4 -5 4.59453 20.9042 -2
8 4 2 4.59453 20.9042 1
-7 -5 0 50.5198 5.51082 -2
-7 5 2 50.5198 5.51082 1
6 5 0 15.1395 5.38259 -2
6 -5 -2 15.1395 5.38259 1
-6 -5 0 15.8051 3.49463 -2
-6 5 2 15.8051 3.49463 1
5 5 0 110.915 12.5921 -2
5 -5 -2 110.915 12.5921 1
-5 -5 0 124.031 8.9338 -2
-5 5 2 124.031 8.9338 1
4 5 1 129.703 7.27578 -2
4 -5 -2 129.703 7.27578 1
-4 -5 -1 139.677 4.10244 -2
-4 5 2 139.677 4.10244 1
3 5 1 42.7274 3.37147 -2
3 -5 -2 42.7274 3.37147 1
-3 -5 -1 42.7171 2.20707 -2
-3 5 2 42.7171 2.20707 1
2 5 1 90.2049 7.75094 -2
2 -5 -2 90.2049 7.75094 1
-2 -5 -1 123.279 4.08678 -2
-2 5 2 123.279 4.08678 1
1 5 2 245.857 10.8322 -2
1 -5 -2 245.857 10.8322 1
-1 -5 -2 273.606 5.21458 -2
-1 5 2 273.606 5.21458 1
0 5 2 137.202 5.28646 -2
0 -5 -2 137.202 5.28646 1
0 -5 -2 129.06 2.54414 -2
0 5 2 129.06 2.54414 1
-1 5 2 158.103 8.97598 -2
-1 -5 -2 158.103 8.97598 1
1 -5 -2 158.355 3.22723 -2
1 5 2 158.355 3.22723 1
-2 5 3 258.911 10.5756 -2
-2 -5 -2 258.911 10.5756 1
2 -5 -3 227.175 5.66272 -2
2 5 2 227.175 5.66272 1
-3 5 3 30.2031 4.09087 -2
-3 -5 -2 30.2031 4.09087 1
3 -5 -3 34.2056 1.90556 -2
3 5 2 34.2056 1.90556 1
-4 5 3 31.3145 5.06601 -2
-4 -5 -2 31.3145 5.06601 1
4 -5 -3 34.0464 2.73877 -2
4 5 2 34.0464 2.73877 1
5 -5 -4 79.4638 8.37678 -2
5 5 2 79.4638 8.37678 1
-6 5 4 10.7596 5.77505 -2
-6 -5 -2 10.7596 5.77505 1
6 -5 -4 13.4931 3.46853 -2
6 5 2 13.4931 3.46853 1
7 -5 -4 7.97021 6.56814 -2
7 5 2 7.97021 6.56814 1
5 6 0 5.86511 10.7056 -2
5 -6 -2 5.86511 10.7056 1
-5 -6 0 14.1475 16.3418 -2
-5 6 2 14.1475 16.3418 1
4 6 1 55.1698 6.03397 -2
4 -6 -2 55.1698 6.03397 1
-4 -6 -1 51.8071 5.14392 -2
-4 6 2 51.8071 5.14392 1
3 6 1 57.9281 3.9975 -2
3 -6 -2 57.9281 3.9975 1
-3 -6 -1 60.5126 3.34707 -2
-3 6 2 60.5126 3.34707 1
-2 -6 -1 50.4033 6.26829 -2
-2 6 2 50.4033 6.26829 1
-1 -6 -2 41.1478 3.96512 -2
-1 6 2 41.1478 3.96512 1
0 6 2 138.911 11.9612 -2
0 -6 -2 138.911 11.9612 1
0 -6 -2 138.31 3.52088 -2
0 6 2 138.31 3.52088 1
-1 6 2 53.1569 9.49274 -2
-1 -6 -2 53.1569 9.49274 1
1 -6 -2 38.8934 3.70525 -2
1 6 2 38.8934 3.70525 1
-2 6 3 14.5883 10.6739 -2
-2 -6 -2 14.5883 10.6739 1
2 -6 -3 13.9061 12.3668 -2
2 6 2 13.9061 12.3668 1
-3 6 3 47.2724 8.38861 -2
-3 -6 -2 47.2724 8.38861 1
3 -6 -3 41.4683 3.11126 -2
3 6 2 41.4683 3.11126 1
-4 6 3 50.268 11.0412 -2
-4 -6 -2 50.268 11.0412 1
4 -6 -3 60.8553 4.52765 -2
4 6 2 60.8553 4.52765 1
10 0 0 42.3236 4.66809 -2
-10 0 3 42.3236 4.66809 1
9 0 0 60.0153 4.1636 -2
-9 0 3 60.0153 4.1636 1
8 0 1 207.406 8.33066 -2
-8 0 3 207.406 8.33066 1
7 0 1 218.155 5.22487 -2
-7 0 3 218.155 5.22487 1
6 0 1 256.391 5.04618 -2
-6 0 3 256.391 5.04618 1
-5 0 3 546.919 9.09519 1
4 0 2 754.898 12.0201 -2
-4 0 3 754.898 12.0201 1
3 0 2 47.1154 1.11329 -2
-3 0 3 47.1154 1.11329 1
-2 0 3 372.166 5.00624 1
1 0 3 2008.32 58.8908 -2
-1 0 3 2008.32 58.8908 1
0 0 3 31.3841 0.61628 -2
0 0 3 31.3841 0.61628 1
-1 0 3 901.565 37.3447 -2
1 0 3 901.565 37.3447 1
2 0 3 4168.53 77.7819 1
-3 0 4 856.806 17.3166 -2
3 0 3 856.806 17.3166 1
-4 0 4 613.357 11.3504 -2
4 0 3 613.357 11.3504 1
5 0 3 62.1997 1.78932 1
-6 0 5 116.331 3.03629 -2
6 0 3 116.331 3.03629 1
-7 0 5 197.75 5.34829 -2
7 0 3 197.75 5.34829 1
-8 0 5 230.186 20.4898 -2
8 0 3 230.186 20.4898 1
-8 0 6 285.315 15.2405 -2
8 0 3 285.315 15.2405 1
-9 0 6 105.69 5.16422 -2
9 0 3 105.69 5.16422 1
-10 0 6 29.1278 4.99487 -2
10 0 3 29.1278 4.99487 1
11 -1 -3 1.67223 7.85918 1
-11 1 3 10.6466 9.71767 1
10 1 0 66.668 5.19444 -2
10 -1 -3 66.668 5.19444 1
-10 -1 0 58.4706 4.44999 -2
-10 1 3 58.4706 4.44999 1
9 1 0 109.969 5.02935 -2
9 -1 -3 109.969 5.02935 1
-9 -1 0 105.364 4.99269 -2
-9 1 3 105.364 4.99269 1
8 1 1 36.394 5.3293 -2
8 -1 -3 36.394 5.3293 1
-8 -1 -1 28.2065 7.27553 -2
-8 1 3 28.2065 7.27553 1
7 1 1 244.925 5.74574 -2
7 -1 -3 244.925 5.74574 1
-7 -1 -1 250.664 5.58174 -2
-7 1 3 250.664 5.58174 1
6 1 1 427.951 7.88521 -2
6 -1 -3 427.951 7.88521 1
-6 -1 -1 389.177 7.11708 -2
-6 1 3 389.177 7.11708 1
5 -1 -3 104.023 2.36836 1
-5 -1 -1 152.721 8.98892 -2
-5 1 3 152.721 8.98892 1
4 1 2 199.567 3.45425 -2
4 -1 -3 199.567 3.45425 1
-4 -1 -2 164.584 2.99258 -2
-4 1 3 164.584 2.99258 1
3 1 2 1164.82 19.5364 -2
3 -1 -3 1164.82 19.5364 1
-3 -1 -2 1347.86 16.5297 -2
-3 1 3 1347.86 16.5297 1
2 -1 -3 571.768 7.17752 1
-2 -1 -2 1294.34 57.9478 -2
-2 1 3 1294.34 57.9478 1
1 1 3 1035.08 22.9367 -2
1 -1 -3 1035.08 22.9367 1
-1 -1 -3 956.714 17.9877 -2
-1 1 3 956.714 17.9877 1
0 1 3 2378.91 34.392 -2
0 -1 -3 2378.91 34.392 1
0 -1 -3 2293.74 31.4659 -2
0 1 3 2293.74 31.4659 1
-1 1 3 1876.71 55.2997 -2
-1 -1 -3 1876.71 55.2997 1
1 -1 -3 2107.93 45.2232 -2
1 1 3 2107.93 45.2232 1
-2 1 4 320.496 11.771 -2
-2 -1 -3 320.496 11.771 1
2 -1 -4 324.428 20.202 -2
2 1 3 324.428 20.202 1
-3 1 4 1009.64 20.0451 -2
-3 -1 -3 1009.64 20.0451 1
3 -1 -4 1043.07 18.0699 -2
3 1 3 1043.07 18.0699 1
-4 1 4 1100.16 23.4616 -2
-4 -1 -3 1100.16 23.4616 1
4 -1 -4 1182.71 21.0467 -2
4 1 3 1182.71 21.0467 1
-5 1 5 162.389 9.68732 -2
-5 -1 -3 162.389 9.68732 1
5 -1 -5 166.156 8.32156 -2
5 1 3 166.156 8.32156 1
-6 1 5 136.46 3.9669 -2
-6 -1 -3 136.46 3.9669 1
6 -1 -5 139.187 3.43419 -2
6 1 3 139.187 3.43419 1
-7 1 5 275.002 6.63272 -2
-7 -1 -3 275.002 6.63272 1
7 -1 -5 261.099 6.80876 -2
7 1 3 261.099 6.80876 1
-8 1 5 152.486 10.8676 -2
-8 -1 -3 152.486 10.8676 1
8 -1 -5 194.031 19.5952 -2
8 1 3 194.031 19.5952 1
-9 1 6 56.128 4.79484 -2
-9 -1 -3 56.128 4.79484 1
9 -1 -6 53.3952 5.00478 -2
9 1 3 53.3952 5.00478 1
-10 1 6 53.2132 6.50228 -2
-10 -1 -3 53.2132 6.50228 1
10 -1 -6 70.708 5.29628 -2
10 1 3 70.708 5.29628 1
10 2 0 28.3463 5.04436 -2
10 -2 -3 28.3463 5.04436 1
-10 -2 0 27.6661 4.33462 -2
-10 2 3 27.6661 4.33462 1
9 2 0 23.2876 4.3992 -2
9 -2 -3 23.2876 4.3992 1
-9 -2 0 17.5387 4.03873 -2
-9 2 3 17.5387 4.03873 1
7 2 1 109.163 4.09617 -2
7 -2 -3 109.163 4.09617 1
-7 -2 -1 114.873 3.62635 -2
-7 2 3 114.873 3.62635 1
6 2 1 126.713 3.53945 -2
6 -2 -3 126.713 3.53945 1
-6 -2 -1 108.525 2.93379 -2
-6 2 3 108.525 2.93379 1
5 2 1 349.724 15.458 -2
5 -2 -3 349.724 15.458 1
-5 -2 -1 340.175 12.2232 -2
-5 2 3 340.175 12.2232 1
4 2 2 617.374 11.2487 -2
4 -2 -3 617.374 11.2487 1
-4 -2 -2 722.131 10.2857 -2
-4 2 3 722.131 10.2857 1
3 2 2 767.095 11.991 -2
3 -2 -3 767.095 11.991 1
-3 -2 -2 732.372 11.2642 -2
-3 2 3 732.372 11.2642 1
2 -2 -3 407.431 7.08782 1
-2 -2 -2 496.434 16.0063 -2
-2 2 3 496.434 16.0063 1
1 2 3 1453.59 37.21 -2
1 -2 -3 1453.59 37.21 1
-1 -2 -3 1477.4 22.1467 -2
-1 2 3 1477.4 22.1467 1
0 2 3 946.868 16.8996 -2
0 -2 -3 946.868 16.8996 1
0 -2 -3 895.229 10.8888 -2
0 2 3 895.229 10.8888 1
-1 2 3 851.913 21.1923 -2
-1 -2 -3 851.913 21.1923 1
1 -2 -3 732.3 13.7297 -2
1 2 3 732.3 13.7297 1
-2 2 4 1389.9 37.8898 -2
-2 -2 -3 1389.9 37.8898 1
2 -2 -4 1354.93 29.0077 -2
2 2 3 1354.93 29.0077 1
-3 2 4 829.604 16.8012 -2
-3 -2 -3 829.604 16.8012 1
3 -2 -4 872.598 12.2426 -2
3 2 3 872.598 12.2426 1
-4 2 4 182.338 4.54913 -2
-4 -2 -3 182.338 4.54913 1
4 -2 -4 193.198 4.03417 -2
4 2 3 193.198 4.03417 1
-5 2 5 581.362 27.287 -2
-5 -2 -3 581.362 27.287 1
5 -2 -5 606.696 15.5561 -2
5 2 3 606.696 15.5561 1
-6 2 5 435.485 9.17916 -2
-6 -2 -3 435.485 9.17916 1
6 -2 -5 353.169 7.67644 -2
6 2 3 353.169 7.67644 1
-7 2 5 68.5259 4.11521 -2
-7 -2 -3 68.5259 4.11521 1
7 -2 -5 88.4112 3.25974 -2
7 2 3 88.4112 3.25974 1
-8 2 5 146.211 10.2603 -2
-8 -2 -3 146.211 10.2603 1
8 -2 -5 111.377 8.82211 -2
8 2 3 111.377 8.82211 1
-9 2 6 108.195 6.60244 -2
-9 -2 -3 108.195 6.60244 1
9 -2 -6 120.175 5.92885 -2
9 2 3 120.175 5.92885 1
-10 2 6 1.96 14.7796 -2
-10 -2 -3 1.96 14.7796 1
10 -2 -6 0.87431 5.46063 -2
10 2 3 0.87431 5.46063 1
9 3 0 70.0879 6.29479 -2
9 -3 -3 70.0879 6.29479 1
-9 -3 0 48.1758 4.50954 -2
-9 3 3 48.1758 4.50954 1
7 3 1 201.404 5.92924 -2
7 -3 -3 201.404 5.92924 1
-7 -3 -1 165.355 4.912 -2
-7 3 3 165.355 4.912 1
6 3 1 291.95 8.16489 -2
6 -3 -3 291.95 8.16489 1
-6 -3 -1 316.07 6.36108 -2
-6 3 3 316.07 6.36108 1
5 3 1 102.715 7.3172 -2
5 -3 -3 102.715 7.3172 1
-5 -3 -1 91.6499 4.4165 -2
-5 3 3 91.6499 4.4165 1
4 3 2 127.04 3.05263 -2
4 -3 -3 127.04 3.05263 1
-4 -3 -2 113.504 2.68126 -2
-4 3 3 113.504 2.68126 1
3 3 2 329.337 6.34115 -2
3 -3 -3 329.337 6.34115 1
-3 -3 -2 351.673 5.30842 -2
-3 3 3 351.673 5.30842 1
2 3 2 333.538 10.3426 -2
2 -3 -3 333.538 10.3426 1
-2 -3 -2 357.219 6.15108 -2
-2 3 3 357.219 6.15108 1
1 3 3 499.21 13.8227 -2
1 -3 -3 499.21 13.8227 1
-1 -3 -3 542.052 7.81684 -2
-1 3 3 542.052 7.81684 1
0 3 3 464.885 9.80688 -2
0 -3 -3 464.885 9.80688 1
0 -3 -3 462.511 5.42867 -2
0 3 3 462.511 5.42867 1
-1 3 3 651.734 13.3987 -2
-1 -3 -3 651.734 13.3987 1
1 -3 -3 577.793 7.72571 -2
1 3 3 577.793 7.72571 1
-2 3 4 133.03 3.98634 -2
-2 -3 -3 133.03 3.98634 1
2 -3 -4 132.631 2.57386 -2
2 3 3 132.631 2.57386 1
2 -3 -4 90.6433 8.82068 -2
2 -3 -3 90.6433 8.82068 -2
2 3 3 90.6433 8.82068 1
-3 3 4 398.51 9.00171 -2
-3 -3 -3 398.51 9.00171 1
3 -3 -4 431.72 5.49485 -2
3 3 3 431.72 5.49485 1
-4 3 4 521.944 14.1413 -2
-4 -3 -3 521.944 14.1413 1
4 -3 -4 533.231 7.71809 -2
4 3 3 533.231 7.71809 1
-5 3 5 265.96 12.9316 -2
-5 -3 -3 265.96 12.9316 1
5 -3 -5 224.046 7.43023 -2
5 3 3 224.046 7.43023 1
-6 3 5 109.032 5.28185 -2
-6 -3 -3 109.032 5.28185 1
6 -3 -5 106.656 3.02125 -2
6 3 3 106.656 3.02125 1
-7 3 5 108.724 6.42638 -2
-7 -3 -3 108.724 6.42638 1
7 -3 -5 84.7226 3.59492 -2
7 3 3 84.7226 3.59492 1
-8 3 5 39.2658 12.9898 -2
-8 -3 -3 39.2658 12.9898 1
8 -3 -6 81.4827 19.9127 -2
8 3 3 81.4827 19.9127 1
-9 3 6 5.30472 8.33554 -2
-9 -3 -3 5.30472 8.33554 1
9 -3 -6 11.5077 6.95297 -2
9 3 3 11.5077 6.95297 1
7 4 1 77.9826 5.4115 -2
7 -4 -3 77.9826 5.4115 1
-7 -4 -1 77.3173 4.2901 -2
-7 4 3 77.3173 4.2901 1
6 4 1 66.1166 4.64005 -2
6 -4 -3 66.1166 4.64005 1
-6 -4 -1 63.7158 3.4817 -2
-6 4 3 63.7158 3.4817 1
5 4 1 252.476 10.8524 -2
5 -4 -3 252.476 10.8524 1
-5 -4 -1 259.853 10.7237 -2
-5 4 3 259.853 10.7237 1
4 4 2 91.8212 4.40226 -2
4 -4 -3 91.8212 4.40226 1
-4 -4 -2 125.883 3.16346 -2
-4 4 3 125.883 3.16346 1
3 4 2 26.6955 1.70636 -2
3 -4 -3 26.6955 1.70636 1
-3 -4 -2 17.4661 1.20916 -2
-3 4 3 17.4661 1.20916 1
2 4 2 181.547 5.96795 -2
2 -4 -3 181.547 5.96795 1
-2 -4 -2 179.24 3.93254 -2
-2 4 3 179.24 3.93254 1
1 4 3 247.865 9.71464 -2
1 -4 -3 247.865 9.71464 1
-1 -4 -3 219.49 4.62105 -2
-1 4 3 219.49 4.62105 1
0 4 3 40.2691 2.92439 -2
0 -4 -3 40.2691 2.92439 1
0 -4 -3 52.4645 1.14694 -2
0 4 3 52.4645 1.14694 1
-1 4 3 129.533 5.49026 -2
-1 -4 -3 129.533 5.49026 1
1 -4 -3 126.491 2.25459 -2
1 4 3 126.491 2.25459 1
-2 4 4 282.542 12.7919 -2
-2 -4 -3 282.542 12.7919 1
2 -4 -4 323.197 5.46707 -2
2 4 3 323.197 5.46707 1
-3 4 4 328.494 13.64 -2
-3 -4 -3 328.494 13.64 1
3 -4 -4 351.222 5.52745 -2
3 4 3 351.222 5.52745 1
-4 4 4 57.2102 5.47293 -2
-4 -4 -3 57.2102 5.47293 1
4 -4 -4 71.6425 2.51406 -2
4 4 3 71.6425 2.51406 1
-5 4 5 145.495 14.6775 -2
-5 -4 -3 145.495 14.6775 1
5 -4 -5 143.829 6.16001 -2
5 4 3 143.829 6.16001 1
-6 4 5 48.8189 5.97612 -2
-6 -4 -3 48.8189 5.97612 1
6 -4 -5 38.7716 2.73209 -2
6 4 3 38.7716 2.73209 1
-7 4 5 36.868 6.42791 -2
-7 -4 -3 36.868 6.42791 1
7 -4 -5 38.6847 3.2428 -2
7 4 3 38.6847 3.2428 1
8 -4 -6 14.2658 22.0388 -2
8 4 3 14.2658 22.0388 1
-7 -5 -1 27.2152 6.06223 -2
-7 5 3 27.2152 6.06223 1
6 5 1 52.9509 6.24704 -2
6 -5 -3 52.9509 6.24704 1
-6 -5 -1 58.3809 4.28344 -2
-6 5 3 58.3809 4.28344 1
5 5 1 28.513 10.0479 -2
5 -5 -3 28.513 10.0479 1
-5 -5 -1 34.5022 14.008 -2
-5 5 3 34.5022 14.008 1
4 5 2 24.6752 5.73932 -2
4 -5 -3 24.6752 5.73932 1
-4 -5 -2 37.1259 3.07106 -2
-4 5 3 37.1259 3.07106 1
3 5 2 51.1389 3.60949 -2
3 -5 -3 51.1389 3.60949 1
-3 -5 -2 64.2147 2.31015 -2
-3 5 3 64.2147 2.31015 1
2 5 2 162.535 9.60916 -2
2 -5 -3 162.535 9.60916 1
-2 -5 -2 161.361 6.1722 -2
-2 5 3 161.361 6.1722 1
1 5 3 101.343 7.25653 -2
1 -5 -3 101.343 7.25653 1
-1 -5 -3 82.7018 3.27477 -2
-1 5 3 82.7018 3.27477 1
0 5 3 150.676 7.24401 -2
0 -5 -3 150.676 7.24401 1
0 -5 -3 156.554 3.05738 -2
0 5 3 156.554 3.05738 1
-1 5 3 144.67 10.0395 -2
-1 -5 -3 144.67 10.0395 1
1 -5 -3 181.705 3.63437 -2
1 5 3 181.705 3.63437 1
-2 5 4 35.5564 5.43609 -2
-2 -5 -3 35.5564 5.43609 1
2 -5 -4 34.1728 3.0553 -2
2 5 3 34.1728 3.0553 1
-3 5 4 28.5795 4.1722 -2
-3 -5 -3 28.5795 4.1722 1
3 -5 -4 41.3494 1.96298 -2
3 5 3 41.3494 1.96298 1
-4 5 4 196.912 9.56775 -2
-4 -5 -3 196.912 9.56775 1
4 -5 -4 199.6 4.55812 -2
4 5 3 199.6 4.55812 1
5 -5 -5 66.4772 8.17413 -2
5 5 3 66.4772 8.17413 1
-6 5 5 68.5198 7.97609 -2
-6 -5 -3 68.5198 7.97609 1
6 -5 -5 69.0315 3.90936 -2
6 5 3 69.0315 3.90936 1
-7 5 5 28.6604 10.2865 -2
-7 -5 -3 28.6604 10.2865 1
7 -5 -5 26.6642 8.588 -2
7 5 3 26.6642 8.588 1
-5 -6 -1 65.4536 18.1776 -2
-5 6 3 65.4536 18.1776 1
4 6 2 61.6672 10.5471 -2
4 -6 -3 61.6672 10.5471 1
-4 -6 -2 54.2702 5.87363 -2
-4 6 3 54.2702 5.87363 1
3 6 2 15.6616 4.98663 -2
3 -6 -3 15.6616 4.98663 1
-3 -6 -2 29.1641 3.04798 -2
-3 6 3 29.1641 3.04798 1
2 6 2 37.0175 9.39218 -2
2 -6 -3 37.0175 9.39218 1
-2 -6 -2 43.5565 6.66427 -2
-2 6 3 43.5565 6.66427 1
-1 -6 -3 59.8644 4.48179 -2
-1 6 3 59.8644 4.48179 1
0 6 3 50.1616 8.38721 -2
0 -6 -3 50.1616 8.38721 1
0 -6 -3 53.4035 2.38873 -2
0 6 3 53.4035 2.38873 1
-1 6 3 61.3479 10.7709 -2
-1 -6 -3 61.3479 10.7709 1
1 -6 -3 62.434 3.72438 -2
1 6 3 62.434 3.72438 1
-2 6 4 106.112 13.9879 -2
-2 -6 -3 106.112 13.9879 1
2 -6 -4 98.1647 5.72415 -2
2 6 3 98.1647 5.72415 1
-3 6 4 67.231 9.61583 -2
-3 -6 -3 67.231 9.61583 1
3 -6 -4 55.5772 3.31009 -2
3 6 3 55.5772 3.31009 1
4 -6 -4 12.1053 5.90969 -2
4 6 3 12.1053 5.90969 1
10 0 1 0.16412 5.03667 -2
-10 0 4 0.16412 5.03667 1
9 0 1 148.774 5.12727 -2
-9 0 4 148.774 5.12727 1
8 0 2 58.5825 5.06661 -2
-8 0 4 58.5825 5.06661 1
7 0 2 448.899 8.80187 -2
-7 0 4 448.899 8.80187 1
6 0 2 479.35 9.16501 -2
-6 0 4 479.35 9.16501 1
5 0 2 284.581 16.241 -2
-5 0 4 284.581 16.241 1
4 0 3 276.701 4.7023 -2
-4 0 4 276.701 4.7023 1
3 0 3 1472.21 21.7778 -2
-3 0 4 1472.21 21.7778 1
-2 0 4 1518.93 21.0691 1
1 0 4 390.897 6.70734 -2
-1 0 4 390.897 6.70734 1
0 0 4 751.802 10.4958 -2
0 0 4 751.802 10.4958 1
-1 0 4 666.975 15.3747 -2
1 0 4 666.975 15.3747 1
-2 0 5 108.227 8.59485 -2
2 0 4 108.227 8.59485 1
-3 0 5 90.7033 2.31359 -2
3 0 4 90.7033 2.31359 1
-4 0 5 1557.06 31.3368 -2
4 0 4 1557.06 31.3368 1
-5 0 6 393.988 18.894 -2
5 0 4 393.988 18.894 1
-6 0 6 602.217 11.9923 -2
6 0 4 602.217 11.9923 1
-7 0 6 241.492 6.69494 -2
7 0 4 241.492 6.69494 1
-8 0 6 181.8 13.4057 -2
8 0 4 181.8 13.4057 1
-9 0 7 19.5535 4.86181 -2
9 0 4 19.5535 4.86181 1
-10 0 7 146.955 7.65625 -2
10 0 4 146.955 7.65625 1
10 1 1 44.9125 4.64744 -2
10 -1 -4 44.9125 4.64744 1
-10 -1 -1 48.7498 4.43573 -2
-10 1 4 48.7498 4.43573 1
9 1 1 27.2033 4.21664 -2
9 -1 -4 27.2033 4.21664 1
-9 -1 -1 26.6455 4.11723 -2
-9 1 4 26.6455 4.11723 1
8 1 2 275.355 9.67939 -2
8 -1 -4 275.355 9.67939 1
-8 -1 -2 263.973 12.755 -2
-8 1 4 263.973 12.755 1
7 1 2 207.471 5.47375 -2
7 -1 -4 207.471 5.47375 1
-7 -1 -2 222.298 5.05655 -2
-7 1 4 222.298 5.05655 1
6 1 2 90.851 2.4489 -2
6 -1 -4 90.851 2.4489 1
-6 -1 -2 84.1705 2.46349 -2
-6 1 4 84.1705 2.46349 1
5 -1 -4 476.556 8.18901 1
-5 -1 -2 845.741 53.2269 -2
-5 1 4 845.741 53.2269 1
4 1 3 1163.7 17.109 -2
4 -1 -4 1163.7 17.109 1
-4 -1 -3 1065.52 16.3601 -2
-4 1 4 1065.52 16.3601 1
3 1 3 573.982 8.44282 -2
3 -1 -4 573.982 8.44282 1
-3 -1 -3 576.942 8.03594 -2
-3 1 4 576.942 8.03594 1
2 1 3 402.268 22.3983 -2
2 -1 -4 402.268 22.3983 1
-2 -1 -3 384.532 17.9956 -2
-2 1 4 384.532 17.9956 1
1 1 4 1226.7 20.8205 -2
1 -1 -4 1226.7 20.8205 1
-1 -1 -4 1417.94 19.8137 -2
-1 1 4 1417.94 19.8137 1
0 1 4 804.094 11.6514 -2
0 -1 -4 804.094 11.6514 1
0 -1 -4 758.993 10.6903 -2
0 1 4 758.993 10.6903 1
-1 1 4 870.822 18.0416 -2
-1 -1 -4 870.822 18.0416 1
1 -1 -4 765.528 16.0934 -2
1 1 4 765.528 16.0934 1
-2 1 5 1302.05 71.7813 -2
-2 -1 -4 1302.05 71.7813 1
2 -1 -5 1065.15 48.7954 -2
2 1 4 1065.15 48.7954 1
-3 1 5 1222.47 25.3313 -2
-3 -1 -4 1222.47 25.3313 1
3 -1 -5 1228.9 21.2548 -2
3 1 4 1228.9 21.2548 1
-4 1 5 121.075 3.32495 -2
-4 -1 -4 121.075 3.32495 1
4 -1 -5 117.99 2.87688 -2
4 1 4 117.99 2.87688 1
-5 1 6 519.331 17.1638 -2
-5 -1 -4 519.331 17.1638 1
5 -1 -6 539.487 34.8338 -2
5 1 4 539.487 34.8338 1
-6 1 6 312.822 7.62419 -2
-6 -1 -4 312.822 7.62419 1
6 -1 -6 310.447 6.70099 -2
6 1 4 310.447 6.70099 1
-7 1 6 157.679 4.74347 -2
-7 -1 -4 157.679 4.74347 1
7 -1 -6 158.007 4.56901 -2
7 1 4 158.007 4.56901 1
-8 1 6 64.6111 11.2988 -2
-8 -1 -4 64.6111 11.2988 1
8 -1 -6 67.8459 14.4512 -2
8 1 4 67.8459 14.4512 1
-9 1 7 167.504 6.57031 -2
-9 -1 -4 167.504 6.57031 1
9 -1 -7 172.07 6.86312 -2
9 1 4 172.07 6.86312 1
-10 1 7 42.1844 8.45693 -2
-10 -1 -4 42.1844 8.45693 1
10 -1 -7 38.9534 5.22329 -2
10 1 4 38.9534 5.22329 1
10 2 1 35.1702 5.18378 -2
10 -2 -4 35.1702 5.18378 1
-10 -2 -1 39.7673 4.76862 -2
-10 2 4 39.7673 4.76862 1
9 2 1 77.5286 5.00254 -2
9 -2 -4 77.5286 5.00254 1
-9 -2 -1 75.4104 4.80098 -2
-9 2 4 75.4104 4.80098 1
8 2 2 23.2884 11.0314 -2
8 -2 -4 23.2884 11.0314 1
7 2 2 153.176 4.84193 -2
7 -2 -4 153.176 4.84193 1
-7 -2 -2 151.886 4.41569 -2
-7 2 4 151.886 4.41569 1
6 2 2 571.922 12.25 -2
6 -2 -4 571.922 12.25 1
-6 -2 -2 571.516 10.5454 -2
-6 2 4 571.516 10.5454 1
5 2 2 205.59 15.1117 -2
5 -2 -4 205.59 15.1117 1
-5 -2 -2 221.859 6.9609 -2
-5 2 4 221.859 6.9609 1
4 2 3 280.585 4.84354 -2
4 -2 -4 280.585 4.84354 1
-4 -2 -3 280.655 4.29935 -2
-4 2 4 280.655 4.29935 1
3 2 3 634.87 9.59424 -2
3 -2 -4 634.87 9.59424 1
-3 -2 -3 587.391 9.55209 -2
-3 2 4 587.391 9.55209 1
2 2 3 1097.17 47.9732 -2
2 -2 -4 1097.17 47.9732 1
-2 -2 -3 1141.94 27.9808 -2
-2 2 4 1141.94 27.9808 1
1 2 4 317.294 6.44115 -2
1 -2 -4 317.294 6.44115 1
-1 -2 -4 305.222 5.40918 -2
-1 2 4 305.222 5.40918 1
0 2 4 818.945 13.1761 -2
0 -2 -4 818.945 13.1761 1
0 -2 -4 840.676 10.3059 -2
0 2 4 840.676 10.3059 1
-1 2 4 524.706 12.1798 -2
-1 -2 -4 524.706 12.1798 1
1 -2 -4 565.333 9.09568 -2
1 2 4 565.333 9.09568 1
-2 2 5 436.919 12.9746 -2
-2 -2 -4 436.919 12.9746 1
2 -2 -5 386.943 8.33149 -2
2 2 4 386.943 8.33149 1
-3 2 5 232.669 6.78708 -2
-3 -2 -4 232.669 6.78708 1
3 -2 -5 184.697 3.07684 -2
3 2 4 184.697 3.07684 1
-4 2 5 629.952 14.1644 -2
-4 -2 -4 629.952 14.1644 1
4 -2 -5 641.18 10.7445 -2
4 2 4 641.18 10.7445 1
-5 2 6 284.769 15.1921 -2
-5 -2 -4 284.769 15.1921 1
5 -2 -6 288.226 11.3783 -2
5 2 4 288.226 11.3783 1
-6 2 6 138.89 4.64371 -2
-6 -2 -4 138.89 4.64371 1
6 -2 -6 138.616 3.81955 -2
6 2 4 138.616 3.81955 1
-7 2 6 129.225 4.95594 -2
-7 -2 -4 129.225 4.95594 1
7 -2 -6 140.057 4.18611 -2
7 2 4 140.057 4.18611 1
-8 2 6 176.159 18.0197 -2
-8 -2 -4 176.159 18.0197 1
8 -2 -6 157.898 18.1122 -2
8 2 4 157.898 18.1122 1
-9 2 7 10.8463 7.10275 -2
-9 -2 -4 10.8463 7.10275 1
9 -2 -7 6.68948 4.6812 -2
9 2 4 6.68948 4.6812 1
-10 2 7 18.9221 15.5418 -2
-10 -2 -4 18.9221 15.5418 1
10 -2 -7 12.166 6.46888 -2
10 2 4 12.166 6.46888 1
9 3 1 6.33503 5.59109 -2
9 -3 -4 6.33503 5.59109 1
-9 -3 -1 9.59951 4.25518 -2
-9 3 4 9.59951 4.25518 1
7 3 2 76.7681 3.99906 -2
7 -3 -4 76.7681 3.99906 1
-7 -3 -2 62.7966 3.358 -2
-7 3 4 62.7966 3.358 1
6 3 2 39.1255 2.94359 -2
6 -3 -4 39.1255 2.94359 1
-6 -3 -2 41.6565 2.6517 -2
-6 3 4 41.6565 2.6517 1
5 3 2 266.651 7.97708 -2
5 -3 -4 266.651 7.97708 1
-5 -3 -2 287.082 11.278 -2
-5 3 4 287.082 11.278 1
4 3 3 538.709 10.9983 -2
4 -3 -4 538.709 10.9983 1
-4 -3 -3 546.042 9.07257 -2
-4 3 4 546.042 9.07257 1
3 3 3 239.947 5.34017 -2
3 -3 -4 239.947 5.34017 1
-3 -3 -3 228.506 3.90267 -2
-3 3 4 228.506 3.90267 1
2 3 3 147.249 4.48088 -2
2 -3 -4 147.249 4.48088 1
-2 -3 -3 150.179 3.25798 -2
-2 3 4 150.179 3.25798 1
1 3 4 669.241 18.696 -2
1 -3 -4 669.241 18.696 1
-1 -3 -4 659.206 9.79027 -2
-1 3 4 659.206 9.79027 1
0 3 4 402.069 8.11725 -2
0 -3 -4 402.069 8.11725 1
0 -3 -4 406.085 5.10963 -2
0 3 4 406.085 5.10963 1
-1 3 4 500.639 10.8727 -2
-1 -3 -4 500.639 10.8727 1
1 -3 -4 522.501 7.22576 -2
1 3 4 522.501 7.22576 1
-2 3 5 531.54 12.0083 -2
-2 -3 -4 531.54 12.0083 1
2 -3 -5 530.087 8.94067 -2
2 3 4 530.087 8.94067 1
-3 3 5 202.525 5.0627 -2
-3 -3 -4 202.525 5.0627 1
3 -3 -5 178.914 2.76623 -2
3 3 4 178.914 2.76623 1
-4 3 5 54.1759 3.09891 -2
-4 -3 -4 54.1759 3.09891 1
4 -3 -5 52.3157 1.87426 -2
4 3 4 52.3157 1.87426 1
-5 3 6 232.588 19.7809 -2
-5 -3 -4 232.588 19.7809 1
5 -3 -6 262.35 7.562 -2
5 3 4 262.35 7.562 1
-6 3 6 259.583 10.4983 -2
-6 -3 -4 259.583 10.4983 1
6 -3 -6 291.687 6.10145 -2
6 3 4 291.687 6.10145 1
-7 3 6 148.263 7.32202 -2
-7 -3 -4 148.263 7.32202 1
7 -3 -6 120.298 4.19817 -2
7 3 4 120.298 4.19817 1
-8 3 6 87.3872 14.9987 -2
-8 -3 -4 87.3872 14.9987 1
-9 3 7 36.9431 13.1567 -2
-9 -3 -4 36.9431 13.1567 1
9 -3 -7 38.3085 9.62031 -2
9 3 4 38.3085 9.62031 1
7 4 2 48.916 4.95504 -2
7 -4 -4 48.916 4.95504 1
-7 -4 -2 45.4326 4.30418 -2
-7 4 4 45.4326 4.30418 1
6 4 2 55.4798 4.52538 -2
6 -4 -4 55.4798 4.52538 1
-6 -4 -2 58.3852 3.72313 -2
-6 4 4 58.3852 3.72313 1
5 4 2 73.6216 5.88159 -2
5 -4 -4 73.6216 5.88159 1
-5 -4 -2 57.0705 7.22353 -2
-5 4 4 57.0705 7.22353 1
4 4 3 37.4779 2.86729 -2
4 -4 -4 37.4779 2.86729 1
-4 -4 -3 29.4931 2.43165 -2
-4 4 4 29.4931 2.43165 1
3 4 3 429.9 12.5558 -2
3 -4 -4 429.9 12.5558 1
-3 -4 -3 410.155 7.18919 -2
-3 4 4 410.155 7.18919 1
2 4 3 247.097 8.94109 -2
2 -4 -4 247.097 8.94109 1
-2 -4 -3 272.705 5.20381 -2
-2 4 4 272.705 5.20381 1
1 4 4 213.968 9.88019 -2
1 -4 -4 213.968 9.88019 1
-1 -4 -4 226.376 4.27929 -2
-1 4 4 226.376 4.27929 1
0 4 4 314.819 10.1081 -2
0 -4 -4 314.819 10.1081 1
0 -4 -4 332.957 4.59055 -2
0 4 4 332.957 4.59055 1
-1 4 4 488.119 15.1392 -2
-1 -4 -4 488.119 15.1392 1
1 -4 -4 441.653 6.89607 -2
1 4 4 441.653 6.89607 1
-2 4 5 43.5007 4.94363 -2
-2 -4 -4 43.5007 4.94363 1
2 -4 -5 45.2163 2.02502 -2
2 4 4 45.2163 2.02502 1
-3 4 5 176.966 7.5785 -2
-3 -4 -4 176.966 7.5785 1
3 -4 -5 163.903 3.0399 -2
3 4 4 163.903 3.0399 1
-4 4 5 123.471 7.41499 -2
-4 -4 -4 123.471 7.41499 1
4 -4 -5 136.643 3.29758 -2
4 4 4 136.643 3.29758 1
-5 4 6 110.644 9.44708 -2
-5 -4 -4 110.644 9.44708 1
5 -4 -6 113.73 6.39196 -2
5 4 4 113.73 6.39196 1
-6 4 6 86.0735 7.05896 -2
-6 -4 -4 86.0735 7.05896 1
6 -4 -6 91.2658 3.26266 -2
6 4 4 91.2658 3.26266 1
-7 4 6 157.807 9.22191 -2
-7 -4 -4 157.807 9.22191 1
7 -4 -6 153.768 4.67484 -2
7 4 4 153.768 4.67484 1
-7 -5 -2 9.15561 10.924 -2
-7 5 4 9.15561 10.924 1
6 5 2 10.8039 5.46619 -2
6 -5 -4 10.8039 5.46619 1
-6 -5 -2 14.7156 4.27892 -2
-6 5 4 14.7156 4.27892 1
5 5 2 59.8583 11.0168 -2
5 -5 -4 59.8583 11.0168 1
-5 -5 -2 68.7125 15.2432 -2
-5 5 4 68.7125 15.2432 1
4 5 3 179.945 7.59793 -2
4 -5 -4 179.945 7.59793 1
-4 -5 -3 174.804 4.81305 -2
-4 5 4 174.804 4.81305 1
3 5 3 31.9917 4.58813 -2
3 -5 -4 31.9917 4.58813 1
-3 -5 -3 31.9107 2.06773 -2
-3 5 4 31.9107 2.06773 1
2 5 3 37.4735 6.27958 -2
2 -5 -4 37.4735 6.27958 1
-2 -5 -3 32.7019 5.17432 -2
-2 5 4 32.7019 5.17432 1
1 5 4 105.319 9.10984 -2
1 -5 -4 105.319 9.10984 1
-1 -5 -4 146.432 4.18431 -2
-1 5 4 146.432 4.18431 1
0 5 4 95.4637 5.44387 -2
0 -5 -4 95.4637 5.44387 1
0 -5 -4 87.1663 2.38091 -2
0 5 4 87.1663 2.38091 1
-1 5 4 65.5485 6.70333 -2
-1 -5 -4 65.5485 6.70333 1
1 -5 -4 57.5994 2.59723 -2
1 5 4 57.5994 2.59723 1
-2 5 5 264.708 11.3955 -2
-2 -5 -4 264.708 11.3955 1
2 -5 -5 259.415 7.43373 -2
2 5 4 259.415 7.43373 1
-3 5 5 38.1707 4.5056 -2
-3 -5 -4 38.1707 4.5056 1
3 -5 -5 43.8913 1.97802 -2
3 5 4 43.8913 1.97802 1
-4 5 5 21.444 5.26229 -2
-4 -5 -4 21.444 5.26229 1
4 -5 -5 7.5368 2.5713 -2
4 5 4 7.5368 2.5713 1
-5 5 6 33.3189 11.9883 -2
-5 -5 -4 33.3189 11.9883 1
5 -5 -6 27.8691 9.42113 -2
5 5 4 27.8691 9.42113 1
-6 5 6 61.17 7.88527 -2
-6 -5 -4 61.17 7.88527 1
6 -5 -6 56.8209 3.87696 -2
6 5 4 56.8209 3.87696 1
-4 -6 -3 8.29192 6.79022 -2
-4 6 4 8.29192 6.79022 1
3 6 3 86.0795 7.62046 -2
3 -6 -4 86.0795 7.62046 1
-3 -6 -3 92.7644 3.80912 -2
-3 6 4 92.7644 3.80912 1
2 6 3 80.2111 10.9794 -2
2 -6 -4 80.2111 10.9794 1
-2 -6 -3 84.8668 7.54853 -2
-2 6 4 84.8668 7.54853 1
1 6 4 46.3982 7.48651 -2
1 -6 -4 46.3982 7.48651 1
-1 -6 -4 39.8774 4.46846 -2
-1 6 4 39.8774 4.46846 1
0 6 4 36.8016 5.30372 -2
0 -6 -4 36.8016 5.30372 1
0 -6 -4 39.2902 2.36221 -2
0 6 4 39.2902 2.36221 1
-1 6 4 65.6682 12.609 -2
-1 -6 -4 65.6682 12.609 1
1 -6 -4 99.1301 4.7551 -2
1 6 4 99.1301 4.7551 1
-2 6 5 3.70674 12.6037 -2
-2 -6 -4 3.70674 12.6037 1
2 -6 -5 20.1589 5.94066 -2
2 6 4 20.1589 5.94066 1
3 -6 -5 70.4618 4.02906 -2
3 6 4 70.4618 4.02906 1
4 -6 -5 29.5146 7.62982 -2
4 6 4 29.5146 7.62982 1
10 0 2 21.6912 5.22603 -2
-10 0 5 21.6912 5.22603 1
9 0 2 25.6778 4.16261 -2
-9 0 5 25.6778 4.16261 1
8 0 3 149.044 6.44165 -2
-8 0 5 149.044 6.44165 1
8 0 2 65.0161 10.2895 -2
-8 0 5 65.0161 10.2895 1
7 0 3 167.019 4.06481 -2
-7 0 5 167.019 4.06481 1
6 0 3 142.103 3.43032 -2
-6 0 5 142.103 3.43032 1
5 0 3 817.041 44.7403 -2
-5 0 5 817.041 44.7403 1
4 0 4 1113.42 18.1974 -2
-4 0 5 1113.42 18.1974 1
3 0 4 46.4996 1.14397 -2
-3 0 5 46.4996 1.14397 1
2 0 4 237.037 10.5682 -2
-2 0 5 237.037 10.5682 1
1 0 5 2581.54 42.8019 -2
-1 0 5 2581.54 42.8019 1
0 0 5 1207.98 17.7675 -2
0 0 5 1207.98 17.7675 1
-1 0 5 1304.45 26.4313 -2
1 0 5 1304.45 26.4313 1
-2 0 6 1735.75 43.2164 -2
2 0 5 1735.75 43.2164 1
-3 0 6 1286.87 23.3381 -2
3 0 5 1286.87 23.3381 1
-4 0 6 144.771 3.81794 -2
4 0 5 144.771 3.81794 1
-5 0 7 576.39 18.6523 -2
5 0 5 576.39 18.6523 1
-6 0 7 420.579 8.93874 -2
6 0 5 420.579 8.93874 1
-7 0 7 162.039 5.70971 -2
7 0 5 162.039 5.70971 1
-8 0 7 106.917 12.8488 -2
8 0 5 106.917 12.8488 1
-9 0 8 59.4033 5.64494 -2
9 0 5 59.4033 5.64494 1
-10 0 8 53.196 6.92253 -2
10 0 5 53.196 6.92253 1
10 1 2 39.9047 4.78523 -2
10 -1 -5 39.9047 4.78523 1
-10 -1 -2 33.6877 4.56051 -2
-10 1 5 33.6877 4.56051 1
9 1 2 105.4 5.08864 -2
9 -1 -5 105.4 5.08864 1
-9 -1 -2 112.256 5.39531 -2
-9 1 5 112.256 5.39531 1
8 1 3 108.692 7.04059 -2
8 -1 -5 108.692 7.04059 1
-8 -1 -3 103.108 7.15726 -2
-8 1 5 103.108 7.15726 1
7 1 3 130.762 4.41349 -2
7 -1 -5 130.762 4.41349 1
-7 -1 -3 138.206 3.52396 -2
-7 1 5 138.206 3.52396 1
6 1 3 325.151 6.11034 -2
6 -1 -5 325.151 6.11034 1
-6 -1 -3 310.088 5.95121 -2
-6 1 5 310.088 5.95121 1
5 -1 -5 238.719 4.23154 1
-5 -1 -3 286.236 10.1463 -2
-5 1 5 286.236 10.1463 1
4 1 4 148.655 2.78362 -2
4 -1 -5 148.655 2.78362 1
-4 -1 -4 139.384 2.60766 -2
-4 1 5 139.384 2.60766 1
3 1 4 1756.95 25.5723 -2
3 -1 -5 1756.95 25.5723 1
-3 -1 -4 1792.01 25.9632 -2
-3 1 5 1792.01 25.9632 1
2 1 4 1162.7 75.514 -2
2 -1 -5 1162.7 75.514 1
-2 -1 -4 1242.63 33.7362 -2
-2 1 5 1242.63 33.7362 1
1 1 5 494.328 7.11666 -2
1 -1 -5 494.328 7.11666 1
-1 -1 -5 444.908 6.5839 -2
-1 1 5 444.908 6.5839 1
0 1 5 1833.74 26.6847 -2
0 -1 -5 1833.74 26.6847 1
0 -1 -5 1783.81 23.2298 -2
0 1 5 1783.81 23.2298 1
-1 1 5 872.678 24.8655 -2
-1 -1 -5 872.678 24.8655 1
1 -1 -5 1032.08 16.1993 -2
1 1 5 1032.08 16.1993 1
-2 1 6 414.235 19.1395 -2
-2 -1 -5 414.235 19.1395 1
2 -1 -6 407.494 13.2834 -2
2 1 5 407.494 13.2834 1
-3 1 6 350.066 8.76296 -2
-3 -1 -5 350.066 8.76296 1
3 -1 -6 406.388 7.22143 -2
3 1 5 406.388 7.22143 1
-4 1 6 913.876 19.3633 -2
-4 -1 -5 913.876 19.3633 1
4 -1 -6 837.996 15.9022 -2
4 1 5 837.996 15.9022 1
-5 1 7 363.36 26.1572 -2
-5 -1 -5 363.36 26.1572 1
5 -1 -7 396.644 15.6042 -2
5 1 5 396.644 15.6042 1
-6 1 7 188.865 5.65971 -2
-6 -1 -5 188.865 5.65971 1
6 -1 -7 179.42 4.48051 -2
6 1 5 179.42 4.48051 1
-7 1 7 155.8 5.25022 -2
-7 -1 -5 155.8 5.25022 1
7 -1 -7 147.311 5.60044 -2
7 1 5 147.311 5.60044 1
-9 1 8 10.6163 5.5703 -2
-9 -1 -5 10.6163 5.5703 1
9 -1 -8 6.54212 4.9604 -2
9 1 5 6.54212 4.9604 1
-10 1 8 34.8222 10.7143 -2
-10 -1 -5 34.8222 10.7143 1
10 -1 -8 19.1497 5.20028 -2
10 1 5 19.1497 5.20028 1
10 2 2 57.6727 5.68874 -2
10 -2 -5 57.6727 5.68874 1
-10 -2 -2 61.2571 6.09195 -2
-10 2 5 61.2571 6.09195 1
9 2 2 29.1929 4.49929 -2
9 -2 -5 29.1929 4.49929 1
-9 -2 -2 31.2981 4.36626 -2
-9 2 5 31.2981 4.36626 1
8 2 3 153.277 15.6345 -2
8 -2 -5 153.277 15.6345 1
7 2 3 167.235 5.19554 -2
7 -2 -5 167.235 5.19554 1
-7 -2 -3 125.786 4.51799 -2
-7 2 5 125.786 4.51799 1
6 2 3 173.347 5.17484 -2
6 -2 -5 173.347 5.17484 1
-6 -2 -3 203.909 4.28052 -2
-6 2 5 203.909 4.28052 1
5 2 3 350.93 11.5988 -2
5 -2 -5 350.93 11.5988 1
-5 -2 -3 317.29 10.316 -2
-5 2 5 317.29 10.316 1
4 2 4 881.946 15.1708 -2
4 -2 -5 881.946 15.1708 1
-4 -2 -4 864.612 13.3 -2
-4 2 5 864.612 13.3 1
3 2 4 240.111 4.17948 -2
3 -2 -5 240.111 4.17948 1
-3 -2 -4 275.074 4.36867 -2
-3 2 5 275.074 4.36867 1
2 2 4 783.5 19.5167 -2
2 -2 -5 783.5 19.5167 1
-2 -2 -4 752.4 17.7793 -2
-2 2 5 752.4 17.7793 1
1 2 5 643.295 12.1748 -2
1 -2 -5 643.295 12.1748 1
-1 -2 -5 650.762 9.78952 -2
-1 2 5 650.762 9.78952 1
0 2 5 168.035 3.07875 -2
0 -2 -5 168.035 3.07875 1
0 -2 -5 172.186 2.41576 -2
0 2 5 172.186 2.41576 1
-1 2 5 299.88 6.7922 -2
-1 -2 -5 299.88 6.7922 1
1 -2 -5 266.262 4.8334 -2
1 2 5 266.262 4.8334 1
-2 2 6 571.589 12.7833 -2
-2 -2 -5 571.589 12.7833 1
2 -2 -6 570.496 10.5606 -2
2 2 5 570.496 10.5606 1
-3 2 6 423.221 10.779 -2
-3 -2 -5 423.221 10.779 1
3 -2 -6 449.642 6.42655 -2
3 2 5 449.642 6.42655 1
-4 2 6 30.826 2.6572 -2
-4 -2 -5 30.826 2.6572 1
4 -2 -6 25.1051 1.52824 -2
4 2 5 25.1051 1.52824 1
-5 2 7 156.65 16.3702 -2
-5 -2 -5 156.65 16.3702 1
5 -2 -7 181.461 8.22176 -2
5 2 5 181.461 8.22176 1
-6 2 7 151.262 5.8408 -2
-6 -2 -5 151.262 5.8408 1
6 -2 -7 137.514 3.69646 -2
6 2 5 137.514 3.69646 1
-7 2 7 47.6528 4.29755 -2
-7 -2 -5 47.6528 4.29755 1
7 -2 -7 47.3613 3.27708 -2
7 2 5 47.3613 3.27708 1
8 -2 -7 41.7158 14.4286 -2
8 2 5 41.7158 14.4286 1
-9 2 8 51.6873 8.5107 -2
-9 -2 -5 51.6873 8.5107 1
9 -2 -8 46.9827 5.71599 -2
9 2 5 46.9827 5.71599 1
9 3 2 42.1826 5.88723 -2
9 -3 -5 42.1826 5.88723 1
-9 -3 -2 55.7798 4.63489 -2
-9 3 5 55.7798 4.63489 1
7 3 3 42.2182 3.76091 -2
7 -3 -5 42.2182 3.76091 1
-7 -3 -3 61.7474 3.22423 -2
-7 3 5 61.7474 3.22423 1
6 3 3 181.83 5.37852 -2
6 -3 -5 181.83 5.37852 1
-6 -3 -3 160.223 4.47538 -2
-6 3 5 160.223 4.47538 1
5 3 3 243.812 6.78924 -2
5 -3 -5 243.812 6.78924 1
-5 -3 -3 247.96 8.63994 -2
-5 3 5 247.96 8.63994 1
4 3 4 86.9337 2.49489 -2
4 -3 -5 86.9337 2.49489 1
-4 -3 -4 84.8531 2.31148 -2
-4 3 5 84.8531 2.31148 1
3 3 4 320.762 6.35056 -2
3 -3 -5 320.762 6.35056 1
-3 -3 -4 314.321 5.31868 -2
-3 3 5 314.321 5.31868 1
2 3 4 460.412 13.4649 -2
2 -3 -5 460.412 13.4649 1
-2 -3 -4 458.781 9.54406 -2
-2 3 5 458.781 9.54406 1
1 3 5 237.578 7.33872 -2
1 -3 -5 237.578 7.33872 1
-1 -3 -5 220.251 4.35861 -2
-1 3 5 220.251 4.35861 1
0 3 5 396.703 8.41811 -2
0 -3 -5 396.703 8.41811 1
0 -3 -5 421.064 5.44224 -2
0 3 5 421.064 5.44224 1
-1 3 5 435.977 9.36973 -2
-1 -3 -5 435.977 9.36973 1
1 -3 -5 440.828 6.95476 -2
1 3 5 440.828 6.95476 1
-2 3 6 221.927 5.63868 -2
-2 -3 -5 221.927 5.63868 1
2 -3 -6 223.347 4.00595 -2
2 3 5 223.347 4.00595 1
-3 3 6 147.825 4.43907 -2
-3 -3 -5 147.825 4.43907 1
3 -3 -6 154.204 2.59349 -2
3 3 5 154.204 2.59349 1
-4 3 6 352.308 10.398 -2
-4 -3 -5 352.308 10.398 1
4 -3 -6 389.436 6.54041 -2
4 3 5 389.436 6.54041 1
-5 3 7 173.797 15.7518 -2
-5 -3 -5 173.797 15.7518 1
5 -3 -7 166.94 6.47082 -2
5 3 5 166.94 6.47082 1
-6 3 7 48.9265 4.99064 -2
-6 -3 -5 48.9265 4.99064 1
6 -3 -7 58.5038 2.91579 -2
6 3 5 58.5038 2.91579 1
-7 3 7 75.0657 6.28145 -2
-7 -3 -5 75.0657 6.28145 1
7 -3 -7 84.985 4.03874 -2
7 3 5 84.985 4.03874 1
-9 3 8 -1.9503 12.7163 -2
-9 -3 -5 -1.9503 12.7163 1
9 -3 -8 10.375 11.5544 -2
9 3 5 10.375 11.5544 1
7 4 3 69.5627 5.22025 -2
7 -4 -5 69.5627 5.22025 1
-7 -4 -3 53.9428 4.31724 -2
-7 4 5 53.9428 4.31724 1
6 4 3 29.4285 4.11051 -2
6 -4 -5 29.4285 4.11051 1
-6 -4 -3 32.4084 3.48478 -2
-6 4 5 32.4084 3.48478 1
5 4 3 203.486 16.8192 -2
5 -4 -5 203.486 16.8192 1
-5 -4 -3 192.508 10.5048 -2
-5 4 5 192.508 10.5048 1
4 4 4 170.336 5.16018 -2
4 -4 -5 170.336 5.16018 1
-4 -4 -4 179.732 4.19393 -2
-4 4 5 179.732 4.19393 1
3 4 4 88.9527 5.07837 -2
3 -4 -5 88.9527 5.07837 1
-3 -4 -4 92.8519 2.48711 -2
-3 4 5 92.8519 2.48711 1
2 4 4 56.6756 4.84693 -2
2 -4 -5 56.6756 4.84693 1
-2 -4 -4 59.4743 2.89422 -2
-2 4 5 59.4743 2.89422 1
1 4 5 514.236 18.5457 -2
1 -4 -5 514.236 18.5457 1
-1 -4 -5 456.96 9.25958 -2
-1 4 5 456.96 9.25958 1
0 4 5 160.617 6.37084 -2
0 -4 -5 160.617 6.37084 1
0 -4 -5 186.42 3.00702 -2
0 4 5 186.42 3.00702 1
-1 4 5 211.01 7.79037 -2
-1 -4 -5 211.01 7.79037 1
1 -4 -5 215.618 3.97573 -2
1 4 5 215.618 3.97573 1
-2 4 6 223.32 11.0655 -2
-2 -4 -5 223.32 11.0655 1
2 -4 -6 269.597 5.00779 -2
2 4 5 269.597 5.00779 1
-3 4 6 359.101 14.0858 -2
-3 -4 -5 359.101 14.0858 1
3 -4 -6 352.745 5.67294 -2
3 4 5 352.745 5.67294 1
-4 4 6 27.2794 5.29986 -2
-4 -4 -5 27.2794 5.29986 1
4 -4 -6 20.4268 2.39051 -2
4 4 5 20.4268 2.39051 1
-5 4 7 64.0581 8.49346 -2
-5 -4 -5 64.0581 8.49346 1
5 -4 -7 31.1823 8.73285 -2
5 4 5 31.1823 8.73285 1
-6 4 7 58.9234 6.78181 -2
-6 -4 -5 58.9234 6.78181 1
6 -4 -7 64.4263 3.22397 -2
6 4 5 64.4263 3.22397 1
-7 4 7 65.6718 8.36124 -2
-7 -4 -5 65.6718 8.36124 1
7 -4 -7 67.1094 4.06649 -2
7 4 5 67.1094 4.06649 1
-7 -5 -3 15.6897 8.74813 -2
-7 5 5 15.6897 8.74813 1
6 5 3 64.7047 6.48515 -2
6 -5 -5 64.7047 6.48515 1
-6 -5 -3 65.6265 4.86042 -2
-6 5 5 65.6265 4.86042 1
5 -5 -5 20.7742 5.96109 1
-5 -5 -3 66.2402 15.6557 -2
-5 5 5 66.2402 15.6557 1
4 5 4 6.61304 7.4562 -2
4 -5 -5 6.61304 7.4562 1
-4 -5 -4 7.68417 3.58812 -2
-4 5 5 7.68417 3.58812 1
3 5 4 79.0922 5.84036 -2
3 -5 -5 79.0922 5.84036 1
-3 -5 -4 75.2667 2.83957 -2
-3 5 5 75.2667 2.83957 1
2 5 4 284.32 14.8915 -2
2 -5 -5 284.32 14.8915 1
-2 -5 -4 271.844 10.4744 -2
-2 5 5 271.844 10.4744 1
1 5 5 52.0738 6.98513 -2
1 -5 -5 52.0738 6.98513 1
-1 -5 -5 48.9959 3.31389 -2
-1 5 5 48.9959 3.31389 1
0 5 5 157.39 7.74815 -2
0 -5 -5 157.39 7.74815 1
0 -5 -5 155.948 3.22255 -2
0 5 5 155.948 3.22255 1
-1 5 5 63.7961 7.9543 -2
-1 -5 -5 63.7961 7.9543 1
1 -5 -5 96.3779 3.60627 -2
1 5 5 96.3779 3.60627 1
-2 5 6 14.6586 7.24041 -2
-2 -5 -5 14.6586 7.24041 1
2 -5 -6 21.0168 4.62477 -2
2 5 5 21.0168 4.62477 1
-3 5 6 6.9966 4.19158 -2
-3 -5 -5 6.9966 4.19158 1
3 -5 -6 14.1234 2.08484 -2
3 5 5 14.1234 2.08484 1
-4 5 6 114.513 7.54701 -2
-4 -5 -5 114.513 7.54701 1
4 -5 -6 101.023 3.50593 -2
4 5 5 101.023 3.50593 1
-5 5 7 47.626 12.6113 -2
-5 -5 -5 47.626 12.6113 1
5 -5 -7 23.1217 9.42135 -2
5 5 5 23.1217 9.42135 1
-6 5 7 21.8678 11.0808 -2
-6 -5 -5 21.8678 11.0808 1
6 -5 -7 5.72869 3.81774 -2
6 5 5 5.72869 3.81774 1
4 6 4 12.7928 10.6839 -2
4 -6 -5 12.7928 10.6839 1
-4 -6 -4 22.1082 8.74947 -2
-4 6 5 22.1082 8.74947 1
3 6 4 42.982 6.58996 -2
3 -6 -5 42.982 6.58996 1
-3 -6 -4 40.5966 3.40386 -2
-3 6 5 40.5966 3.40386 1
2 6 4 11.8368 7.51971 -2
2 -6 -5 11.8368 7.51971 1
-2 -6 -4 7.94426 6.86668 -2
-2 6 5 7.94426 6.86668 1
1 6 5 94.6705 8.96448 -2
1 -6 -5 94.6705 8.96448 1
-1 -6 -5 89.4193 5.6685 -2
-1 6 5 89.4193 5.6685 1
0 6 5 36.444 5.15626 -2
0 -6 -5 36.444 5.15626 1
0 -6 -5 29.4346 2.31571 -2
0 6 5 29.4346 2.31571 1
-1 6 5 37.7531 7.33103 -2
-1 -6 -5 37.7531 7.33103 1
1 -6 -5 46.4226 4.4769 -2
1 6 5 46.4226 4.4769 1
-2 6 6 13.4083 13.4629 -2
-2 -6 -5 13.4083 13.4629 1
2 -6 -6 28.2787 7.1 -2
2 6 5 28.2787 7.1 1
3 -6 -6 50.0793 4.69901 -2
3 6 5 50.0793 4.69901 1
4 -6 -6 5.9471 13.3135 -2
4 6 5 5.9471 13.3135 1
10 0 3 15.8466 5.84688 -2
-10 0 6 15.8466 5.84688 1
9 0 3 146.908 5.60192 -2
-9 0 6 146.908 5.60192 1
8 0 4 231.278 8.09492 -2
-8 0 6 231.278 8.09492 1
8 0 3 283.713 20.1145 -2
-8 0 6 283.713 20.1145 1
7 0 4 206.431 4.76328 -2
-7 0 6 206.431 4.76328 1
6 0 4 548.827 10.4606 -2
-6 0 6 548.827 10.4606 1
5 0 4 419.687 28.86 -2
-5 0 6 419.687 28.86 1
4 0 5 183.844 3.32653 -2
-4 0 6 183.844 3.32653 1
3 0 5 1823.98 26.8551 -2
-3 0 6 1823.98 26.8551 1
2 0 5 2353.53 81.9013 -2
-2 0 6 2353.53 81.9013 1
1 0 6 1386.66 21.5836 -2
-1 0 6 1386.66 21.5836 1
0 0 6 355.128 5.40834 -2
0 0 6 355.128 5.40834 1
-1 0 6 1114.41 20.3131 -2
1 0 6 1114.41 20.3131 1
-2 0 7 388.726 10.2337 -2
2 0 6 388.726 10.2337 1
-3 0 7 249.031 5.48367 -2
3 0 6 249.031 5.48367 1
-4 0 7 700.903 13.5841 -2
4 0 6 700.903 13.5841 1
-5 0 8 392.584 15.6552 -2
5 0 6 392.584 15.6552 1
-6 0 8 54.519 3.59836 -2
6 0 6 54.519 3.59836 1
-7 0 8 180.845 6.3084 -2
7 0 6 180.845 6.3084 1
8 0 6 93.3052 12.7347 1
-9 0 9 32.2428 6.66117 -2
9 0 6 32.2428 6.66117 1
-10 0 9 16.5837 7.68639 -2
10 0 6 16.5837 7.68639 1
10 1 3 54.2163 5.30354 -2
10 -1 -6 54.2163 5.30354 1
-10 -1 -3 35.8027 5.77958 -2
-10 1 6 35.8027 5.77958 1
9 1 3 37.6815 4.68855 -2
9 -1 -6 37.6815 4.68855 1
-9 -1 -3 37.7268 4.64885 -2
-9 1 6 37.7268 4.64885 1
8 1 4 111.517 7.81466 -2
8 -1 -6 111.517 7.81466 1
-8 -1 -4 101.897 7.3724 -2
-8 1 6 101.897 7.3724 1
7 1 4 356.826 8.79586 -2
7 -1 -6 356.826 8.79586 1
-7 -1 -4 355.369 7.38725 -2
-7 1 6 355.369 7.38725 1
6 1 4 156.45 3.59965 -2
6 -1 -6 156.45 3.59965 1
-6 -1 -4 164.33 3.71786 -2
-6 1 6 164.33 3.71786 1
5 1 4 272.819 12.1629 -2
5 -1 -6 272.819 12.1629 1
-5 -1 -4 276.403 14.0835 -2
-5 1 6 276.403 14.0835 1
4 1 5 1068.94 17.9386 -2
4 -1 -6 1068.94 17.9386 1
-4 -1 -5 1090.02 16.9 -2
-4 1 6 1090.02 16.9 1
3 1 5 510.443 7.83216 -2
3 -1 -6 510.443 7.83216 1
-3 -1 -5 485.186 7.25584 -2
-3 1 6 485.186 7.25584 1
2 1 5 506.214 12.72 -2
2 -1 -6 506.214 12.72 1
-2 -1 -5 470.223 10.2221 -2
-2 1 6 470.223 10.2221 1
1 1 6 1132.69 18.2067 -2
1 -1 -6 1132.69 18.2067 1
-1 -1 -6 1247.08 17.4688 -2
-1 1 6 1247.08 17.4688 1
0 1 6 306.259 4.65528 -2
0 -1 -6 306.259 4.65528 1
0 -1 -6 277.141 4.02621 -2
0 1 6 277.141 4.02621 1
-1 1 6 629.967 13.1909 -2
-1 -1 -6 629.967 13.1909 1
1 -1 -6 565.813 10.6564 -2
1 1 6 565.813 10.6564 1
-2 1 7 1205.45 27.1502 -2
-2 -1 -6 1205.45 27.1502 1
2 -1 -7 1142.31 25.1467 -2
2 1 6 1142.31 25.1467 1
-3 1 7 481.932 10.4115 -2
-3 -1 -6 481.932 10.4115 1
3 -1 -7 511.041 9.10375 -2
3 1 6 511.041 9.10375 1
-4 1 7 34.7316 2.75306 -2
-4 -1 -6 34.7316 2.75306 1
4 -1 -7 37.7774 1.89804 -2
4 1 6 37.7774 1.89804 1
-5 1 8 117.285 15.1203 -2
-5 -1 -6 117.285 15.1203 1
5 -1 -8 158.791 6.75534 -2
5 1 6 158.791 6.75534 1
-6 1 8 364.505 10.1241 -2
-6 -1 -6 364.505 10.1241 1
6 -1 -8 347.004 7.78261 -2
6 1 6 347.004 7.78261 1
-7 1 8 124.362 5.49255 -2
-7 -1 -6 124.362 5.49255 1
7 -1 -8 121.491 5.30451 -2
7 1 6 121.491 5.30451 1
-8 -1 -6 11.8446 8.12139 1
-9 1 9 72.8992 6.10956 -2
-9 -1 -6 72.8992 6.10956 1
9 -1 -9 67.037 5.75924 -2
9 1 6 67.037 5.75924 1
-10 1 9 20.013 10.8749 -2
-10 -1 -6 20.013 10.8749 1
10 -1 -9 13.4876 8.36733 -2
10 1 6 13.4876 8.36733 1
10 2 3 -0.9486 5.17792 -2
10 -2 -6 -0.9486 5.17792 1
-10 -2 -3 -1.2413 5.2659 -2
-10 2 6 -1.2413 5.2659 1
9 2 3 88.9403 5.14634 -2
9 -2 -6 88.9403 5.14634 1
-9 -2 -3 69.5066 4.81227 -2
-9 2 6 69.5066 4.81227 1
-8 -2 -3 162.962 18.4136 -2
-8 2 6 162.962 18.4136 1
7 2 4 63.7996 3.89474 -2
7 -2 -6 63.7996 3.89474 1
-7 -2 -4 59.8512 3.50808 -2
-7 2 6 59.8512 3.50808 1
6 2 4 248.866 6.56279 -2
6 -2 -6 248.866 6.56279 1
-6 -2 -4 261.844 5.34577 -2
-6 2 6 261.844 5.34577 1
5 2 4 378.386 10.8144 -2
5 -2 -6 378.386 10.8144 1
-5 -2 -4 329.086 9.55133 -2
-5 2 6 329.086 9.55133 1
4 2 5 17.9163 1.53231 -2
4 -2 -6 17.9163 1.53231 1
-4 -2 -5 22.0742 1.5564 -2
-4 2 6 22.0742 1.5564 1
3 2 5 412.834 6.14599 -2
3 -2 -6 412.834 6.14599 1
-3 -2 -5 358.795 5.77657 -2
-3 2 6 358.795 5.77657 1
2 2 5 590.218 10.7687 -2
2 -2 -6 590.218 10.7687 1
-2 -2 -5 590.249 10.4193 -2
-2 2 6 590.249 10.4193 1
1 2 6 406.885 7.07007 -2
1 -2 -6 406.885 7.07007 1
-1 -2 -6 384.963 7.16263 -2
-1 2 6 384.963 7.16263 1
0 2 6 662.574 10.1989 -2
0 -2 -6 662.574 10.1989 1
0 -2 -6 653.614 9.58451 -2
0 2 6 653.614 9.58451 1
-1 2 6 739.972 15.0551 -2
-1 -2 -6 739.972 15.0551 1
1 -2 -6 770.094 11.3283 -2
1 2 6 770.094 11.3283 1
-2 2 7 72.7544 2.6995 -2
-2 -2 -6 72.7544 2.6995 1
2 -2 -7 56.6231 2.11881 -2
2 2 6 56.6231 2.11881 1
-3 2 7 220.809 5.48178 -2
-3 -2 -6 220.809 5.48178 1
3 -2 -7 219.782 3.64194 -2
3 2 6 219.782 3.64194 1
-4 2 7 502.619 12.8881 -2
-4 -2 -6 502.619 12.8881 1
4 -2 -7 474.495 8.35898 -2
4 2 6 474.495 8.35898 1
-5 2 8 224.77 13.3857 -2
-5 -2 -6 224.77 13.3857 1
5 -2 -8 229.798 7.24845 -2
5 2 6 229.798 7.24845 1
-6 2 8 51.277 4.1627 -2
-6 -2 -6 51.277 4.1627 1
6 -2 -8 46.742 2.752 -2
6 2 6 46.742 2.752 1
-7 2 8 81.3385 5.04063 -2
-7 -2 -6 81.3385 5.04063 1
7 -2 -8 97.0792 3.65989 -2
7 2 6 97.0792 3.65989 1
8 -2 -8 92.3236 16.3909 -2
8 2 6 92.3236 16.3909 1
-9 2 9 4.32961 8.39964 -2
-9 -2 -6 4.32961 8.39964 1
9 -2 -9 11.042 6.52564 -2
9 2 6 11.042 6.52564 1
9 3 3 21.1062 5.60298 -2
9 -3 -6 21.1062 5.60298 1
-9 -3 -3 13.2459 4.79423 -2
-9 3 6 13.2459 4.79423 1
7 3 4 197.614 6.77143 -2
7 -3 -6 197.614 6.77143 1
-7 -3 -4 237.238 5.70232 -2
-7 3 6 237.238 5.70232 1
6 3 4 146.776 4.59637 -2
6 -3 -6 146.776 4.59637 1
-6 -3 -4 139.601 4.10094 -2
-6 3 6 139.601 4.10094 1
5 3 4 155.701 6.49218 -2
5 -3 -6 155.701 6.49218 1
-5 -3 -4 149.91 5.94395 -2
-5 3 6 149.91 5.94395 1
4 3 5 396.784 7.69765 -2
4 -3 -6 396.784 7.69765 1
-4 -3 -5 373.027 6.90808 -2
-4 3 6 373.027 6.90808 1
3 3 5 191.593 4.20507 -2
3 -3 -6 191.593 4.20507 1
-3 -3 -5 183.701 3.64202 -2
-3 3 6 183.701 3.64202 1
2 3 5 248.973 6.76179 -2
2 -3 -6 248.973 6.76179 1
-2 -3 -5 240.444 5.96841 -2
-2 3 6 240.444 5.96841 1
1 3 6 259.263 7.40365 -2
1 -3 -6 259.263 7.40365 1
-1 -3 -6 255.372 5.41644 -2
-1 3 6 255.372 5.41644 1
0 3 6 145.189 3.28081 -2
0 -3 -6 145.189 3.28081 1
0 -3 -6 138.964 2.22667 -2
0 3 6 138.964 2.22667 1
-1 3 6 148.629 3.58988 -2
-1 -3 -6 148.629 3.58988 1
1 -3 -6 133.787 2.84903 -2
1 3 6 133.787 2.84903 1
-2 3 7 416.251 10.1683 -2
-2 -3 -6 416.251 10.1683 1
2 -3 -7 450.632 7.23192 -2
2 3 6 450.632 7.23192 1
-3 3 7 355.116 8.95469 -2
-3 -3 -6 355.116 8.95469 1
3 -3 -7 356.841 5.64073 -2
3 3 6 356.841 5.64073 1
-4 3 7 19.933 3.45637 -2
-4 -3 -6 19.933 3.45637 1
4 -3 -7 18.6413 2.02422 -2
4 3 6 18.6413 2.02422 1
-5 3 8 110.143 9.47888 -2
-5 -3 -6 110.143 9.47888 1
5 -3 -8 95.6228 5.47298 -2
5 3 6 95.6228 5.47298 1
-6 3 8 111.967 7.4453 -2
-6 -3 -6 111.967 7.4453 1
6 -3 -8 130.965 3.77007 -2
6 3 6 130.965 3.77007 1
-7 3 8 54.6973 6.17576 -2
-7 -3 -6 54.6973 6.17576 1
7 -3 -8 55.1212 3.8193 -2
7 3 6 55.1212 3.8193 1
8 -3 -8 34.9204 16.2407 -2
8 3 6 34.9204 16.2407 1
-9 -3 -6 24.3026 8.20232 1
9 3 6 28.1228 7.46531 1
7 4 4 91.0386 6.27199 -2
7 -4 -6 91.0386 6.27199 1
-7 -4 -4 98.5396 4.80649 -2
-7 4 6 98.5396 4.80649 1
6 4 4 133.433 5.477 -2
6 -4 -6 133.433 5.477 1
-6 -4 -4 112.276 4.69765 -2
-6 4 6 112.276 4.69765 1
5 4 4 99.0602 7.6046 -2
5 -4 -6 99.0602 7.6046 1
-5 -4 -4 112.882 8.65416 -2
-5 4 6 112.882 8.65416 1
4 4 5 22.2634 2.5717 -2
4 -4 -6 22.2634 2.5717 1
-4 -4 -5 22.0324 3.08761 -2
-4 4 6 22.0324 3.08761 1
3 4 5 333.586 12.215 -2
3 -4 -6 333.586 12.215 1
-3 -4 -5 344.339 6.503 -2
-3 4 6 344.339 6.503 1
2 4 5 204.092 10.0614 -2
2 -4 -6 204.092 10.0614 1
-2 -4 -5 207.251 5.40667 -2
-2 4 6 207.251 5.40667 1
1 4 6 117.581 8.48628 -2
1 -4 -6 117.581 8.48628 1
-1 -4 -6 112.144 3.2358 -2
-1 4 6 112.144 3.2358 1
0 4 6 28.71 3.58595 -2
0 -4 -6 28.71 3.58595 1
0 -4 -6 31.5615 1.29326 -2
0 4 6 31.5615 1.29326 1
-1 4 6 254.85 8.97566 -2
-1 -4 -6 254.85 8.97566 1
1 -4 -6 250.861 4.75585 -2
1 4 6 250.861 4.75585 1
-2 4 7 152.459 8.39799 -2
-2 -4 -6 152.459 8.39799 1
2 -4 -7 181.926 4.38768 -2
2 4 6 181.926 4.38768 1
-3 4 7 94.692 5.7248 -2
-3 -4 -6 94.692 5.7248 1
3 -4 -7 103.019 2.51313 -2
3 4 6 103.019 2.51313 1
-4 4 7 314.513 14.4037 -2
-4 -4 -6 314.513 14.4037 1
4 -4 -7 352.879 6.62134 -2
4 4 6 352.879 6.62134 1
-5 4 8 111.694 14.3299 -2
-5 -4 -6 111.694 14.3299 1
5 -4 -8 87.9417 10.4341 -2
5 4 6 87.9417 10.4341 1
-6 4 8 26.0445 6.49622 -2
-6 -4 -6 26.0445 6.49622 1
6 -4 -8 31.6932 3.26234 -2
6 4 6 31.6932 3.26234 1
-7 4 8 23.7184 7.96117 -2
-7 -4 -6 23.7184 7.96117 1
7 -4 -8 25.2089 3.72524 -2
7 4 6 25.2089 3.72524 1
6 5 4 49.8777 5.98071 -2
6 -5 -6 49.8777 5.98071 1
-6 -5 -4 50.3971 5.36306 -2
-6 5 6 50.3971 5.36306 1
5 5 4 35.7462 4.27446 -2
5 -5 -6 35.7462 4.27446 1
-5 -5 -4 42.1524 16.2012 -2
-5 5 6 42.1524 16.2012 1
4 5 5 112.091 8.26575 -2
4 -5 -6 112.091 8.26575 1
-4 -5 -5 105.144 5.12972 -2
-4 5 6 105.144 5.12972 1
3 5 5 2.37062 5.04189 -2
3 -5 -6 2.37062 5.04189 1
-3 -5 -5 4.43207 2.41302 -2
-3 5 6 4.43207 2.41302 1
2 5 5 8.38601 7.078 -2
2 -5 -6 8.38601 7.078 1
-2 -5 -5 1.81751 7.21839 -2
-2 5 6 1.81751 7.21839 1
1 5 6 20.6576 6.85171 -2
1 -5 -6 20.6576 6.85171 1
-1 -5 -6 16.7765 3.37619 -2
-1 5 6 16.7765 3.37619 1
0 5 6 276.826 11.6036 -2
0 -5 -6 276.826 11.6036 1
0 -5 -6 261.738 4.74018 -2
0 5 6 261.738 4.74018 1
-1 5 6 8.94844 6.80668 -2
-1 -5 -6 8.94844 6.80668 1
1 -5 -6 13.3435 3.33403 -2
1 5 6 13.3435 3.33403 1
-2 5 7 232.738 13.6511 -2
-2 -5 -6 232.738 13.6511 1
2 -5 -7 222.846 9.2424 -2
2 5 6 222.846 9.2424 1
-3 5 7 124.06 7.15952 -2
-3 -5 -6 124.06 7.15952 1
3 -5 -7 139.94 3.6086 -2
3 5 6 139.94 3.6086 1
-4 5 7 18.4548 6.25349 -2
-4 -5 -6 18.4548 6.25349 1
4 -5 -7 19.2802 3.09922 -2
4 5 6 19.2802 3.09922 1
-5 5 8 73.4113 13.8783 -2
-5 -5 -6 73.4113 13.8783 1
5 -5 -8 60.0739 10.4228 -2
5 5 6 60.0739 10.4228 1
-6 5 8 57.6458 12.1243 -2
-6 -5 -6 57.6458 12.1243 1
6 -5 -8 26.4647 5.29233 -2
6 5 6 26.4647 5.29233 1
-4 6 6 8.6026 8.93619 1
3 6 5 51.8667 9.74853 -2
3 -6 -6 51.8667 9.74853 1
-3 -6 -5 39.1409 4.19004 -2
-3 6 6 39.1409 4.19004 1
2 6 5 9.91075 7.88194 -2
2 -6 -6 9.91075 7.88194 1
-2 -6 -5 9.07192 7.33132 -2
-2 6 6 9.07192 7.33132 1
1 6 6 35.2527 8.38961 -2
1 -6 -6 35.2527 8.38961 1
-1 -6 -6 40.4447 7.5188 -2
-1 6 6 40.4447 7.5188 1
0 6 6 20.51 5.61365 -2
0 -6 -6 20.51 5.61365 1
0 -6 -6 13.7478 2.16039 -2
0 6 6 13.7478 2.16039 1
-1 6 6 63.8769 8.3973 -2
-1 -6 -6 63.8769 8.3973 1
1 -6 -6 66.9735 4.97267 -2
1 6 6 66.9735 4.97267 1
-2 6 7 17.6948 12.4173 -2
-2 -6 -6 17.6948 12.4173 1
2 -6 -7 22.386 7.55522 -2
2 6 6 22.386 7.55522 1
-3 6 7 29.6498 8.53962 -2
-3 -6 -6 29.6498 8.53962 1
3 -6 -7 28.4802 5.36451 -2
3 6 6 28.4802 5.36451 1
10 0 4 83.4194 8.09512 -2
-10 0 7 83.4194 8.09512 1
9 0 4 23.8204 4.51673 -2
-9 0 7 23.8204 4.51673 1
8 0 5 62.9552 6.62006 -2
-8 0 7 62.9552 6.62006 1
7 0 5 297.828 6.60425 -2
-7 0 7 297.828 6.60425 1
6 0 5 427.677 8.38127 -2
-6 0 7 427.677 8.38127 1
5 0 5 786.589 50.1961 -2
-5 0 7 786.589 50.1961 1
4 0 6 774.591 12.006 -2
-4 0 7 774.591 12.006 1
3 0 6 224.462 3.98147 -2
-3 0 7 224.462 3.98147 1
2 0 6 446.24 9.49846 -2
-2 0 7 446.24 9.49846 1
1 0 7 1198.32 19.4209 -2
-1 0 7 1198.32 19.4209 1
0 0 7 5140.77 77.255 -2
0 0 7 5140.77 77.255 1
-1 0 7 737.481 13.1307 -2
1 0 7 737.481 13.1307 1
-2 0 8 989.58 25.0409 -2
2 0 7 989.58 25.0409 1
-3 0 8 353.409 7.58491 -2
3 0 7 353.409 7.58491 1
-4 0 8 169.724 4.31347 -2
4 0 7 169.724 4.31347 1
-5 0 9 108.09 9.83075 -2
5 0 7 108.09 9.83075 1
-6 0 9 156.577 5.17995 -2
6 0 7 156.577 5.17995 1
-7 0 9 66.0889 4.62163 -2
7 0 7 66.0889 4.62163 1
-9 0 10 56.6399 6.10773 -2
9 0 7 56.6399 6.10773 1
10 1 4 39.2916 5.20073 -2
10 -1 -7 39.2916 5.20073 1
-10 -1 -4 34.1387 6.28867 -2
-10 1 7 34.1387 6.28867 1
9 1 4 101.032 5.32592 -2
9 -1 -7 101.032 5.32592 1
-9 -1 -4 86.7672 5.30608 -2
-9 1 7 86.7672 5.30608 1
8 1 5 82.6131 9.10531 -2
8 -1 -7 82.6131 9.10531 1
-8 -1 -5 80.6582 10.2143 -2
-8 1 7 80.6582 10.2143 1
7 1 5 66.037 3.96145 -2
7 -1 -7 66.037 3.96145 1
-7 -1 -5 68.2143 3.05125 -2
-7 1 7 68.2143 3.05125 1
6 1 5 359.763 7.41785 -2
6 -1 -7 359.763 7.41785 1
-6 -1 -5 376.025 7.14341 -2
-6 1 7 376.025 7.14341 1
5 1 5 442.141 15.7033 -2
5 -1 -7 442.141 15.7033 1
5 1 6 404.299 27.8611 -2
5 -1 -7 404.299 27.8611 1
-5 -1 -5 430.833 21.0067 -2
-5 1 7 430.833 21.0067 1
4 1 6 63.2493 1.8088 -2
4 -1 -7 63.2493 1.8088 1
-4 -1 -6 54.4683 1.92958 -2
-4 1 7 54.4683 1.92958 1
3 1 6 393.267 6.24075 -2
3 -1 -7 393.267 6.24075 1
-3 -1 -6 365.512 5.33329 -2
-3 1 7 365.512 5.33329 1
2 1 6 1233.18 24.3348 -2
2 -1 -7 1233.18 24.3348 1
-2 -1 -6 1156.25 20.7675 -2
-2 1 7 1156.25 20.7675 1
1 1 7 1025.98 16.2857 -2
1 -1 -7 1025.98 16.2857 1
-1 -1 -7 1023.65 15.5668 -2
-1 1 7 1023.65 15.5668 1
0 1 7 634.537 10.084 -2
0 -1 -7 634.537 10.084 1
0 -1 -7 620.009 8.7663 -2
0 1 7 620.009 8.7663 1
-1 1 7 1189.48 23.6388 -2
-1 -1 -7 1189.48 23.6388 1
1 -1 -7 1207.88 18.5508 -2
1 1 7 1207.88 18.5508 1
-2 1 8 166.852 4.63202 -2
-2 -1 -7 166.852 4.63202 1
2 -1 -8 193.343 4.14223 -2
2 1 7 193.343 4.14223 1
-3 1 8 221.085 4.87451 -2
-3 -1 -7 221.085 4.87451 1
3 -1 -8 236.492 5.0414 -2
3 1 7 236.492 5.0414 1
-4 1 8 533.752 11.2628 -2
-4 -1 -7 533.752 11.2628 1
4 -1 -8 467.499 10.3506 -2
4 1 7 467.499 10.3506 1
-5 1 9 405.121 20.0846 -2
-5 -1 -7 405.121 20.0846 1
5 -1 -9 379.944 19.1833 -2
5 1 7 379.944 19.1833 1
-6 1 9 35.5663 3.7815 -2
-6 -1 -7 35.5663 3.7815 1
6 -1 -9 29.0089 3.10344 -2
6 1 7 29.0089 3.10344 1
-7 1 9 79.4222 5.6731 -2
-7 -1 -7 79.4222 5.6731 1
7 -1 -9 100.066 4.43887 -2
7 1 7 100.066 4.43887 1
8 -1 -9 158.87 19.3743 -2
8 1 7 158.87 19.3743 1
-9 1 10 52.9459 6.96622 -2
-9 -1 -7 52.9459 6.96622 1
9 -1 -10 41.5994 6.05897 -2
9 1 7 41.5994 6.05897 1
10 2 4 24.6281 8.09115 -2
10 -2 -7 24.6281 8.09115 1
-10 -2 -4 30.4001 5.92956 -2
-10 2 7 30.4001 5.92956 1
9 2 4 21.7559 4.65649 -2
9 -2 -7 21.7559 4.65649 1
-9 -2 -4 10.7554 4.30804 -2
-9 2 7 10.7554 4.30804 1
7 2 5 101.722 4.44602 -2
7 -2 -7 101.722 4.44602 1
-7 -2 -5 85.3813 3.6408 -2
-7 2 7 85.3813 3.6408 1
6 2 5 84.7371 3.983 -2
6 -2 -7 84.7371 3.983 1
-6 -2 -5 110.308 3.22476 -2
-6 2 7 110.308 3.22476 1
5 2 5 168.063 5.80031 -2
5 -2 -7 168.063 5.80031 1
-5 -2 -5 172.454 6.02754 -2
-5 2 7 172.454 6.02754 1
4 2 6 460.391 8.56975 -2
4 -2 -7 460.391 8.56975 1
-4 -2 -6 489.526 8.0238 -2
-4 2 7 489.526 8.0238 1
3 2 6 354.114 5.84706 -2
3 -2 -7 354.114 5.84706 1
-3 -2 -6 318.362 5.332 -2
-3 2 7 318.362 5.332 1
2 2 6 81.9769 2.42705 -2
2 -2 -7 81.9769 2.42705 1
-2 -2 -6 97.5393 2.3922 -2
-2 2 7 97.5393 2.3922 1
1 2 7 587.837 9.79045 -2
1 -2 -7 587.837 9.79045 1
-1 -2 -7 527.839 10.4735 -2
-1 2 7 527.839 10.4735 1
0 2 7 419.003 6.65259 -2
0 -2 -7 419.003 6.65259 1
0 -2 -7 420.237 6.37941 -2
0 2 7 420.237 6.37941 1
-1 2 7 296.529 6.17922 -2
-1 -2 -7 296.529 6.17922 1
1 -2 -7 288.079 4.6701 -2
1 2 7 288.079 4.6701 1
-2 2 8 601.982 13.0221 -2
-2 -2 -7 601.982 13.0221 1
2 -2 -8 551.534 10.6418 -2
2 2 7 551.534 10.6418 1
-3 2 8 448.452 12.5073 -2
-3 -2 -7 448.452 12.5073 1
3 -2 -8 489.34 7.57393 -2
3 2 7 489.34 7.57393 1
-4 2 8 19.0161 3.14554 -2
-4 -2 -7 19.0161 3.14554 1
4 -2 -8 12.7646 1.79205 -2
4 2 7 12.7646 1.79205 1
-5 2 9 83.448 8.70059 -2
-5 -2 -7 83.448 8.70059 1
5 -2 -9 66.4181 5.96697 -2
5 2 7 66.4181 5.96697 1
-6 2 9 182.872 7.06235 -2
-6 -2 -7 182.872 7.06235 1
6 -2 -9 188.704 4.77826 -2
6 2 7 188.704 4.77826 1
-7 2 9 91.8577 5.76504 -2
-7 -2 -7 91.8577 5.76504 1
7 -2 -9 95.2299 4.64053 -2
7 2 7 95.2299 4.64053 1
-9 2 10 64.6719 17.9725 -2
-9 -2 -7 64.6719 17.9725 1
9 -2 -10 68.0852 9.14321 -2
9 2 7 68.0852 9.14321 1
9 3 4 47.4599 7.33832 -2
9 -3 -7 47.4599 7.33832 1
-9 -3 -4 58.376 5.42296 -2
-9 3 7 58.376 5.42296 1
8 3 4 55.037 11.9024 -2
8 -3 -7 55.037 11.9024 1
8 3 5 56.6627 11.8219 -2
8 -3 -7 56.6627 11.8219 1
7 3 5 38.2457 3.87195 -2
7 -3 -7 38.2457 3.87195 1
-7 -3 -5 33.6999 3.29721 -2
-7 3 7 33.6999 3.29721 1
6 3 5 108.101 3.96867 -2
6 -3 -7 108.101 3.96867 1
-6 -3 -5 99.9879 3.41417 -2
-6 3 7 99.9879 3.41417 1
5 3 5 328.837 9.50685 -2
5 -3 -7 328.837 9.50685 1
-5 -3 -5 355.38 16.8336 -2
-5 3 7 355.38 16.8336 1
4 3 6 15.7122 2.04491 -2
4 -3 -7 15.7122 2.04491 1
-4 -3 -6 11.4695 2.14763 -2
-4 3 7 11.4695 2.14763 1
3 3 6 311.698 6.96605 -2
3 -3 -7 311.698 6.96605 1
-3 -3 -6 306.99 5.59367 -2
-3 3 7 306.99 5.59367 1
2 3 6 538.893 13.5031 -2
2 -3 -7 538.893 13.5031 1
-2 -3 -6 470.669 10.4254 -2
-2 3 7 470.669 10.4254 1
1 3 7 412.822 11.2802 -2
1 -3 -7 412.822 11.2802 1
-1 -3 -7 439.634 8.18043 -2
-1 3 7 439.634 8.18043 1
0 3 7 273.603 5.84695 -2
0 -3 -7 273.603 5.84695 1
0 -3 -7 268.11 4.35852 -2
0 3 7 268.11 4.35852 1
-1 3 7 603.756 13.4116 -2
-1 -3 -7 603.756 13.4116 1
1 -3 -7 597.528 9.11978 -2
1 3 7 597.528 9.11978 1
-2 3 8 82.9146 4.42441 -2
-2 -3 -7 82.9146 4.42441 1
2 -3 -8 90.2458 2.71091 -2
2 3 7 90.2458 2.71091 1
-3 3 8 228.837 9.13178 -2
-3 -3 -7 228.837 9.13178 1
3 -3 -8 206.668 3.88008 -2
3 3 7 206.668 3.88008 1
-4 3 8 188.081 8.19755 -2
-4 -3 -7 188.081 8.19755 1
4 -3 -8 220.55 4.4409 -2
4 3 7 220.55 4.4409 1
-5 3 9 126.454 14.6744 -2
-5 -3 -7 126.454 14.6744 1
5 -3 -9 135.038 5.42356 -2
5 3 7 135.038 5.42356 1
-6 3 9 44.5792 6.13627 -2
-6 -3 -7 44.5792 6.13627 1
6 -3 -9 38.069 2.98306 -2
6 3 7 38.069 2.98306 1
-7 3 9 28.7667 6.85618 -2
-7 -3 -7 28.7667 6.85618 1
7 -3 -9 25.9042 3.73155 -2
7 3 7 25.9042 3.73155 1
8 -3 -9 40.3909 16.8369 -2
8 3 7 40.3909 16.8369 1
7 4 5 35.1688 6.46925 -2
7 -4 -7 35.1688 6.46925 1
-7 -4 -5 45.6211 4.27035 -2
-7 4 7 45.6211 4.27035 1
6 4 5 78.4937 5.15762 -2
6 -4 -7 78.4937 5.15762 1
-6 -4 -5 65.8629 3.8356 -2
-6 4 7 65.8629 3.8356 1
5 4 5 28.6717 12.2135 -2
5 -4 -7 28.6717 12.2135 1
-5 -4 -5 43.8618 6.7014 -2
-5 4 7 43.8618 6.7014 1
4 4 6 450.936 12.0787 -2
4 -4 -7 450.936 12.0787 1
-4 -4 -6 401.354 9.59618 -2
-4 4 7 401.354 9.59618 1
3 4 6 127.08 6.14518 -2
3 -4 -7 127.08 6.14518 1
-3 -4 -6 100.892 2.95639 -2
-3 4 7 100.892 2.95639 1
2 4 6 100.339 7.10885 -2
2 -4 -7 100.339 7.10885 1
-2 -4 -6 83.5209 4.08835 -2
-2 4 7 83.5209 4.08835 1
1 4 7 308.591 15.1765 -2
1 -4 -7 308.591 15.1765 1
-1 -4 -7 278.438 6.28772 -2
-1 4 7 278.438 6.28772 1
0 4 7 336.901 10.4132 -2
0 -4 -7 336.901 10.4132 1
0 -4 -7 330.249 5.50806 -2
0 4 7 330.249 5.50806 1
-1 4 7 138.359 5.76295 -2
-1 -4 -7 138.359 5.76295 1
1 -4 -7 138.062 3.30543 -2
1 4 7 138.062 3.30543 1
-2 4 8 271.117 11.2343 -2
-2 -4 -7 271.117 11.2343 1
2 -4 -8 247.073 5.37442 -2
2 4 7 247.073 5.37442 1
-3 4 8 98.4481 5.88179 -2
-3 -4 -7 98.4481 5.88179 1
3 -4 -8 101.196 2.69305 -2
3 4 7 101.196 2.69305 1
-4 4 8 47.4108 6.19557 -2
-4 -4 -7 47.4108 6.19557 1
4 -4 -8 56.04 2.99992 -2
4 4 7 56.04 2.99992 1
5 -4 -9 43.6926 9.52904 -2
5 4 7 43.6926 9.52904 1
-6 4 9 58.5597 7.25503 -2
-6 -4 -7 58.5597 7.25503 1
6 -4 -9 70.1328 4.08937 -2
6 4 7 70.1328 4.08937 1
-7 4 9 24.3978 8.33517 -2
-7 -4 -7 24.3978 8.33517 1
7 -4 -9 30.9167 4.35217 -2
7 4 7 30.9167 4.35217 1
6 5 5 -2.89 4.44435 -2
6 -5 -7 -2.89 4.44435 1
-6 -5 -5 5.94266 6.62335 -2
-6 5 7 5.94266 6.62335 1
5 5 5 55.98 9.87904 -2
5 -5 -7 55.98 9.87904 1
4 5 6 22.9365 7.24271 -2
4 -5 -7 22.9365 7.24271 1
-4 -5 -6 26.8079 4.47172 -2
-4 5 7 26.8079 4.47172 1
3 5 6 145.633 8.76078 -2
3 -5 -7 145.633 8.76078 1
-3 -5 -6 111.207 3.49398 -2
-3 5 7 111.207 3.49398 1
2 5 6 226.373 13.4871 -2
2 -5 -7 226.373 13.4871 1
-2 -5 -6 213.83 11.754 -2
-2 5 7 213.83 11.754 1
1 5 7 11.6473 7.34294 -2
1 -5 -7 11.6473 7.34294 1
-1 -5 -7 7.06933 4.12776 -2
-1 5 7 7.06933 4.12776 1
0 5 7 11.259 4.33318 -2
0 -5 -7 11.259 4.33318 1
0 -5 -7 17.579 1.60475 -2
0 5 7 17.579 1.60475 1
-1 5 7 26.4119 7.53392 -2
-1 -5 -7 26.4119 7.53392 1
1 -5 -7 27.5938 3.84803 -2
1 5 7 27.5938 3.84803 1
-2 5 8 59.6682 8.78586 -2
-2 -5 -7 59.6682 8.78586 1
2 -5 -8 53.0717 5.46569 -2
2 5 7 53.0717 5.46569 1
-3 5 8 19.1875 5.95072 -2
-3 -5 -7 19.1875 5.95072 1
3 -5 -8 17.1335 2.66338 -2
3 5 7 17.1335 2.66338 1
-4 5 8 76.1946 7.36852 -2
-4 -5 -7 76.1946 7.36852 1
4 -5 -8 80.7127 3.79065 -2
4 5 7 80.7127 3.79065 1
-5 5 9 61.2383 10.6328 -2
-5 -5 -7 61.2383 10.6328 1
-3 -6 -6 26.6725 4.63229 -2
-3 6 7 26.6725 4.63229 1
2 6 6 8.57063 10.9507 -2
2 -6 -7 8.57063 10.9507 1
-2 -6 -6 13.5111 17.7047 -2
-2 6 7 13.5111 17.7047 1
1 6 7 58.9432 9.57819 -2
1 -6 -7 58.9432 9.57819 1
-1 -6 -7 74.8137 10.7149 -2
-1 6 7 74.8137 10.7149 1
0 6 7 17.2721 5.83154 -2
0 -6 -7 17.2721 5.83154 1
0 -6 -7 9.29333 2.28106 -2
0 6 7 9.29333 2.28106 1
-1 6 7 40.1385 11.2713 -2
-1 -6 -7 40.1385 11.2713 1
1 -6 -7 30.526 5.97647 -2
1 6 7 30.526 5.97647 1
-2 6 8 5.14098 13.4577 -2
-2 -6 -7 5.14098 13.4577 1
2 -6 -8 -9.2319 14.1848 -2
2 6 7 -9.2319 14.1848 1
10 0 5 37.3491 8.80929 -2
-10 0 8 37.3491 8.80929 1
9 0 5 44.0808 4.84288 -2
-9 0 8 44.0808 4.84288 1
8 0 6 63.5841 9.26876 -2
-8 0 8 63.5841 9.26876 1
7 0 6 136.945 4.03523 -2
-7 0 8 136.945 4.03523 1
6 0 6 54.8069 2.46918 -2
-6 0 8 54.8069 2.46918 1
5 0 6 413.036 18.1154 -2
-5 0 8 413.036 18.1154 1
4 0 7 311.64 5.57616 -2
-4 0 8 311.64 5.57616 1
3 0 7 398.772 6.50291 -2
-3 0 8 398.772 6.50291 1
2 0 7 1341.28 23.4711 -2
-2 0 8 1341.28 23.4711 1
1 0 8 501.263 8.80978 -2
-1 0 8 501.263 8.80978 1
0 0 8 47.3274 1.31836 -2
0 0 8 47.3274 1.31836 1
-1 0 8 956.676 17.6567 -2
1 0 8 956.676 17.6567 1
-2 0 9 943.557 19.3214 -2
2 0 8 943.557 19.3214 1
-3 0 9 249.763 6.12102 -2
3 0 8 249.763 6.12102 1
-4 0 9 672.515 14.9085 -2
4 0 8 672.515 14.9085 1
-5 0 10 119.683 10.7517 -2
5 0 8 119.683 10.7517 1
-6 0 10 160.774 5.70075 -2
6 0 8 160.774 5.70075 1
-7 0 10 29.7211 5.10243 -2
7 0 8 29.7211 5.10243 1
-9 0 11 21.5079 6.30275 -2
9 0 8 21.5079 6.30275 1
10 1 5 37.1657 7.8571 -2
10 -1 -8 37.1657 7.8571 1
-10 -1 -5 36.6394 7.21025 -2
-10 1 8 36.6394 7.21025 1
9 1 5 3.56183 4.53511 -2
9 -1 -8 3.56183 4.53511 1
-9 -1 -5 13.3478 5.17746 -2
-9 1 8 13.3478 5.17746 1
8 1 6 28.108 8.39833 -2
8 -1 -8 28.108 8.39833 1
7 1 6 145.079 4.88421 -2
7 -1 -8 145.079 4.88421 1
-7 -1 -6 139.568 4.03501 -2
-7 1 8 139.568 4.03501 1
6 1 6 251.596 6.04656 -2
6 -1 -8 251.596 6.04656 1
-6 -1 -6 254.636 5.31406 -2
-6 1 8 254.636 5.31406 1
5 1 6 75.434 6.42237 -2
5 -1 -8 75.434 6.42237 1
-5 -1 -6 55.5642 5.55899 -2
-5 1 8 55.5642 5.55899 1
4 1 7 622.062 11.0878 -2
4 -1 -8 622.062 11.0878 1
-4 -1 -7 696.129 11.021 -2
-4 1 8 696.129 11.021 1
3 1 7 357.071 5.98462 -2
3 -1 -8 357.071 5.98462 1
-3 -1 -7 331.007 5.32194 -2
-3 1 8 331.007 5.32194 1
2 1 7 82.8247 2.32515 -2
2 -1 -8 82.8247 2.32515 1
-2 -1 -7 75.0354 2.06215 -2
-2 1 8 75.0354 2.06215 1
1 1 8 880.096 15.8961 -2
1 -1 -8 880.096 15.8961 1
-1 -1 -8 905.39 14.4771 -2
-1 1 8 905.39 14.4771 1
0 1 8 1195.33 19.5071 -2
0 -1 -8 1195.33 19.5071 1
0 -1 -8 1186.39 16.8685 -2
0 1 8 1186.39 16.8685 1
-1 1 8 466.785 10.2716 -2
-1 -1 -8 466.785 10.2716 1
1 -1 -8 438.719 8.14589 -2
1 1 8 438.719 8.14589 1
-2 1 9 953.774 23.99 -2
-2 -1 -8 953.774 23.99 1
2 -1 -9 913.103 18.7984 -2
2 1 8 913.103 18.7984 1
-3 1 9 590.36 12.228 -2
-3 -1 -8 590.36 12.228 1
3 -1 -9 579.992 13.772 -2
3 1 8 579.992 13.772 1
-4 1 9 148.101 4.41626 -2
-4 -1 -8 148.101 4.41626 1
4 -1 -9 160.01 4.33621 -2
4 1 8 160.01 4.33621 1
-5 1 10 168.548 12.0422 -2
-5 -1 -8 168.548 12.0422 1
5 -1 -10 136.502 9.02336 -2
5 1 8 136.502 9.02336 1
-6 1 10 123.646 6.43654 -2
-6 -1 -8 123.646 6.43654 1
6 -1 -10 115.623 4.38507 -2
6 1 8 115.623 4.38507 1
-7 1 10 109.764 6.31962 -2
-7 -1 -8 109.764 6.31962 1
7 -1 -10 113.059 4.85128 -2
7 1 8 113.059 4.85128 1
8 -1 -10 37.8622 12.6328 -2
8 1 8 37.8622 12.6328 1
-9 1 11 24.317 7.11592 -2
-9 -1 -8 24.317 7.11592 1
9 -1 -11 41.7451 6.18049 -2
9 1 8 41.7451 6.18049 1
9 2 5 75.1793 5.75262 -2
9 -2 -8 75.1793 5.75262 1
-9 -2 -5 76.9031 5.11333 -2
-9 2 8 76.9031 5.11333 1
7 2 6 48.1399 3.98852 -2
7 -2 -8 48.1399 3.98852 1
-7 -2 -6 43.9453 3.27541 -2
-7 2 8 43.9453 3.27541 1
6 2 6 103.994 4.33018 -2
6 -2 -8 103.994 4.33018 1
-6 -2 -6 108.509 3.63234 -2
-6 2 8 108.509 3.63234 1
5 2 6 312.87 10.639 -2
5 -2 -8 312.87 10.639 1
-5 -2 -6 266.442 7.81102 -2
-5 2 8 266.442 7.81102 1
4 2 7 22.2411 1.9953 -2
4 -2 -8 22.2411 1.9953 1
-4 -2 -7 23.7423 1.85967 -2
-4 2 8 23.7423 1.85967 1
3 2 7 402.214 6.66034 -2
3 -2 -8 402.214 6.66034 1
-3 -2 -7 360.476 6.47636 -2
-3 2 8 360.476 6.47636 1
2 2 7 717.511 15.2256 -2
2 -2 -8 717.511 15.2256 1
-2 -2 -7 739.411 15.0935 -2
-2 2 8 739.411 15.0935 1
1 2 8 543.46 11.4856 -2
1 -2 -8 543.46 11.4856 1
-1 -2 -8 592.352 10.235 -2
-1 2 8 592.352 10.235 1
0 2 8 529.808 8.97505 -2
0 -2 -8 529.808 8.97505 1
0 -2 -8 536.408 7.90773 -2
0 2 8 536.408 7.90773 1
-1 2 8 869.908 18.87 -2
-1 -2 -8 869.908 18.87 1
1 -2 -8 845.281 14.2852 -2
1 2 8 845.281 14.2852 1
-2 2 9 141.416 4.65109 -2
-2 -2 -8 141.416 4.65109 1
2 -2 -9 116.035 3.29198 -2
2 2 8 116.035 3.29198 1
-3 2 9 204.199 5.59702 -2
-3 -2 -8 204.199 5.59702 1
3 -2 -9 201.95 3.88988 -2
3 2 8 201.95 3.88988 1
-4 2 9 426.243 12.0177 -2
-4 -2 -8 426.243 12.0177 1
4 -2 -9 381.949 6.79331 -2
4 2 8 381.949 6.79331 1
-5 2 10 219.732 11.0905 -2
-5 -2 -8 219.732 11.0905 1
5 -2 -10 228.696 8.53008 -2
5 2 8 228.696 8.53008 1
-6 2 10 27.6925 4.38861 -2
-6 -2 -8 27.6925 4.38861 1
6 -2 -10 26.8777 3.08669 -2
6 2 8 26.8777 3.08669 1
-7 2 10 30.3824 5.83822 -2
-7 -2 -8 30.3824 5.83822 1
7 -2 -10 37.1928 4.03712 -2
7 2 8 37.1928 4.03712 1
-9 2 11 9.75274 17.3421 -2
-9 -2 -8 9.75274 17.3421 1
9 -2 -11 25.4083 12.2787 -2
9 2 8 25.4083 12.2787 1
9 3 5 35.3069 7.14894 -2
9 -3 -8 35.3069 7.14894 1
-9 -3 -5 21.9856 5.30306 -2
-9 3 8 21.9856 5.30306 1
8 3 5 61.5959 12.6468 -2
8 -3 -8 61.5959 12.6468 1
-8 -3 -5 71.5479 20.8094 -2
-8 3 8 71.5479 20.8094 1
7 3 6 110.397 5.00715 -2
7 -3 -8 110.397 5.00715 1
-7 -3 -6 111.14 4.25914 -2
-7 3 8 111.14 4.25914 1
6 3 6 74.9548 3.73604 -2
6 -3 -8 74.9548 3.73604 1
-6 -3 -6 59.0199 3.23446 -2
-6 3 8 59.0199 3.23446 1
5 3 6 44.4377 4.50466 -2
5 -3 -8 44.4377 4.50466 1
-5 -3 -6 57.2657 5.47639 -2
-5 3 8 57.2657 5.47639 1
4 3 7 224.09 7.55403 -2
4 -3 -8 224.09 7.55403 1
-4 -3 -7 168.528 4.2788 -2
-4 3 8 168.528 4.2788 1
3 3 7 462.365 10.6168 -2
3 -3 -8 462.365 10.6168 1
-3 -3 -7 451.74 7.66075 -2
-3 3 8 451.74 7.66075 1
2 3 7 101.082 3.13758 -2
2 -3 -8 101.082 3.13758 1
-2 -3 -7 94.0835 2.85453 -2
-2 3 8 94.0835 2.85453 1
1 3 8 468.067 13.0637 -2
1 -3 -8 468.067 13.0637 1
-1 -3 -8 520.155 9.44793 -2
-1 3 8 520.155 9.44793 1
0 3 8 186.141 4.08684 -2
0 -3 -8 186.141 4.08684 1
0 -3 -8 174.276 3.00002 -2
0 3 8 174.276 3.00002 1
-1 3 8 254.061 6.71023 -2
-1 -3 -8 254.061 6.71023 1
1 -3 -8 221.909 4.27165 -2
1 3 8 221.909 4.27165 1
-2 3 9 134.438 6.81659 -2
-2 -3 -8 134.438 6.81659 1
2 -3 -9 163.634 3.95419 -2
2 3 8 163.634 3.95419 1
-3 3 9 381.784 11.3079 -2
-3 -3 -8 381.784 11.3079 1
3 -3 -9 377.731 6.66817 -2
3 3 8 377.731 6.66817 1
-4 3 9 52.9217 4.85976 -2
-4 -3 -8 52.9217 4.85976 1
4 -3 -9 62.4785 2.94042 -2
4 3 8 62.4785 2.94042 1
-5 3 10 47.6779 8.83547 -2
-5 -3 -8 47.6779 8.83547 1
5 -3 -10 40.7568 4.17528 -2
5 3 8 40.7568 4.17528 1
-6 3 10 94.8719 7.78043 -2
-6 -3 -8 94.8719 7.78043 1
6 -3 -10 107.536 3.90805 -2
6 3 8 107.536 3.90805 1
-7 3 10 38.284 8.43434 -2
-7 -3 -8 38.284 8.43434 1
7 -3 -10 47.1766 3.80314 -2
7 3 8 47.1766 3.80314 1
8 -3 -10 9.58138 16.9186 -2
8 3 8 9.58138 16.9186 1
7 4 6 17.6121 6.35373 -2
7 -4 -8 17.6121 6.35373 1
-7 -4 -6 14.2178 4.83824 -2
-7 4 8 14.2178 4.83824 1
6 4 6 47.3348 4.86182 -2
6 -4 -8 47.3348 4.86182 1
-6 -4 -6 46.369 4.13313 -2
-6 4 8 46.369 4.13313 1
-5 -4 -6 61.2619 7.32279 -2
-5 4 8 61.2619 7.32279 1
4 4 7 68.1543 4.51638 -2
4 -4 -8 68.1543 4.51638 1
-4 -4 -7 59.6274 3.78677 -2
-4 4 8 59.6274 3.78677 1
3 4 7 48.2429 5.6679 -2
3 -4 -8 48.2429 5.6679 1
-3 -4 -7 62.8686 2.55694 -2
-3 4 8 62.8686 2.55694 1
2 4 7 417.51 17.304 -2
2 -4 -8 417.51 17.304 1
-2 -4 -7 415.617 10.0352 -2
-2 4 8 415.617 10.0352 1
1 4 8 5.62977 6.93583 -2
1 -4 -8 5.62977 6.93583 1
-1 -4 -8 22.8365 3.21912 -2
-1 4 8 22.8365 3.21912 1
0 4 8 66.9884 3.54178 -2
0 -4 -8 66.9884 3.54178 1
0 -4 -8 65.991 2.10751 -2
0 4 8 65.991 2.10751 1
-1 4 8 62.0775 5.02314 -2
-1 -4 -8 62.0775 5.02314 1
1 -4 -8 46.7256 2.56124 -2
1 4 8 46.7256 2.56124 1
-2 4 9 184.675 9.27409 -2
-2 -4 -8 184.675 9.27409 1
2 -4 -9 180.735 5.0419 -2
2 4 8 180.735 5.0419 1
-3 4 9 11.2029 3.13959 -2
-3 -4 -8 11.2029 3.13959 1
3 -4 -9 4.84343 1.98951 -2
3 4 8 4.84343 1.98951 1
-4 4 9 102.722 7.34423 -2
-4 -4 -8 102.722 7.34423 1
4 -4 -9 85.4773 3.6555 -2
4 4 8 85.4773 3.6555 1
-6 4 10 24.7214 7.10323 -2
-6 -4 -8 24.7214 7.10323 1
6 -4 -10 23.1762 4.33345 -2
6 4 8 23.1762 4.33345 1
-7 4 10 23.366 12.0907 -2
-7 -4 -8 23.366 12.0907 1
7 -4 -10 17.5474 5.88128 -2
7 4 8 17.5474 5.88128 1
6 5 6 8.56847 4.27786 -2
6 -5 -8 8.56847 4.27786 1
-6 -5 -6 16.1283 6.71989 -2
-6 5 8 16.1283 6.71989 1
5 5 6 67.2495 15.2589 -2
5 -5 -8 67.2495 15.2589 1
-5 -5 -6 49.9862 15.5792 -2
-5 5 8 49.9862 15.5792 1
4 5 7 56.6716 9.09479 -2
4 -5 -8 56.6716 9.09479 1
-4 -5 -7 64.0735 4.94567 -2
-4 5 8 64.0735 4.94567 1
3 5 7 40.2773 6.75866 -2
3 -5 -8 40.2773 6.75866 1
-3 -5 -7 27.9248 2.86793 -2
-3 5 8 27.9248 2.86793 1
2 5 7 17.2604 8.21271 -2
2 -5 -8 17.2604 8.21271 1
-2 -5 -7 30.9149 5.59729 -2
-2 5 8 30.9149 5.59729 1
1 5 8 90.2558 9.25665 -2
1 -5 -8 90.2558 9.25665 1
-1 -5 -8 84.9314 5.12835 -2
-1 5 8 84.9314 5.12835 1
0 5 8 111.542 7.11671 -2
0 -5 -8 111.542 7.11671 1
0 -5 -8 96.6245 2.9163 -2
0 5 8 96.6245 2.9163 1
-1 5 8 48.0041 8.23717 -2
-1 -5 -8 48.0041 8.23717 1
1 -5 -8 38.1044 4.14492 -2
1 5 8 38.1044 4.14492 1
-2 5 9 62.2457 9.22192 -2
-2 -5 -8 62.2457 9.22192 1
2 -5 -9 48.7811 6.13525 -2
2 5 8 48.7811 6.13525 1
-3 5 9 28.536 6.44132 -2
-3 -5 -8 28.536 6.44132 1
3 -5 -9 29.9041 3.01513 -2
3 5 8 29.9041 3.01513 1
-4 5 9 17.4053 6.76564 -2
-4 -5 -8 17.4053 6.76564 1
4 -5 -9 25.9608 2.80347 -2
4 5 8 25.9608 2.80347 1
-2 -6 -7 30.0427 18.5753 -2
-2 6 8 30.0427 18.5753 1
-1 -6 -8 35.9492 17.6454 -2
-1 6 8 35.9492 17.6454 1
0 6 8 10.5406 8.31204 -2
0 -6 -8 10.5406 8.31204 1
0 -6 -8 2.5845 4.01491 -2
0 6 8 2.5845 4.01491 1
-1 6 8 68.5944 12.9651 -2
-1 -6 -8 68.5944 12.9651 1
1 -6 -8 44.3829 11.4163 -2
1 6 8 44.3829 11.4163 1
10 0 6 26.6414 15.2656 -2
-10 0 9 26.6414 15.2656 1
9 0 6 14.765 5.50266 -2
-9 0 9 14.765 5.50266 1
8 0 7 91.9847 14.4472 -2
-8 0 9 91.9847 14.4472 1
7 0 7 49.9273 3.3223 -2
-7 0 9 49.9273 3.3223 1
6 0 7 120.22 3.28993 -2
-6 0 9 120.22 3.28993 1
5 0 7 63.7889 6.06509 -2
-5 0 9 63.7889 6.06509 1
4 0 8 691.864 11.5439 -2
-4 0 9 691.864 11.5439 1
3 0 8 476.878 7.49156 -2
-3 0 9 476.878 7.49156 1
2 0 8 430.119 7.34967 -2
-2 0 9 430.119 7.34967 1
1 0 9 121.881 2.78919 -2
-1 0 9 121.881 2.78919 1
0 0 9 846.969 13.8907 -2
0 0 9 846.969 13.8907 1
-1 0 9 56.5348 2.12915 -2
1 0 9 56.5348 2.12915 1
-2 0 10 372.672 7.76586 -2
2 0 9 372.672 7.76586 1
-3 0 10 218.159 5.4445 -2
3 0 9 218.159 5.4445 1
-4 0 10 188.027 5.64141 -2
4 0 9 188.027 5.64141 1
-5 0 11 28.0952 8.27629 -2
5 0 9 28.0952 8.27629 1
-6 0 11 344.826 11.179 -2
6 0 9 344.826 11.179 1
-7 0 11 108.353 6.40369 -2
7 0 9 108.353 6.40369 1
-9 0 12 14.3005 7.14398 -2
9 0 9 14.3005 7.14398 1
10 1 6 14.679 8.62727 -2
10 -1 -9 14.679 8.62727 1
-10 -1 -6 14.0743 8.93749 -2
-10 1 9 14.0743 8.93749 1
9 1 6 95.845 5.93965 -2
9 -1 -9 95.845 5.93965 1
-9 -1 -6 80.9258 5.96326 -2
-9 1 9 80.9258 5.96326 1
8 1 7 100.283 10.0501 -2
8 -1 -9 100.283 10.0501 1
7 1 7 58.9882 4.14689 -2
7 -1 -9 58.9882 4.14689 1
-7 -1 -7 54.6996 3.23202 -2
-7 1 9 54.6996 3.23202 1
6 1 7 34.1716 2.99715 -2
6 -1 -9 34.1716 2.99715 1
-6 -1 -7 56.2074 2.55253 -2
-6 1 9 56.2074 2.55253 1
5 1 7 608.957 20.8154 -2
5 -1 -9 608.957 20.8154 1
-5 -1 -7 657.936 20.8511 -2
-5 1 9 657.936 20.8511 1
4 1 8 231.977 5.07859 -2
4 -1 -9 231.977 5.07859 1
-4 -1 -8 219.195 4.19782 -2
-4 1 9 219.195 4.19782 1
3 1 8 435.074 7.95729 -2
3 -1 -9 435.074 7.95729 1
-3 -1 -8 448.03 7.22745 -2
-3 1 9 448.03 7.22745 1
2 1 8 948.785 18.0541 -2
2 -1 -9 948.785 18.0541 1
-2 -1 -8 994.693 15.2609 -2
-2 1 9 994.693 15.2609 1
1 1 9 323.443 6.48471 -2
1 -1 -9 323.443 6.48471 1
-1 -1 -9 323.302 5.71237 -2
-1 1 9 323.302 5.71237 1
0 1 9 33.0055 1.32195 -2
0 -1 -9 33.0055 1.32195 1
0 -1 -9 35.0025 1.22805 -2
0 1 9 35.0025 1.22805 1
-1 1 9 500.907 10.3857 -2
-1 -1 -9 500.907 10.3857 1
1 -1 -9 529.426 9.71788 -2
1 1 9 529.426 9.71788 1
-2 1 10 341.053 8.48796 -2
-2 -1 -9 341.053 8.48796 1
2 -1 -10 369.317 9.09669 -2
2 1 9 369.317 9.09669 1
-3 1 10 190.533 4.78032 -2
-3 -1 -9 190.533 4.78032 1
3 -1 -10 161.13 4.52736 -2
3 1 9 161.13 4.52736 1
-4 1 10 301.129 8.03431 -2
-4 -1 -9 301.129 8.03431 1
4 -1 -10 283.588 7.7717 -2
4 1 9 283.588 7.7717 1
-5 1 11 388.583 28.1884 -2
-5 -1 -9 388.583 28.1884 1
5 -1 -11 372.429 15.4214 -2
5 1 9 372.429 15.4214 1
-6 1 11 25.9493 5.18661 -2
-6 -1 -9 25.9493 5.18661 1
6 -1 -11 35.8161 3.58768 -2
6 1 9 35.8161 3.58768 1
-7 1 11 60.0463 6.50002 -2
-7 -1 -9 60.0463 6.50002 1
7 -1 -11 65.8908 4.4189 -2
7 1 9 65.8908 4.4189 1
-8 1 11 79.0558 21.9428 -2
-8 -1 -9 79.0558 21.9428 1
8 -1 -11 93.2187 14.1936 -2
8 1 9 93.2187 14.1936 1
-9 1 12 27.1227 9.18593 -2
-9 -1 -9 27.1227 9.18593 1
9 -1 -12 21.7516 10.5071 -2
9 1 9 21.7516 10.5071 1
9 2 6 12.7998 5.28541 -2
9 -2 -9 12.7998 5.28541 1
-9 -2 -6 9.07235 5.43475 -2
-9 2 9 9.07235 5.43475 1
7 2 7 139.681 5.29552 -2
7 -2 -9 139.681 5.29552 1
-7 -2 -7 120.041 4.52264 -2
-7 2 9 120.041 4.52264 1
6 2 7 250.952 7.34766 -2
6 -2 -9 250.952 7.34766 1
-6 -2 -7 256.985 5.99136 -2
-6 2 9 256.985 5.99136 1
5 2 7 37.5618 4.06707 -2
5 -2 -9 37.5618 4.06707 1
-5 -2 -7 38.6796 6.73795 -2
-5 2 9 38.6796 6.73795 1
4 2 8 537.296 12.5006 -2
4 -2 -9 537.296 12.5006 1
-4 -2 -8 592.614 9.9908 -2
-4 2 9 592.614 9.9908 1
3 2 8 466.701 8.41921 -2
3 -2 -9 466.701 8.41921 1
-3 -2 -8 425.521 7.06833 -2
-3 2 9 425.521 7.06833 1
2 2 8 84.8281 3.00348 -2
2 -2 -9 84.8281 3.00348 1
-2 -2 -8 104.823 3.00965 -2
-2 2 9 104.823 3.00965 1
1 2 9 457.553 8.86121 -2
1 -2 -9 457.553 8.86121 1
-1 -2 -9 397.667 7.85442 -2
-1 2 9 397.667 7.85442 1
0 2 9 581.836 10.2673 -2
0 -2 -9 581.836 10.2673 1
0 -2 -9 586.616 9.16623 -2
0 2 9 586.616 9.16623 1
-1 2 9 275.422 7.11203 -2
-1 -2 -9 275.422 7.11203 1
1 -2 -9 298.881 5.64572 -2
1 2 9 298.881 5.64572 1
-2 2 10 380.715 9.40028 -2
-2 -2 -9 380.715 9.40028 1
2 -2 -10 346.95 8.04833 -2
2 2 9 346.95 8.04833 1
-3 2 10 473.221 12.5731 -2
-3 -2 -9 473.221 12.5731 1
3 -2 -10 476.054 8.78541 -2
3 2 9 476.054 8.78541 1
-4 2 10 143.46 5.65636 -2
-4 -2 -9 143.46 5.65636 1
4 -2 -10 114.406 3.2675 -2
4 2 9 114.406 3.2675 1
-5 2 11 73.1518 7.08744 -2
-5 -2 -9 73.1518 7.08744 1
5 -2 -11 49.6744 4.49781 -2
5 2 9 49.6744 4.49781 1
-6 2 11 190.694 8.57183 -2
-6 -2 -9 190.694 8.57183 1
6 -2 -11 193.468 6.03602 -2
6 2 9 193.468 6.03602 1
-7 2 11 70.7109 7.70911 -2
-7 -2 -9 70.7109 7.70911 1
7 -2 -11 88.5412 5.07609 -2
7 2 9 88.5412 5.07609 1
-8 3 9 4.90143 7.19936 1
7 3 7 14.362 4.52622 -2
7 -3 -9 14.362 4.52622 1
-7 -3 -7 16.6918 3.51493 -2
-7 3 9 16.6918 3.51493 1
6 3 7 105.12 4.99959 -2
6 -3 -9 105.12 4.99959 1
-6 -3 -7 83.4891 3.78839 -2
-6 3 9 83.4891 3.78839 1
5 3 7 208.892 13.0354 -2
5 -3 -9 208.892 13.0354 1
-5 -3 -7 234.716 12.3175 -2
-5 3 9 234.716 12.3175 1
4 3 8 31.6639 3.31097 -2
4 -3 -9 31.6639 3.31097 1
-4 -3 -8 26.1851 2.57791 -2
-4 3 9 26.1851 2.57791 1
3 3 8 231.498 8.18118 -2
3 -3 -9 231.498 8.18118 1
-3 -3 -8 260.515 5.06127 -2
-3 3 9 260.515 5.06127 1
2 3 8 225.639 6.3009 -2
2 -3 -9 225.639 6.3009 1
-2 -3 -8 157.343 5.1501 -2
-2 3 9 157.343 5.1501 1
1 3 9 545.554 16.8656 -2
1 -3 -9 545.554 16.8656 1
-1 -3 -9 505.737 9.90754 -2
-1 3 9 505.737 9.90754 1
0 3 9 125.77 3.17982 -2
0 -3 -9 125.77 3.17982 1
0 -3 -9 112.233 2.59946 -2
0 3 9 112.233 2.59946 1
-1 3 9 537.517 16.0168 -2
-1 -3 -9 537.517 16.0168 1
1 -3 -9 555.693 10.3613 -2
1 3 9 555.693 10.3613 1
-2 3 10 60.9388 4.29372 -2
-2 -3 -9 60.9388 4.29372 1
2 -3 -10 57.2757 2.8618 -2
2 3 9 57.2757 2.8618 1
-3 3 10 109.583 4.72652 -2
-3 -3 -9 109.583 4.72652 1
3 -3 -10 82.5248 2.50892 -2
3 3 9 82.5248 2.50892 1
-4 3 10 163.007 7.05969 -2
-4 -3 -9 163.007 7.05969 1
4 -3 -10 136.688 4.09755 -2
4 3 9 136.688 4.09755 1
-5 3 11 224.262 11.7988 -2
-5 -3 -9 224.262 11.7988 1
5 -3 -11 198.991 7.90565 -2
5 3 9 198.991 7.90565 1
-6 3 11 22.8208 6.74884 -2
-6 -3 -9 22.8208 6.74884 1
6 -3 -11 23.4988 3.33158 -2
6 3 9 23.4988 3.33158 1
-7 3 11 37.9746 12.5704 -2
-7 -3 -9 37.9746 12.5704 1
7 -3 -11 23.1872 4.55231 -2
7 3 9 23.1872 4.55231 1
7 4 7 43.7484 7.45746 -2
7 -4 -9 43.7484 7.45746 1
-7 -4 -7 40.5628 5.18838 -2
-7 4 9 40.5628 5.18838 1
6 4 7 66.2803 6.46809 -2
6 -4 -9 66.2803 6.46809 1
-6 -4 -7 60.7647 4.47012 -2
-6 4 9 60.7647 4.47012 1
5 4 7 28.2796 14.2776 -2
5 -4 -9 28.2796 14.2776 1
-5 -4 -7 40.3163 8.92632 -2
-5 4 9 40.3163 8.92632 1
4 4 8 107.754 5.85172 -2
4 -4 -9 107.754 5.85172 1
-4 -4 -8 119.121 4.55675 -2
-4 4 9 119.121 4.55675 1
3 4 8 5.48902 5.14496 -2
3 -4 -9 5.48902 5.14496 1
-3 -4 -8 12.3128 2.40164 -2
-3 4 9 12.3128 2.40164 1
2 4 8 119.043 9.84802 -2
2 -4 -9 119.043 9.84802 1
-2 -4 -8 119.112 4.92514 -2
-2 4 9 119.112 4.92514 1
1 4 9 5.22401 2.51983 -2
1 -4 -9 5.22401 2.51983 1
-1 -4 -9 19.3368 3.69714 -2
-1 4 9 19.3368 3.69714 1
0 4 9 385.135 11.9739 -2
0 -4 -9 385.135 11.9739 1
0 -4 -9 377.961 6.81202 -2
0 4 9 377.961 6.81202 1
-1 4 9 8.29084 4.67026 -2
-1 -4 -9 8.29084 4.67026 1
1 -4 -9 7.86482 2.50817 -2
1 4 9 7.86482 2.50817 1
-2 4 10 190.637 9.63936 -2
-2 -4 -9 190.637 9.63936 1
2 -4 -10 177.857 5.18028 -2
2 4 9 177.857 5.18028 1
-3 4 10 63.4152 5.21516 -2
-3 -4 -9 63.4152 5.21516 1
3 -4 -10 47.846 2.512 -2
3 4 9 47.846 2.512 1
-4 4 10 57.2682 6.96497 -2
-4 -4 -9 57.2682 6.96497 1
4 -4 -10 49.8962 3.65631 -2
4 4 9 49.8962 3.65631 1
-5 4 11 39.4648 10.9705 -2
-5 -4 -9 39.4648 10.9705 1
5 -4 -11 31.6821 14.2033 -2
5 4 9 31.6821 14.2033 1
-6 4 11 55.7488 12.7373 -2
-6 -4 -9 55.7488 12.7373 1
6 -4 -11 58.0687 5.13547 -2
6 4 9 58.0687 5.13547 1
5 5 7 70.9684 16.0995 -2
5 -5 -9 70.9684 16.0995 1
4 5 8 31.4668 9.35267 -2
4 -5 -9 31.4668 9.35267 1
-4 -5 -8 8.13422 5.58757 -2
-4 5 9 8.13422 5.58757 1
3 5 8 23.8283 7.14832 -2
3 -5 -9 23.8283 7.14832 1
-3 -5 -8 22.3899 3.23379 -2
-3 5 9 22.3899 3.23379 1
2 5 8 82.2547 10.0855 -2
2 -5 -9 82.2547 10.0855 1
-2 -5 -8 90.966 7.66031 -2
-2 5 9 90.966 7.66031 1
1 5 9 73.9316 9.8074 -2
1 -5 -9 73.9316 9.8074 1
-1 -5 -9 87.2397 5.24022 -2
-1 5 9 87.2397 5.24022 1
0 5 9 14.3131 4.95369 -2
0 -5 -9 14.3131 4.95369 1
0 -5 -9 15.4994 2.02653 -2
0 5 9 15.4994 2.02653 1
-1 5 9 94.9263 9.81192 -2
-1 -5 -9 94.9263 9.81192 1
1 -5 -9 86.3702 4.73858 -2
1 5 9 86.3702 4.73858 1
-2 5 10 82.0808 10.362 -2
-2 -5 -9 82.0808 10.362 1
2 -5 -10 76.7691 8.36553 -2
2 5 9 76.7691 8.36553 1
-3 5 10 26.7612 6.71669 -2
-3 -5 -9 26.7612 6.71669 1
3 -5 -10 20.4877 3.67797 -2
3 5 9 20.4877 3.67797 1
-4 5 10 110.308 10.5985 -2
-4 -5 -9 110.308 10.5985 1
4 -5 -10 99.9987 9.16361 -2
4 5 9 99.9987 9.16361 1
-10 0 10 14.7143 10.1011 1
9 0 7 45.5696 7.83048 -2
-9 0 10 45.5696 7.83048 1
8 0 8 123.977 16.4914 -2
-8 0 10 123.977 16.4914 1
7 0 8 22.4773 3.49365 -2
-7 0 10 22.4773 3.49365 1
6 0 8 333.67 7.27153 -2
-6 0 10 333.67 7.27153 1
5 0 8 115.899 5.63556 -2
-5 0 10 115.899 5.63556 1
4 0 9 98.0917 2.87248 -2
-4 0 10 98.0917 2.87248 1
3 0 9 174.064 3.44309 -2
-3 0 10 174.064 3.44309 1
2 0 9 613.122 11.5502 -2
-2 0 10 613.122 11.5502 1
1 0 10 289.73 5.98653 -2
-1 0 10 289.73 5.98653 1
0 0 10 21.199 1.17092 -2
0 0 10 21.199 1.17092 1
-1 0 10 273.989 6.74811 -2
1 0 10 273.989 6.74811 1
-2 0 11 899.137 19.6933 -2
2 0 10 899.137 19.6933 1
-3 0 11 146.268 4.17434 -2
3 0 10 146.268 4.17434 1
-4 0 11 422.031 11.3763 -2
4 0 10 422.031 11.3763 1
-5 0 12 194.994 10.8076 -2
5 0 10 194.994 10.8076 1
-6 0 12 30.1928 5.3133 -2
6 0 10 30.1928 5.3133 1
-7 0 12 31.6953 5.60891 -2
7 0 10 31.6953 5.60891 1
9 1 7 69.4826 6.55121 -2
9 -1 -10 69.4826 6.55121 1
-9 -1 -7 75.46 6.64581 -2
-9 1 10 75.46 6.64581 1
8 1 8 16.377 12.7707 -2
8 -1 -10 16.377 12.7707 1
7 1 8 201.604 6.60991 -2
7 -1 -10 201.604 6.60991 1
-7 -1 -8 189.754 5.57266 -2
-7 1 10 189.754 5.57266 1
6 1 8 77.7687 3.42992 -2
6 -1 -10 77.7687 3.42992 1
-6 -1 -8 79.533 3.04768 -2
-6 1 10 79.533 3.04768 1
5 1 8 154.374 6.82826 -2
5 -1 -10 154.374 6.82826 1
-5 -1 -8 140.695 6.23772 -2
-5 1 10 140.695 6.23772 1
4 1 9 196.66 4.68629 -2
4 -1 -10 196.66 4.68629 1
-4 -1 -9 224.855 4.31215 -2
-4 1 10 224.855 4.31215 1
3 1 9 346.554 7.51062 -2
3 -1 -10 346.554 7.51062 1
-3 -1 -9 405.282 6.3791 -2
-3 1 10 405.282 6.3791 1
2 1 9 204.946 4.89807 -2
2 -1 -10 204.946 4.89807 1
-2 -1 -9 205.267 4.39697 -2
-2 1 10 205.267 4.39697 1
1 1 10 492.524 9.59553 -2
1 -1 -10 492.524 9.59553 1
-1 -1 -10 452.404 8.6803 -2
-1 1 10 452.404 8.6803 1
0 1 10 709.675 11.9594 -2
0 -1 -10 709.675 11.9594 1
0 -1 -10 669.568 11.1931 -2
0 1 10 669.568 11.1931 1
-1 1 10 518.926 11.7658 -2
-1 -1 -10 518.926 11.7658 1
1 -1 -10 584.847 10.9848 -2
1 1 10 584.847 10.9848 1
-2 1 11 175.286 4.83579 -2
-2 -1 -10 175.286 4.83579 1
2 -1 -11 139.942 4.89339 -2
2 1 10 139.942 4.89339 1
-3 1 11 540.446 13.1861 -2
-3 -1 -10 540.446 13.1861 1
3 -1 -11 616.753 12.781 -2
3 1 10 616.753 12.781 1
-4 1 11 159.047 7.70779 -2
-4 -1 -10 159.047 7.70779 1
4 -1 -11 192.086 5.33105 -2
4 1 10 192.086 5.33105 1
-5 1 12 33.6114 9.37243 -2
-5 -1 -10 33.6114 9.37243 1
5 -1 -12 47.8638 6.75253 -2
5 1 10 47.8638 6.75253 1
-6 1 12 123.616 7.00552 -2
-6 -1 -10 123.616 7.00552 1
6 -1 -12 113.142 4.96923 -2
6 1 10 113.142 4.96923 1
-7 1 12 111.55 7.59659 -2
-7 -1 -10 111.55 7.59659 1
7 -1 -12 106.282 6.2101 -2
7 1 10 106.282 6.2101 1
-8 1 12 29.4263 22.2346 -2
-8 -1 -10 29.4263 22.2346 1
8 -1 -12 11.9056 13.06 -2
8 1 10 11.9056 13.06 1
9 2 7 36.0425 6.94709 -2
9 -2 -10 36.0425 6.94709 1
-9 -2 -7 40.3894 5.44595 -2
-9 2 10 40.3894 5.44595 1
8 2 8 95.2302 14.5576 -2
8 -2 -10 95.2302 14.5576 1
7 2 8 27.5673 4.1853 -2
7 -2 -10 27.5673 4.1853 1
-7 -2 -8 22.0919 3.56161 -2
-7 2 10 22.0919 3.56161 1
6 2 8 48.0382 3.80706 -2
6 -2 -10 48.0382 3.80706 1
-6 -2 -8 56.7813 3.23279 -2
-6 2 10 56.7813 3.23279 1
5 2 8 175.921 6.32819 -2
5 -2 -10 175.921 6.32819 1
-5 -2 -8 155.098 6.93721 -2
-5 2 10 155.098 6.93721 1
4 2 9 173.876 6.44961 -2
4 -2 -10 173.876 6.44961 1
-4 -2 -9 197.184 4.42886 -2
-4 2 10 197.184 4.42886 1
3 2 9 241.605 7.21514 -2
3 -2 -10 241.605 7.21514 1
-3 -2 -9 243.704 4.39275 -2
-3 2 10 243.704 4.39275 1
2 2 9 450.567 9.17021 -2
2 -2 -10 450.567 9.17021 1
-2 -2 -9 478.506 9.41499 -2
-2 2 10 478.506 9.41499 1
1 2 10 493.454 10.8493 -2
1 -2 -10 493.454 10.8493 1
-1 -2 -10 504.173 10.0957 -2
-1 2 10 504.173 10.0957 1
0 2 10 37.1819 1.92844 -2
0 -2 -10 37.1819 1.92844 1
0 -2 -10 38.5221 1.577 -2
0 2 10 38.5221 1.577 1
-1 2 10 527.845 11.5366 -2
-1 -2 -10 527.845 11.5366 1
1 -2 -10 470.964 9.86853 -2
1 2 10 470.964 9.86853 1
-2 2 11 497.805 13.7092 -2
-2 -2 -10 497.805 13.7092 1
2 -2 -11 518.087 11.6258 -2
2 2 10 518.087 11.6258 1
-3 2 11 79.1027 3.58811 -2
-3 -2 -10 79.1027 3.58811 1
3 -2 -11 78.041 2.73985 -2
3 2 10 78.041 2.73985 1
-4 2 11 149.941 6.93624 -2
-4 -2 -10 149.941 6.93624 1
4 -2 -11 185.886 4.89231 -2
4 2 10 185.886 4.89231 1
-5 2 12 209.128 17.477 -2
-5 -2 -10 209.128 17.477 1
5 -2 -12 208.496 8.27837 -2
5 2 10 208.496 8.27837 1
-6 2 12 47.2415 6.58835 -2
-6 -2 -10 47.2415 6.58835 1
6 -2 -12 47.8926 4.32734 -2
6 2 10 47.8926 4.32734 1
-7 2 12 26.2259 8.17067 -2
-7 -2 -10 26.2259 8.17067 1
7 -2 -12 23.5606 5.05513 -2
7 2 10 23.5606 5.05513 1
8 -2 -12 52.263 17.9448 -2
8 2 10 52.263 17.9448 1
7 3 8 63.4663 5.25988 -2
7 -3 -10 63.4663 5.25988 1
-7 -3 -8 73.2174 4.2519 -2
-7 3 10 73.2174 4.2519 1
6 3 8 97.7848 5.26675 -2
6 -3 -10 97.7848 5.26675 1
-6 -3 -8 88.2159 3.86068 -2
-6 3 10 88.2159 3.86068 1
-5 -3 -8 23.1542 12.2812 -2
-5 3 10 23.1542 12.2812 1
4 3 9 199.476 6.89522 -2
4 -3 -10 199.476 6.89522 1
-4 -3 -9 197.673 4.87061 -2
-4 3 10 197.673 4.87061 1
3 3 9 204.848 6.56571 -2
3 -3 -10 204.848 6.56571 1
-3 -3 -9 213.726 4.47441 -2
-3 3 10 213.726 4.47441 1
2 3 9 30.9328 4.22021 -2
2 -3 -10 30.9328 4.22021 1
-2 -3 -9 28.847 2.89697 -2
-2 3 10 28.847 2.89697 1
1 3 10 245.368 9.82907 -2
1 -3 -10 245.368 9.82907 1
-1 -3 -10 281.293 6.19844 -2
-1 3 10 281.293 6.19844 1
0 3 10 319.153 7.67374 -2
0 -3 -10 319.153 7.67374 1
0 -3 -10 266.767 5.48003 -2
0 3 10 266.767 5.48003 1
-1 3 10 233.211 7.19346 -2
-1 -3 -10 233.211 7.19346 1
1 -3 -10 188.742 5.07524 -2
1 3 10 188.742 5.07524 1
-2 3 11 125.976 5.8422 -2
-2 -3 -10 125.976 5.8422 1
2 -3 -11 81.1851 3.71384 -2
2 3 10 81.1851 3.71384 1
-3 3 11 242.055 8.53735 -2
-3 -3 -10 242.055 8.53735 1
3 -3 -11 279.177 5.56333 -2
3 3 10 279.177 5.56333 1
-4 3 11 56.5383 5.43792 -2
-4 -3 -10 56.5383 5.43792 1
4 -3 -11 47.083 3.36303 -2
4 3 10 47.083 3.36303 1
-5 3 12 49.5407 10.1304 -2
-5 -3 -10 49.5407 10.1304 1
5 -3 -12 61.5384 8.85791 -2
5 3 10 61.5384 8.85791 1
-6 3 12 82.3427 10.2939 -2
-6 -3 -10 82.3427 10.2939 1
6 -3 -12 53.5093 3.9303 -2
6 3 10 53.5093 3.9303 1
7 -3 -12 41.482 10.3385 -2
7 3 10 41.482 10.3385 1
7 4 8 24.1805 17.5643 -2
7 -4 -10 24.1805 17.5643 1
-7 -4 -8 21.0488 5.71349 -2
-7 4 10 21.0488 5.71349 1
6 4 8 31.7375 6.15176 -2
6 -4 -10 31.7375 6.15176 1
-6 -4 -8 21.7625 4.07763 -2
-6 4 10 21.7625 4.07763 1
-5 -4 -8 144.202 11.1238 -2
-5 4 10 144.202 11.1238 1
4 4 9 40.7657 4.79791 -2
4 -4 -10 40.7657 4.79791 1
-4 -4 -9 51.1954 4.46662 -2
-4 4 10 51.1954 4.46662 1
3 4 9 58.0408 6.42855 -2
3 -4 -10 58.0408 6.42855 1
-3 -4 -9 63.0607 3.05832 -2
-3 4 10 63.0607 3.05832 1
2 4 9 246.147 14.6916 -2
2 -4 -10 246.147 14.6916 1
-2 -4 -9 244.858 7.15163 -2
-2 4 10 244.858 7.15163 1
1 4 10 63.7649 8.70242 -2
1 -4 -10 63.7649 8.70242 1
-1 -4 -10 50.9613 3.94177 -2
-1 4 10 50.9613 3.94177 1
0 4 10 42.0528 5.03016 -2
0 -4 -10 42.0528 5.03016 1
0 -4 -10 41.6936 2.17376 -2
0 4 10 41.6936 2.17376 1
-1 4 10 84.3758 6.31193 -2
-1 -4 -10 84.3758 6.31193 1
1 -4 -10 67.2936 4.07612 -2
1 4 10 67.2936 4.07612 1
-2 4 11 115.586 8.45635 -2
-2 -4 -10 115.586 8.45635 1
2 -4 -11 137.854 5.53983 -2
2 4 10 137.854 5.53983 1
-3 4 11 49.9693 5.30128 -2
-3 -4 -10 49.9693 5.30128 1
3 -4 -11 37.9097 2.80601 -2
3 4 10 37.9097 2.80601 1
-4 4 11 85.902 7.79 -2
-4 -4 -10 85.902 7.79 1
4 -4 -11 85.5654 4.46696 -2
4 4 10 85.5654 4.46696 1
-5 4 12 67.4021 12.0023 -2
-5 -4 -10 67.4021 12.0023 1
5 4 10 12.8014 7.97736 1
-6 4 12 16.8255 11.9296 -2
-6 -4 -10 16.8255 11.9296 1
6 -4 -12 7.63002 6.76129 -2
6 4 10 7.63002 6.76129 1
4 5 9 91.5431 15.6072 -2
4 -5 -10 91.5431 15.6072 1
-4 -5 -9 80.3601 8.90756 -2
-4 5 10 80.3601 8.90756 1
3 5 9 53.3785 8.18166 -2
3 -5 -10 53.3785 8.18166 1
-3 -5 -9 47.4335 3.99991 -2
-3 5 10 47.4335 3.99991 1
2 5 9 44.7338 9.587 -2
2 -5 -10 44.7338 9.587 1
-2 -5 -9 33.3182 8.04074 -2
-2 5 10 33.3182 8.04074 1
1 5 10 41.6253 9.5955 -2
1 -5 -10 41.6253 9.5955 1
-1 -5 -10 43.6756 4.96874 -2
-1 5 10 43.6756 4.96874 1
0 5 10 155.816 10.7018 -2
0 -5 -10 155.816 10.7018 1
0 -5 -10 156.592 4.35627 -2
0 5 10 156.592 4.35627 1
-1 5 10 27.391 9.17669 -2
-1 -5 -10 27.391 9.17669 1
1 -5 -10 29.7515 5.11396 -2
1 5 10 29.7515 5.11396 1
-2 5 11 11.3946 9.87357 -2
-2 -5 -10 11.3946 9.87357 1
2 -5 -11 3.25194 8.26938 -2
2 5 10 3.25194 8.26938 1
-3 5 11 32.9472 7.07465 -2
-3 -5 -10 32.9472 7.07465 1
3 -5 -11 21.0226 5.52447 -2
3 5 10 21.0226 5.52447 1
-4 5 11 55.2802 13.9834 -2
-4 -5 -10 55.2802 13.9834 1
4 -5 -11 34.6394 18.7685 -2
4 5 10 34.6394 18.7685 1
9 0 8 29.4702 6.93411 -2
-9 0 11 29.4702 6.93411 1
8 0 9 4.50412 14.4728 -2
-8 0 11 4.50412 14.4728 1
7 0 9 198.524 6.15065 -2
-7 0 11 198.524 6.15065 1
6 0 9 234.323 5.95286 -2
-6 0 11 234.323 5.95286 1
5 0 9 22.2534 4.89079 -2
-5 0 11 22.2534 4.89079 1
4 0 10 338.6 7.2666 -2
-4 0 11 338.6 7.2666 1
3 0 10 345.118 6.09536 -2
-3 0 11 345.118 6.09536 1
2 0 10 431.966 8.53945 -2
-2 0 11 431.966 8.53945 1
1 0 11 219.763 4.95758 -2
-1 0 11 219.763 4.95758 1
0 0 11 1015.37 17.8826 -2
0 0 11 1015.37 17.8826 1
-1 0 11 183.582 5.20063 -2
1 0 11 183.582 5.20063 1
-2 0 12 235.732 6.47631 -2
2 0 11 235.732 6.47631 1
-3 0 12 382.49 8.7824 -2
3 0 11 382.49 8.7824 1
-4 0 12 326.148 10.7594 -2
4 0 11 326.148 10.7594 1
-5 0 13 33.4126 16.4917 -2
5 0 11 33.4126 16.4917 1
-6 0 13 182.734 8.72945 -2
6 0 11 182.734 8.72945 1
-7 0 13 65.3941 6.42639 -2
7 0 11 65.3941 6.42639 1
-8 0 13 8.61567 20.0593 -2
8 0 11 8.61567 20.0593 1
9 1 8 44.1243 8.09394 -2
9 -1 -11 44.1243 8.09394 1
-9 -1 -8 36.0575 10.2643 -2
-9 1 11 36.0575 10.2643 1
8 1 9 87.3569 15.1908 -2
8 -1 -11 87.3569 15.1908 1
7 1 9 45.5233 4.56636 -2
7 -1 -11 45.5233 4.56636 1
-7 -1 -9 53.559 4.21478 -2
-7 1 11 53.559 4.21478 1
6 1 9 32.1456 3.42406 -2
6 -1 -11 32.1456 3.42406 1
-6 -1 -9 30.264 3.23353 -2
-6 1 11 30.264 3.23353 1
5 1 9 382.03 11.4535 -2
5 -1 -11 382.03 11.4535 1
-5 -1 -9 360.494 9.83926 -2
-5 1 11 360.494 9.83926 1
4 1 10 146.369 4.25451 -2
4 -1 -11 146.369 4.25451 1
-4 -1 -10 115.673 3.79673 -2
-4 1 11 115.673 3.79673 1
3 1 10 391.96 7.8384 -2
3 -1 -11 391.96 7.8384 1
-3 -1 -10 351.059 6.97638 -2
-3 1 11 351.059 6.97638 1
2 1 10 225.055 5.56882 -2
2 -1 -11 225.055 5.56882 1
-2 -1 -10 235.413 4.91949 -2
-2 1 11 235.413 4.91949 1
1 1 11 437.802 9.55893 -2
1 -1 -11 437.802 9.55893 1
-1 -1 -11 492.172 8.73372 -2
-1 1 11 492.172 8.73372 1
0 1 11 108.076 2.81155 -2
0 -1 -11 108.076 2.81155 1
0 -1 -11 109.808 2.61357 -2
0 1 11 109.808 2.61357 1
-1 1 11 484.709 10.7675 -2
-1 -1 -11 484.709 10.7675 1
1 -1 -11 453.436 9.48901 -2
1 1 11 453.436 9.48901 1
-2 1 12 484.434 11.224 -2
-2 -1 -11 484.434 11.224 1
2 -1 -12 414.613 11.3126 -2
2 1 11 414.613 11.3126 1
-3 1 12 224.938 7.57169 -2
-3 -1 -11 224.938 7.57169 1
3 -1 -12 226.364 5.85161 -2
3 1 11 226.364 5.85161 1
-4 1 12 192.661 8.00205 -2
-4 -1 -11 192.661 8.00205 1
4 -1 -12 168.066 5.3858 -2
4 1 11 168.066 5.3858 1
-5 1 13 247.06 14.8743 -2
-5 -1 -11 247.06 14.8743 1
5 -1 -13 250.332 12.2341 -2
5 1 11 250.332 12.2341 1
-6 1 13 34.0426 5.88364 -2
-6 -1 -11 34.0426 5.88364 1
6 -1 -13 27.9036 6.98218 -2
6 1 11 27.9036 6.98218 1
-7 1 13 23.4007 7.2544 -2
-7 -1 -11 23.4007 7.2544 1
7 -1 -13 16.7759 6.18346 -2
7 1 11 16.7759 6.18346 1
8 -1 -13 50.6163 19.3493 -2
8 1 11 50.6163 19.3493 1
9 2 8 5.64325 7.77963 -2
9 -2 -11 5.64325 7.77963 1
-9 -2 -8 26.8196 9.28259 -2
-9 2 11 26.8196 9.28259 1
7 2 9 77.9584 4.9225 -2
7 -2 -11 77.9584 4.9225 1
-7 -2 -9 74.5047 4.53173 -2
-7 2 11 74.5047 4.53173 1
6 2 9 175.065 6.08546 -2
6 -2 -11 175.065 6.08546 1
-6 -2 -9 177.018 5.5738 -2
-6 2 11 177.018 5.5738 1
5 2 9 24.2575 7.25717 -2
5 -2 -11 24.2575 7.25717 1
-5 -2 -9 27.3898 6.39594 -2
-5 2 11 27.3898 6.39594 1
4 2 10 161.283 5.36876 -2
4 -2 -11 161.283 5.36876 1
-4 -2 -10 135.045 4.37808 -2
-4 2 11 135.045 4.37808 1
3 2 10 73.3336 4.18795 -2
3 -2 -11 73.3336 4.18795 1
-3 -2 -10 78.8632 2.57113 -2
-3 2 11 78.8632 2.57113 1
2 2 10 330.426 8.28353 -2
2 -2 -11 330.426 8.28353 1
-2 -2 -10 329.533 6.95285 -2
-2 2 11 329.533 6.95285 1
1 2 11 78.2465 4.50225 -2
1 -2 -11 78.2465 4.50225 1
-1 -2 -11 118.749 3.4873 -2
-1 2 11 118.749 3.4873 1
0 2 11 495.239 10.97 -2
0 -2 -11 495.239 10.97 1
0 -2 -11 510.351 9.0793 -2
0 2 11 510.351 9.0793 1
-1 2 11 152.35 6.34413 -2
-1 -2 -11 152.35 6.34413 1
1 -2 -11 112.333 3.88795 -2
1 2 11 112.333 3.88795 1
-2 2 12 169.499 7.51597 -2
-2 -2 -11 169.499 7.51597 1
2 -2 -12 158.486 5.8832 -2
2 2 11 158.486 5.8832 1
-3 2 12 175.052 6.71614 -2
-3 -2 -11 175.052 6.71614 1
3 -2 -12 157.772 4.3821 -2
3 2 11 157.772 4.3821 1
-4 2 12 164.627 8.83262 -2
-4 -2 -11 164.627 8.83262 1
4 -2 -12 155.42 5.86137 -2
4 2 11 155.42 5.86137 1
-5 2 13 14.4769 11.5925 -2
-5 -2 -11 14.4769 11.5925 1
5 -2 -13 14.9319 6.64771 -2
5 2 11 14.9319 6.64771 1
-6 2 13 65.7336 7.4331 -2
-6 -2 -11 65.7336 7.4331 1
6 -2 -13 71.4512 4.50111 -2
6 2 11 71.4512 4.50111 1
-7 2 13 58.9809 8.98273 -2
-7 -2 -11 58.9809 8.98273 1
7 -2 -13 47.4287 5.39265 -2
7 2 11 47.4287 5.39265 1
7 3 9 23.7671 5.25833 -2
7 -3 -11 23.7671 5.25833 1
-7 -3 -9 20.3175 4.26499 -2
-7 3 11 20.3175 4.26499 1
6 3 9 35.3397 4.67148 -2
6 -3 -11 35.3397 4.67148 1
-6 -3 -9 32.8207 3.80354 -2
-6 3 11 32.8207 3.80354 1
-5 -3 -9 189.444 13.3371 -2
-5 3 11 189.444 13.3371 1
4 3 10 62.3922 4.87221 -2
4 -3 -11 62.3922 4.87221 1
-4 -3 -10 71.2257 3.97305 -2
-4 3 11 71.2257 3.97305 1
3 3 10 132.635 5.35549 -2
3 -3 -11 132.635 5.35549 1
-3 -3 -10 121.407 3.32948 -2
-3 3 11 121.407 3.32948 1
2 3 10 129.438 7.14419 -2
2 -3 -11 129.438 7.14419 1
-2 -3 -10 162.288 4.83141 -2
-2 3 11 162.288 4.83141 1
1 3 11 382.127 13.4693 -2
1 -3 -11 382.127 13.4693 1
-1 -3 -11 385.143 8.30677 -2
-1 3 11 385.143 8.30677 1
0 3 11 4.49274 2.08167 -2
0 -3 -11 4.49274 2.08167 1
0 -3 -11 4.7589 1.32586 -2
0 3 11 4.7589 1.32586 1
-1 3 11 435.102 13.588 -2
-1 -3 -11 435.102 13.588 1
1 -3 -11 457.791 9.37558 -2
1 3 11 457.791 9.37558 1
-2 3 12 154.161 6.47477 -2
-2 -3 -11 154.161 6.47477 1
2 -3 -12 130.679 5.58533 -2
2 3 11 130.679 5.58533 1
-3 3 12 74.5532 4.13826 -2
-3 -3 -11 74.5532 4.13826 1
3 -3 -12 54.8866 3.21033 -2
3 3 11 54.8866 3.21033 1
-4 3 12 54.1076 5.88937 -2
-4 -3 -11 54.1076 5.88937 1
4 -3 -12 46.5726 4.31899 -2
4 3 11 46.5726 4.31899 1
5 -3 -13 180.097 9.11853 -2
5 3 11 180.097 9.11853 1
-6 3 13 27.7809 12.6576 -2
-6 -3 -11 27.7809 12.6576 1
6 -3 -13 29.2777 4.35583 -2
6 3 11 29.2777 4.35583 1
7 -3 -13 16.6972 10.5324 -2
7 3 11 16.6972 10.5324 1
6 4 9 45.1776 7.25001 -2
6 -4 -11 45.1776 7.25001 1
-6 -4 -9 42.1997 6.07507 -2
-6 4 11 42.1997 6.07507 1
-5 -4 -9 12.2956 11.5384 -2
-5 4 11 12.2956 11.5384 1
4 4 10 112.189 6.88995 -2
4 -4 -11 112.189 6.88995 1
-4 -4 -10 83.3854 5.67926 -2
-4 4 11 83.3854 5.67926 1
3 4 10 94.9438 5.70548 -2
3 -4 -11 94.9438 5.70548 1
-3 -4 -10 92.1477 3.52365 -2
-3 4 11 92.1477 3.52365 1
2 4 10 83.0585 5.76769 -2
2 -4 -11 83.0585 5.76769 1
-2 -4 -10 74.548 4.91303 -2
-2 4 11 74.548 4.91303 1
1 4 11 44.9517 9.29494 -2
1 -4 -11 44.9517 9.29494 1
-1 -4 -11 49.3069 4.2457 -2
-1 4 11 49.3069 4.2457 1
0 4 11 311.036 11.7225 -2
0 -4 -11 311.036 11.7225 1
0 -4 -11 294.029 6.58669 -2
0 4 11 294.029 6.58669 1
-1 4 11 88.4856 9.47142 -2
-1 -4 -11 88.4856 9.47142 1
1 -4 -11 59.4087 4.32959 -2
1 4 11 59.4087 4.32959 1
-2 4 12 103.316 8.36888 -2
-2 -4 -11 103.316 8.36888 1
2 -4 -12 93.1749 5.33709 -2
2 4 11 93.1749 5.33709 1
-3 4 12 48.4137 5.56767 -2
-3 -4 -11 48.4137 5.56767 1
3 -4 -12 38.6051 2.98497 -2
3 4 11 38.6051 2.98497 1
-4 4 12 83.0292 8.027 -2
-4 -4 -11 83.0292 8.027 1
4 -4 -12 70.0682 4.88422 -2
4 4 11 70.0682 4.88422 1
5 -4 -13 4.45773 11.2283 -2
5 4 11 4.45773 11.2283 1
5 -4 -12 46.916 19.5808 -2
5 -4 -13 46.916 19.5808 -2
5 4 11 46.916 19.5808 1
-4 -5 -10 31.8536 11.1649 -2
-4 5 11 31.8536 11.1649 1
3 5 10 21.9039 10.2308 -2
3 -5 -11 21.9039 10.2308 1
-3 -5 -10 24.0142 4.43741 -2
-3 5 11 24.0142 4.43741 1
2 5 10 17.4361 9.9662 -2
2 -5 -11 17.4361 9.9662 1
-2 -5 -10 10.1086 6.72599 -2
-2 5 11 10.1086 6.72599 1
1 5 11 41.864 10.1261 -2
1 -5 -11 41.864 10.1261 1
-1 -5 -11 35.0976 5.37755 -2
-1 5 11 35.0976 5.37755 1
0 5 11 4.53562 5.44907 -2
0 -5 -11 4.53562 5.44907 1
0 -5 -11 1.13293 2.58817 -2
0 5 11 1.13293 2.58817 1
-1 5 11 37.4228 9.87187 -2
-1 -5 -11 37.4228 9.87187 1
1 -5 -11 30.1845 5.78382 -2
1 5 11 30.1845 5.78382 1
-2 5 12 83.3381 16.902 -2
-2 -5 -11 83.3381 16.902 1
2 -5 -12 40.9524 13.6758 -2
2 5 11 40.9524 13.6758 1
-3 5 12 37.1954 10.6037 -2
-3 -5 -11 37.1954 10.6037 1
3 -5 -12 14.9413 8.9651 -2
3 5 11 14.9413 8.9651 1
9 0 9 19.8356 10.7637 -2
-9 0 12 19.8356 10.7637 1
8 0 10 79.7315 16.7388 -2
-8 0 12 79.7315 16.7388 1
7 0 10 50.7557 4.84888 -2
-7 0 12 50.7557 4.84888 1
6 0 10 35.14 3.74379 -2
-6 0 12 35.14 3.74379 1
5 0 10 342.37 12.43 -2
-5 0 12 342.37 12.43 1
4 0 11 248.959 6.56342 -2
-4 0 12 248.959 6.56342 1
3 0 11 181.157 4.15368 -2
-3 0 12 181.157 4.15368 1
2 0 11 335.273 7.65443 -2
-2 0 12 335.273 7.65443 1
1 0 12 575.89 11.5552 -2
-1 0 12 575.89 11.5552 1
0 0 12 6.08751 1.54065 -2
0 0 12 6.08751 1.54065 1
-1 0 12 313.7 8.5265 -2
1 0 12 313.7 8.5265 1
-2 0 13 149.523 5.75976 -2
2 0 12 149.523 5.75976 1
-3 0 13 251.033 7.42432 -2
3 0 12 251.033 7.42432 1
-4 0 13 43.3762 4.41795 -2
4 0 12 43.3762 4.41795 1
-5 0 14 408.476 22.3395 -2
5 0 12 408.476 22.3395 1
-6 0 14 83.6925 6.8674 -2
6 0 12 83.6925 6.8674 1
-7 0 14 26.3949 7.5383 -2
7 0 12 26.3949 7.5383 1
9 1 9 24.2601 17.5735 -2
9 -1 -12 24.2601 17.5735 1
-9 -1 -9 27.4763 15.6802 -2
-9 1 12 27.4763 15.6802 1
7 1 10 108.176 5.64373 -2
7 -1 -12 108.176 5.64373 1
-7 -1 -10 115.349 5.15253 -2
-7 1 12 115.349 5.15253 1
6 1 10 160.285 5.46391 -2
6 -1 -12 160.285 5.46391 1
-6 -1 -10 164.578 5.12009 -2
-6 1 12 164.578 5.12009 1
5 1 10 24.0493 5.57769 -2
5 -1 -12 24.0493 5.57769 1
-5 -1 -10 18.3703 4.76681 -2
-5 1 12 18.3703 4.76681 1
4 1 11 146.301 6.02669 -2
4 -1 -12 146.301 6.02669 1
-4 -1 -11 171.003 4.82479 -2
-4 1 12 171.003 4.82479 1
3 1 11 433.195 11.3778 -2
3 -1 -12 433.195 11.3778 1
-3 -1 -11 424.179 8.08797 -2
-3 1 12 424.179 8.08797 1
2 1 11 302.348 8.79458 -2
2 -1 -12 302.348 8.79458 1
-2 -1 -11 307.217 6.79525 -2
-2 1 12 307.217 6.79525 1
1 1 12 197.729 6.12879 -2
1 -1 -12 197.729 6.12879 1
-1 -1 -12 169.521 4.70348 -2
-1 1 12 169.521 4.70348 1
0 1 12 370.34 8.1337 -2
0 -1 -12 370.34 8.1337 1
0 -1 -12 358.613 7.09219 -2
0 1 12 358.613 7.09219 1
-1 1 12 94.8323 4.5675 -2
-1 -1 -12 94.8323 4.5675 1
1 -1 -12 121.645 4.39169 -2
1 1 12 121.645 4.39169 1
-2 1 13 77.2966 4.60973 -2
-2 -1 -12 77.2966 4.60973 1
2 -1 -13 78.9939 4.61073 -2
2 1 12 78.9939 4.61073 1
-3 1 13 65.3219 3.43873 -2
-3 -1 -12 65.3219 3.43873 1
3 -1 -13 54.2416 3.42018 -2
3 1 12 54.2416 3.42018 1
-4 1 13 302.441 9.8875 -2
-4 -1 -12 302.441 9.8875 1
4 -1 -13 271.198 8.98333 -2
4 1 12 271.198 8.98333 1
-5 1 14 27.9786 10.171 -2
-5 -1 -12 27.9786 10.171 1
5 -1 -14 27.685 8.12344 -2
5 1 12 27.685 8.12344 1
-6 1 14 152.301 8.46611 -2
-6 -1 -12 152.301 8.46611 1
6 -1 -14 149.316 7.16147 -2
6 1 12 149.316 7.16147 1
-7 1 14 86.1479 8.55132 -2
-7 -1 -12 86.1479 8.55132 1
7 -1 -14 65.9482 8.61754 -2
7 1 12 65.9482 8.61754 1
-8 -2 -9 71.5015 19.858 -2
-8 2 12 71.5015 19.858 1
7 2 10 20.0155 4.70158 -2
7 -2 -12 20.0155 4.70158 1
-7 -2 -10 34.703 4.47084 -2
-7 2 12 34.703 4.47084 1
6 2 10 52.9248 4.31664 -2
6 -2 -12 52.9248 4.31664 1
-6 -2 -10 54.7332 4.14212 -2
-6 2 12 54.7332 4.14212 1
5 2 10 150.407 14.3948 -2
5 -2 -12 150.407 14.3948 1
-5 -2 -10 177.986 9.47801 -2
-5 2 12 177.986 9.47801 1
4 2 11 155.144 6.20249 -2
4 -2 -12 155.144 6.20249 1
-4 -2 -11 166.006 4.82091 -2
-4 2 12 166.006 4.82091 1
3 2 11 76.4777 4.58595 -2
3 -2 -12 76.4777 4.58595 1
-3 -2 -11 91.1645 3.04627 -2
-3 2 12 91.1645 3.04627 1
2 2 11 316.508 11.0435 -2
2 -2 -12 316.508 11.0435 1
-2 -2 -11 300.666 6.6666 -2
-2 2 12 300.666 6.6666 1
1 2 12 109.502 6.18395 -2
1 -2 -12 109.502 6.18395 1
-1 -2 -12 126.846 4.07265 -2
-1 2 12 126.846 4.07265 1
0 2 12 5.67908 2.5172 -2
0 -2 -12 5.67908 2.5172 1
0 -2 -12 8.41423 1.63457 -2
0 2 12 8.41423 1.63457 1
-1 2 12 93.1809 5.57624 -2
-1 -2 -12 93.1809 5.57624 1
1 -2 -12 83.1932 3.92643 -2
1 2 12 83.1932 3.92643 1
-2 2 13 96.0297 6.43356 -2
-2 -2 -12 96.0297 6.43356 1
2 -2 -13 105.176 4.62202 -2
2 2 12 105.176 4.62202 1
-3 2 13 73.1697 4.81488 -2
-3 -2 -12 73.1697 4.81488 1
3 -2 -13 72.1484 3.21366 -2
3 2 12 72.1484 3.21366 1
-4 2 13 83.331 7.15758 -2
-4 -2 -12 83.331 7.15758 1
4 -2 -13 69.2252 4.86079 -2
4 2 12 69.2252 4.86079 1
-5 2 14 117.197 15.1733 -2
-5 -2 -12 117.197 15.1733 1
5 -2 -14 123.955 7.049 -2
5 2 12 123.955 7.049 1
-6 2 14 16.6289 8.12088 -2
-6 -2 -12 16.6289 8.12088 1
6 -2 -14 17.8861 4.48004 -2
6 2 12 17.8861 4.48004 1
-7 2 14 26.4803 11.9764 -2
-7 -2 -12 26.4803 11.9764 1
7 -2 -14 11.1818 8.56249 -2
7 2 12 11.1818 8.56249 1
7 3 10 41.2335 7.2323 -2
7 -3 -12 41.2335 7.2323 1
-7 -3 -10 27.7765 4.80892 -2
-7 3 12 27.7765 4.80892 1
6 3 10 111.371 6.16056 -2
6 -3 -12 111.371 6.16056 1
-6 -3 -10 123.494 5.17597 -2
-6 3 12 123.494 5.17597 1
-5 -3 -10 36.4208 6.63374 -2
-5 3 12 36.4208 6.63374 1
4 3 11 79.2568 5.56136 -2
4 -3 -12 79.2568 5.56136 1
-4 -3 -11 87.2023 4.32312 -2
-4 3 12 87.2023 4.32312 1
3 3 11 126.66 5.79893 -2
3 -3 -12 126.66 5.79893 1
-3 -3 -11 134.915 4.07115 -2
-3 3 12 134.915 4.07115 1
2 3 11 89.2389 7.44244 -2
2 -3 -12 89.2389 7.44244 1
-2 -3 -11 114.185 4.38946 -2
-2 3 12 114.185 4.38946 1
1 3 12 72.0755 6.97669 -2
1 -3 -12 72.0755 6.97669 1
-1 -3 -12 80.8874 4.03948 -2
-1 3 12 80.8874 4.03948 1
0 3 12 177.594 5.77869 -2
0 -3 -12 177.594 5.77869 1
0 -3 -12 190.043 4.36767 -2
0 3 12 190.043 4.36767 1
-1 3 12 161.496 6.51535 -2
-1 -3 -12 161.496 6.51535 1
1 -3 -12 145.045 4.70401 -2
1 3 12 145.045 4.70401 1
-2 3 13 93.1718 6.37309 -2
-2 -3 -12 93.1718 6.37309 1
2 -3 -13 77.22 5.16852 -2
2 3 12 77.22 5.16852 1
-3 3 13 151.753 6.78104 -2
-3 -3 -12 151.753 6.78104 1
3 -3 -13 162.133 4.78339 -2
3 3 12 162.133 4.78339 1
-4 3 13 85.7172 6.53017 -2
-4 -3 -12 85.7172 6.53017 1
4 -3 -13 84.9719 4.9591 -2
4 3 12 84.9719 4.9591 1
5 -3 -14 4.27415 6.52816 -2
5 3 12 4.27415 6.52816 1
6 -3 -14 35.2418 5.93093 -2
6 3 12 35.2418 5.93093 1
6 4 10 35.0116 17.582 -2
6 -4 -12 35.0116 17.582 1
-6 -4 -10 8.69016 8.69872 -2
-6 4 12 8.69016 8.69872 1
-5 -4 -10 107.554 17.9656 -2
-5 4 12 107.554 17.9656 1
4 4 11 65.5679 6.6462 -2
4 -4 -12 65.5679 6.6462 1
-4 -4 -11 75.7539 5.81842 -2
-4 4 12 75.7539 5.81842 1
3 4 11 18.0781 4.54656 -2
3 -4 -12 18.0781 4.54656 1
-3 -4 -11 27.2049 3.27073 -2
-3 4 12 27.2049 3.27073 1
2 4 11 89.4586 7.74804 -2
2 -4 -12 89.4586 7.74804 1
-2 -4 -11 90.0919 4.9956 -2
-2 4 12 90.0919 4.9956 1
1 4 12 128.996 16.6761 -2
1 -4 -12 128.996 16.6761 1
-1 -4 -12 116.44 5.57217 -2
-1 4 12 116.44 5.57217 1
0 4 12 26.3094 5.9408 -2
0 -4 -12 26.3094 5.9408 1
0 -4 -12 27.7253 2.57227 -2
0 4 12 27.7253 2.57227 1
-1 4 12 98.1767 10.2878 -2
-1 -4 -12 98.1767 10.2878 1
1 -4 -12 71.9645 5.11456 -2
1 4 12 71.9645 5.11456 1
-2 4 13 174.782 12.5731 -2
-2 -4 -12 174.782 12.5731 1
2 -4 -13 171.335 7.72588 -2
2 4 12 171.335 7.72588 1
-3 4 13 87.2243 8.0706 -2
-3 -4 -12 87.2243 8.0706 1
3 -4 -13 70.8868 3.52102 -2
3 4 12 70.8868 3.52102 1
-4 4 13 62.181 14.5465 -2
-4 -4 -12 62.181 14.5465 1
4 -4 -13 56.3478 6.63858 -2
4 4 12 56.3478 6.63858 1
-3 -5 -11 46.1376 8.81949 -2
-3 5 12 46.1376 8.81949 1
-2 -5 -11 41.0802 8.31118 -2
-2 5 12 41.0802 8.31118 1
1 5 12 35.1336 14.357 -2
1 -5 -12 35.1336 14.357 1
-1 -5 -12 32.2572 7.99407 -2
-1 5 12 32.2572 7.99407 1
0 5 12 43.7521 9.24487 -2
0 -5 -12 43.7521 9.24487 1
0 -5 -12 36.8258 6.36409 -2
0 5 12 36.8258 6.36409 1
-1 5 12 55.0537 15.3692 -2
-1 -5 -12 55.0537 15.3692 1
1 -5 -12 33.5164 12.2785 -2
1 5 12 33.5164 12.2785 1
8 0 11 -10.715 15.5714 -2
-8 0 13 -10.715 15.5714 1
7 0 11 100.172 5.83989 -2
-7 0 13 100.172 5.83989 1
6 0 11 141.348 6.02512 -2
-6 0 13 141.348 6.02512 1
5 0 11 36.259 6.7633 -2
-5 0 13 36.259 6.7633 1
4 0 12 73.8859 4.28482 -2
-4 0 13 73.8859 4.28482 1
3 0 12 274.04 6.76816 -2
-3 0 13 274.04 6.76816 1
2 0 12 90.3941 4.25774 -2
-2 0 13 90.3941 4.25774 1
1 0 13 184.463 6.27929 -2
-1 0 13 184.463 6.27929 1
0 0 13 277.091 6.37293 -2
0 0 13 277.091 6.37293 1
-1 0 13 353.522 9.91882 -2
1 0 13 353.522 9.91882 1
-2 0 14 45.8643 4.50696 -2
2 0 13 45.8643 4.50696 1
-3 0 14 51.7289 3.64087 -2
3 0 13 51.7289 3.64087 1
-4 0 14 128.357 5.89678 -2
4 0 13 128.357 5.89678 1
-5 0 15 113.731 12.9 -2
5 0 13 113.731 12.9 1
-6 0 15 37.7901 7.17557 -2
6 0 13 37.7901 7.17557 1
-7 0 15 65.3437 11.5986 -2
7 0 13 65.3437 11.5986 1
7 1 11 48.2089 5.52884 -2
7 -1 -13 48.2089 5.52884 1
-7 -1 -11 61.118 5.42837 -2
-7 1 13 61.118 5.42837 1
6 1 11 19.6381 3.96707 -2
6 -1 -13 19.6381 3.96707 1
-6 -1 -11 19.7111 4.01789 -2
-6 1 13 19.7111 4.01789 1
5 1 11 262.432 22.7292 -2
5 -1 -13 262.432 22.7292 1
-5 -1 -11 239.765 10.1446 -2
-5 1 13 239.765 10.1446 1
4 1 12 194.527 8.24685 -2
4 -1 -13 194.527 8.24685 1
-4 -1 -12 224.104 5.91248 -2
-4 1 13 224.104 5.91248 1
3 1 12 39.1861 3.41289 -2
3 -1 -13 39.1861 3.41289 1
-3 -1 -12 46.7402 2.72176 -2
-3 1 13 46.7402 2.72176 1
2 1 12 122.361 5.21206 -2
2 -1 -13 122.361 5.21206 1
-2 -1 -12 109.923 4.30556 -2
-2 1 13 109.923 4.30556 1
1 1 13 321.178 9.64793 -2
1 -1 -13 321.178 9.64793 1
-1 -1 -13 347.517 7.85309 -2
-1 1 13 347.517 7.85309 1
0 1 13 120.025 4.64797 -2
0 -1 -13 120.025 4.64797 1
0 -1 -13 113.578 3.35902 -2
0 1 13 113.578 3.35902 1
-1 1 13 327.188 9.44623 -2
-1 -1 -13 327.188 9.44623 1
1 -1 -13 334.226 8.9931 -2
1 1 13 334.226 8.9931 1
-2 1 14 288.698 8.74655 -2
-2 -1 -13 288.698 8.74655 1
2 -1 -14 287.376 8.8165 -2
2 1 13 287.376 8.8165 1
-3 1 14 124.205 4.89697 -2
-3 -1 -13 124.205 4.89697 1
3 -1 -14 123.263 5.02286 -2
3 1 13 123.263 5.02286 1
-4 1 14 26.4534 5.2093 -2
-4 -1 -13 26.4534 5.2093 1
4 -1 -14 34.0683 5.2925 -2
4 1 13 34.0683 5.2925 1
-5 1 15 75.255 8.73767 -2
-5 -1 -13 75.255 8.73767 1
5 -1 -15 104.915 13.1185 -2
5 1 13 104.915 13.1185 1
-6 1 15 104.38 9.5358 -2
-6 -1 -13 104.38 9.5358 1
6 -1 -15 95.0484 6.82749 -2
6 1 13 95.0484 6.82749 1
-7 1 15 30.2049 9.15509 -2
-7 -1 -13 30.2049 9.15509 1
7 -1 -15 32.7939 11.5331 -2
7 1 13 32.7939 11.5331 1
7 2 11 55.3886 5.26926 -2
7 -2 -13 55.3886 5.26926 1
-7 -2 -11 48.108 5.10926 -2
-7 2 13 48.108 5.10926 1
6 2 11 120.787 5.53982 -2
6 -2 -13 120.787 5.53982 1
-6 -2 -11 107.245 5.08304 -2
-6 2 13 107.245 5.08304 1
5 2 11 8.33463 9.73221 -2
5 -2 -13 8.33463 9.73221 1
-5 -2 -11 7.99966 7.08581 -2
-5 2 13 7.99966 7.08581 1
4 2 12 138.297 6.12404 -2
4 -2 -13 138.297 6.12404 1
-4 -2 -12 143.978 5.26637 -2
-4 2 13 143.978 5.26637 1
3 2 12 147.075 5.82831 -2
3 -2 -13 147.075 5.82831 1
-3 -2 -12 124.566 3.95334 -2
-3 2 13 124.566 3.95334 1
2 2 12 65.77 5.68447 -2
2 -2 -13 65.77 5.68447 1
-2 -2 -12 69.478 3.82732 -2
-2 2 13 69.478 3.82732 1
1 2 13 109.068 6.2309 -2
1 -2 -13 109.068 6.2309 1
-1 -2 -13 87.6295 4.23326 -2
-1 2 13 87.6295 4.23326 1
0 2 13 458.974 13.4384 -2
0 -2 -13 458.974 13.4384 1
0 -2 -13 442.186 9.09251 -2
0 2 13 442.186 9.09251 1
-1 2 13 150.346 7.68215 -2
-1 -2 -13 150.346 7.68215 1
1 -2 -13 179.641 5.63853 -2
1 2 13 179.641 5.63853 1
-2 2 14 87.4781 6.55323 -2
-2 -2 -13 87.4781 6.55323 1
2 -2 -14 72.9689 4.75147 -2
2 2 13 72.9689 4.75147 1
-3 2 14 92.3117 5.52259 -2
-3 -2 -13 92.3117 5.52259 1
3 -2 -14 90.4384 3.69569 -2
3 2 13 90.4384 3.69569 1
-4 2 14 149.291 7.87392 -2
-4 -2 -13 149.291 7.87392 1
4 -2 -14 148.123 6.32272 -2
4 2 13 148.123 6.32272 1
-5 2 15 27.5061 9.39646 -2
-5 -2 -13 27.5061 9.39646 1
5 -2 -15 32.7089 9.34488 -2
5 2 13 32.7089 9.34488 1
-6 2 15 68.647 9.12818 -2
-6 -2 -13 68.647 9.12818 1
6 -2 -15 53.6662 7.08836 -2
6 2 13 53.6662 7.08836 1
7 3 11 4.39649 18.205 -2
7 -3 -13 4.39649 18.205 1
-7 -3 -11 27.9206 9.50967 -2
-7 3 13 27.9206 9.50967 1
6 3 11 20.4408 5.49067 -2
6 -3 -13 20.4408 5.49067 1
-6 -3 -11 18.1861 4.38866 -2
-6 3 13 18.1861 4.38866 1
-5 -3 -11 104.14 7.99817 -2
-5 3 13 104.14 7.99817 1
4 3 12 119.351 6.44263 -2
4 -3 -13 119.351 6.44263 1
-4 -3 -12 114.264 5.08532 -2
-4 3 13 114.264 5.08532 1
3 3 12 63.5347 5.15269 -2
3 -3 -13 63.5347 5.15269 1
-3 -3 -12 68.9134 3.37486 -2
-3 3 13 68.9134 3.37486 1
2 3 12 172.552 9.76223 -2
2 -3 -13 172.552 9.76223 1
-2 -3 -12 175.815 5.96744 -2
-2 3 13 175.815 5.96744 1
1 3 13 51.26 7.06269 -2
1 -3 -13 51.26 7.06269 1
-1 -3 -13 47.6395 4.04247 -2
-1 3 13 47.6395 4.04247 1
0 3 13 59.3795 4.9756 -2
0 -3 -13 59.3795 4.9756 1
0 -3 -13 63.6543 2.64539 -2
0 3 13 63.6543 2.64539 1
-1 3 13 36.4791 5.34467 -2
-1 -3 -13 36.4791 5.34467 1
1 -3 -13 29.9572 3.96166 -2
1 3 13 29.9572 3.96166 1
-2 3 14 97.2893 7.03844 -2
-2 -3 -13 97.2893 7.03844 1
2 -3 -14 110.24 5.38149 -2
2 3 13 110.24 5.38149 1
-3 3 14 96.9163 5.61859 -2
-3 -3 -13 96.9163 5.61859 1
3 -3 -14 89.6263 3.95509 -2
3 3 13 89.6263 3.95509 1
-4 3 14 25.234 6.08047 -2
-4 -3 -13 25.234 6.08047 1
4 -3 -14 18.87 4.61263 -2
4 3 13 18.87 4.61263 1
5 -3 -15 81.593 9.09377 -2
5 3 13 81.593 9.09377 1
4 4 12 20.8374 7.10365 -2
4 -4 -13 20.8374 7.10365 1
-4 -4 -12 36.2886 6.48423 -2
-4 4 13 36.2886 6.48423 1
3 4 12 148.578 9.75146 -2
3 -4 -13 148.578 9.75146 1
-3 -4 -12 160.218 5.77808 -2
-3 4 13 160.218 5.77808 1
2 4 12 73.1819 8.05349 -2
2 -4 -13 73.1819 8.05349 1
-2 -4 -12 80.0754 5.54216 -2
-2 4 13 80.0754 5.54216 1
1 4 13 61.1648 15.8167 -2
1 -4 -13 61.1648 15.8167 1
-1 -4 -13 51.973 5.27278 -2
-1 4 13 51.973 5.27278 1
0 4 13 42.5032 9.15163 -2
0 -4 -13 42.5032 9.15163 1
0 -4 -13 32.1672 2.97002 -2
0 4 13 32.1672 2.97002 1
-1 4 13 50.2873 13.6457 -2
-1 -4 -13 50.2873 13.6457 1
1 -4 -13 39.1921 6.13799 -2
1 4 13 39.1921 6.13799 1
-2 4 14 35.9224 15.0482 -2
-2 -4 -13 35.9224 15.0482 1
2 -4 -14 8.47414 7.38202 -2
2 4 13 8.47414 7.38202 1
-3 4 14 18.4487 10.5425 -2
-3 -4 -13 18.4487 10.5425 1
3 -4 -14 20.21 4.45012 -2
3 4 13 20.21 4.45012 1
4 -4 -14 74.1613 11.6182 -2
4 4 13 74.1613 11.6182 1
-8 0 14 34.4187 9.16771 1
7 0 12 59.6821 6.09178 -2
-7 0 14 59.6821 6.09178 1
6 0 12 41.8403 4.93009 -2
-6 0 14 41.8403 4.93009 1
5 0 12 375.696 20.6148 -2
-5 0 14 375.696 20.6148 1
4 0 13 179.331 6.19838 -2
-4 0 14 179.331 6.19838 1
3 0 13 25.7835 3.17675 -2
-3 0 14 25.7835 3.17675 1
2 0 13 85.4079 4.92368 -2
-2 0 14 85.4079 4.92368 1
1 0 14 206.496 6.94489 -2
-1 0 14 206.496 6.94489 1
0 0 14 31.3857 2.53045 -2
0 0 14 31.3857 2.53045 1
-1 0 14 146.935 5.47662 -2
1 0 14 146.935 5.47662 1
-2 0 15 251.74 8.32944 -2
2 0 14 251.74 8.32944 1
-3 0 15 93.4164 4.64653 -2
3 0 14 93.4164 4.64653 1
-4 0 15 50.5294 5.14762 -2
4 0 14 50.5294 5.14762 1
-5 0 16 23.2416 11.8724 -2
5 0 14 23.2416 11.8724 1
-6 0 16 9.86788 7.03051 -2
6 0 14 9.86788 7.03051 1
7 1 12 53.4622 6.9155 -2
7 -1 -14 53.4622 6.9155 1
-7 -1 -12 54.6444 5.75645 -2
-7 1 14 54.6444 5.75645 1
6 1 12 191.338 6.79356 -2
6 -1 -14 191.338 6.79356 1
-6 -1 -12 189.731 6.38311 -2
-6 1 14 189.731 6.38311 1
-5 -1 -12 45.7131 10.6926 -2
-5 1 14 45.7131 10.6926 1
4 1 13 31.0524 5.66805 -2
4 -1 -14 31.0524 5.66805 1
-4 -1 -13 31.9334 4.31518 -2
-4 1 14 31.9334 4.31518 1
3 1 13 257.837 8.48782 -2
3 -1 -14 257.837 8.48782 1
-3 -1 -13 257.419 6.28159 -2
-3 1 14 257.419 6.28159 1
2 1 13 201.089 7.52895 -2
2 -1 -14 201.089 7.52895 1
-2 -1 -13 183.233 5.87007 -2
-2 1 14 183.233 5.87007 1
1 1 14 95.529 5.56307 -2
1 -1 -14 95.529 5.56307 1
-1 -1 -14 73.4057 4.29199 -2
-1 1 14 73.4057 4.29199 1
0 1 14 179.215 5.53259 -2
0 -1 -14 179.215 5.53259 1
0 -1 -14 173.677 4.58556 -2
0 1 14 173.677 4.58556 1
-1 1 14 135.9 7.50932 -2
-1 -1 -14 135.9 7.50932 1
1 -1 -14 169.767 6.35215 -2
1 1 14 169.767 6.35215 1
-2 1 15 31.8213 6.19308 -2
-2 -1 -14 31.8213 6.19308 1
2 -1 -15 36.9051 5.01222 -2
2 1 14 36.9051 5.01222 1
-3 1 15 163.308 7.59024 -2
-3 -1 -14 163.308 7.59024 1
3 -1 -15 188.251 6.25446 -2
3 1 14 188.251 6.25446 1
-4 1 15 123.874 6.27064 -2
-4 -1 -14 123.874 6.27064 1
4 -1 -15 104.746 6.76574 -2
4 1 14 104.746 6.76574 1
-5 1 16 32.1054 10.0351 -2
-5 -1 -14 32.1054 10.0351 1
5 -1 -16 52.2883 15.8665 -2
5 1 14 52.2883 15.8665 1
-6 1 16 16.4804 8.6158 -2
-6 -1 -14 16.4804 8.6158 1
6 -1 -16 2.11291 8.97754 -2
6 1 14 2.11291 8.97754 1
7 2 12 50.3729 8.03959 -2
7 -2 -14 50.3729 8.03959 1
-7 -2 -12 51.1878 6.20381 -2
-7 2 14 51.1878 6.20381 1
6 2 12 19.3871 4.94552 -2
6 -2 -14 19.3871 4.94552 1
-6 -2 -12 15.4678 4.67034 -2
-6 2 14 15.4678 4.67034 1
5 2 12 125.054 13.5958 -2
5 -2 -14 125.054 13.5958 1
-5 -2 -12 114.816 9.02698 -2
-5 2 14 114.816 9.02698 1
4 2 13 163.06 6.91405 -2
4 -2 -14 163.06 6.91405 1
-4 -2 -13 168.275 6.21982 -2
-4 2 14 168.275 6.21982 1
3 2 13 43.7793 4.87539 -2
3 -2 -14 43.7793 4.87539 1
-3 -2 -13 49.5655 3.44346 -2
-3 2 14 49.5655 3.44346 1
2 2 13 143.052 7.68922 -2
2 -2 -14 143.052 7.68922 1
-2 -2 -13 148.991 5.52812 -2
-2 2 14 148.991 5.52812 1
1 2 14 138.32 6.33286 -2
1 -2 -14 138.32 6.33286 1
-1 -2 -14 136.686 5.19939 -2
-1 2 14 136.686 5.19939 1
0 2 14 21.0331 3.54495 -2
0 -2 -14 21.0331 3.54495 1
0 -2 -14 24.6232 2.22955 -2
0 2 14 24.6232 2.22955 1
-1 2 14 78.5342 6.19868 -2
-1 -2 -14 78.5342 6.19868 1
1 -2 -14 67.9467 4.58532 -2
1 2 14 67.9467 4.58532 1
-2 2 15 236.858 10.0479 -2
-2 -2 -14 236.858 10.0479 1
2 -2 -15 232.811 7.46984 -2
2 2 14 232.811 7.46984 1
-3 2 15 107.476 6.00886 -2
-3 -2 -14 107.476 6.00886 1
3 -2 -15 93.4386 4.15003 -2
3 2 14 93.4386 4.15003 1
-4 2 15 20.9654 6.08854 -2
-4 -2 -14 20.9654 6.08854 1
4 -2 -15 17.9741 5.30496 -2
4 2 14 17.9741 5.30496 1
-5 2 16 74.4468 10.6926 -2
-5 -2 -14 74.4468 10.6926 1
5 -2 -16 72.322 24.9851 -2
5 2 14 72.322 24.9851 1
6 2 14 51.1374 6.84898 1
6 3 12 110.341 10.4887 -2
6 -3 -14 110.341 10.4887 1
-6 -3 -12 88.0819 9.48097 -2
-6 3 14 88.0819 9.48097 1
-5 -3 -12 23.3986 15.3984 -2
-5 3 14 23.3986 15.3984 1
4 3 13 42.2757 5.7696 -2
4 -3 -14 42.2757 5.7696 1
-4 -3 -13 38.8319 5.77815 -2
-4 3 14 38.8319 5.77815 1
3 3 13 62.787 5.59027 -2
3 -3 -14 62.787 5.59027 1
-3 -3 -13 74.0457 3.96308 -2
-3 3 14 74.0457 3.96308 1
2 3 13 95.2066 8.43318 -2
2 -3 -14 95.2066 8.43318 1
-2 -3 -13 92.3861 5.10796 -2
-2 3 14 92.3861 5.10796 1
1 3 14 18.1923 7.39987 -2
1 -3 -14 18.1923 7.39987 1
-1 -3 -14 17.0869 4.15845 -2
-1 3 14 17.0869 4.15845 1
0 3 14 207.393 8.52923 -2
0 -3 -14 207.393 8.52923 1
0 -3 -14 192.396 5.109 -2
0 3 14 192.396 5.109 1
-1 3 14 38.5359 7.35108 -2
-1 -3 -14 38.5359 7.35108 1
1 -3 -14 33.6333 4.60776 -2
1 3 14 33.6333 4.60776 1
-2 3 15 44.1004 6.66766 -2
-2 -3 -14 44.1004 6.66766 1
2 -3 -15 38.811 5.03907 -2
2 3 14 38.811 5.03907 1
-3 3 15 35.2996 4.95463 -2
-3 -3 -14 35.2996 4.95463 1
3 -3 -15 34.4884 3.32802 -2
3 3 14 34.4884 3.32802 1
-4 3 15 81.3333 9.65482 -2
-4 -3 -14 81.3333 9.65482 1
4 -3 -15 69.4425 6.20171 -2
4 3 14 69.4425 6.20171 1
-4 -4 -13 47.1653 12.4963 -2
-4 4 14 47.1653 12.4963 1
3 4 13 12.6602 6.4711 -2
3 -4 -14 12.6602 6.4711 1
-3 -4 -13 17.843 5.89456 -2
-3 4 14 17.843 5.89456 1
2 4 13 4.66312 7.45673 -2
2 -4 -14 4.66312 7.45673 1
-2 -4 -13 10.8657 6.25404 -2
-2 4 14 10.8657 6.25404 1
1 4 14 108.508 18.8907 -2
1 -4 -14 108.508 18.8907 1
-1 -4 -14 128.09 6.89191 -2
-1 4 14 128.09 6.89191 1
0 4 14 23.6293 9.65557 -2
0 -4 -14 23.6293 9.65557 1
0 -4 -14 22.9174 3.02766 -2
0 4 14 22.9174 3.02766 1
1 -4 -14 82.9114 7.85039 -2
1 4 14 82.9114 7.85039 1
2 -4 -15 39.2438 22.2458 -2
2 4 14 39.2438 22.2458 1
7 0 13 51.022 8.12266 -2
-7 0 15 51.022 8.12266 1
6 0 13 84.3214 6.11911 -2
-6 0 15 84.3214 6.11911 1
-5 0 15 21.1162 8.10268 1
4 0 14 19.5313 5.21482 -2
-4 0 15 19.5313 5.21482 1
3 0 14 235.748 7.53481 -2
-3 0 15 235.748 7.53481 1
2 0 14 255.632 10.7184 -2
-2 0 15 255.632 10.7184 1
1 0 15 87.6808 6.22266 -2
-1 0 15 87.6808 6.22266 1
0 0 15 169.969 5.48695 -2
0 0 15 169.969 5.48695 1
-1 0 15 140.811 6.1155 -2
1 0 15 140.811 6.1155 1
-2 0 16 14.2437 5.75527 -2
2 0 15 14.2437 5.75527 1
-3 0 16 49.2006 4.74788 -2
3 0 15 49.2006 4.74788 1
-4 0 16 138.04 7.97748 -2
4 0 15 138.04 7.97748 1
-5 0 17 -7.2002 21.5771 -2
5 0 15 -7.2002 21.5771 1
6 0 15 35.273 15.2088 1
7 1 13 52.4649 18.2515 -2
7 -1 -15 52.4649 18.2515 1
-7 -1 -13 58.2924 8.62353 -2
-7 1 15 58.2924 8.62353 1
6 1 13 49.5882 5.71429 -2
6 -1 -15 49.5882 5.71429 1
-6 -1 -13 63.5346 5.43509 -2
-6 1 15 63.5346 5.43509 1
-5 -1 -13 85.949 17.5301 -2
-5 1 15 85.949 17.5301 1
4 1 14 140.169 7.88158 -2
4 -1 -15 140.169 7.88158 1
-4 -1 -14 145.719 6.50336 -2
-4 1 15 145.719 6.50336 1
3 1 14 92.1983 6.08635 -2
3 -1 -15 92.1983 6.08635 1
-3 -1 -14 84.8099 4.03052 -2
-3 1 15 84.8099 4.03052 1
2 1 14 78.4918 6.58324 -2
2 -1 -15 78.4918 6.58324 1
-2 -1 -14 68.9214 4.94718 -2
-2 1 15 68.9214 4.94718 1
1 1 15 280.551 9.73424 -2
1 -1 -15 280.551 9.73424 1
-1 -1 -15 279.788 7.57798 -2
-1 1 15 279.788 7.57798 1
0 1 15 61.2061 3.98154 -2
0 -1 -15 61.2061 3.98154 1
0 -1 -15 68.9668 3.27218 -2
0 1 15 68.9668 3.27218 1
-1 1 15 147.746 8.04111 -2
-1 -1 -15 147.746 8.04111 1
1 -1 -15 148.331 5.93774 -2
1 1 15 148.331 5.93774 1
-2 1 16 140.171 8.28012 -2
-2 -1 -15 140.171 8.28012 1
2 -1 -16 132.791 6.58226 -2
2 1 15 132.791 6.58226 1
-3 1 16 100.018 6.40589 -2
-3 -1 -15 100.018 6.40589 1
3 -1 -16 123.594 5.3358 -2
3 1 15 123.594 5.3358 1
-4 1 16 4.21998 6.70221 -2
-4 -1 -15 4.21998 6.70221 1
4 -1 -16 -7.6887 6.2792 -2
4 1 15 -7.6887 6.2792 1
6 2 13 76.16 7.38762 -2
6 -2 -15 76.16 7.38762 1
-6 -2 -13 73.1377 6.30088 -2
-6 2 15 73.1377 6.30088 1
5 2 13 25.2499 12.1146 -2
5 -2 -15 25.2499 12.1146 1
-5 -2 -13 22.8154 8.9584 -2
-5 2 15 22.8154 8.9584 1
4 2 14 15.0649 5.55784 -2
4 -2 -15 15.0649 5.55784 1
-4 -2 -14 26.1151 4.80755 -2
-4 2 15 26.1151 4.80755 1
3 2 14 135.22 6.93848 -2
3 -2 -15 135.22 6.93848 1
-3 -2 -14 126.752 4.77356 -2
-3 2 15 126.752 4.77356 1
2 2 14 210.296 9.4831 -2
2 -2 -15 210.296 9.4831 1
-2 -2 -14 206.006 6.71491 -2
-2 2 15 206.006 6.71491 1
1 2 15 61.8014 6.51099 -2
1 -2 -15 61.8014 6.51099 1
-1 -2 -15 47.251 4.62159 -2
-1 2 15 47.251 4.62159 1
0 2 15 221.313 8.00599 -2
0 -2 -15 221.313 8.00599 1
0 -2 -15 208.241 5.53499 -2
0 2 15 208.241 5.53499 1
-1 2 15 112.278 7.40825 -2
-1 -2 -15 112.278 7.40825 1
1 -2 -15 113.385 5.66388 -2
1 2 15 113.385 5.66388 1
-2 2 16 23.6758 6.79076 -2
-2 -2 -15 23.6758 6.79076 1
2 -2 -16 19.9542 5.52153 -2
2 2 15 19.9542 5.52153 1
-3 2 16 13.2515 4.89483 -2
-3 -2 -15 13.2515 4.89483 1
3 -2 -16 20.7871 3.29871 -2
3 2 15 20.7871 3.29871 1
-4 2 16 81.9561 8.13428 -2
-4 -2 -15 81.9561 8.13428 1
4 -2 -16 89.505 6.62883 -2
4 2 15 89.505 6.62883 1
-5 -2 -15 22.9626 7.36062 1
5 2 15 15.8853 12.3791 1
-5 -3 -13 31.7957 16.567 -2
-5 3 15 31.7957 16.567 1
4 3 14 123.943 12.9122 -2
4 -3 -15 123.943 12.9122 1
-4 -3 -14 103.411 8.36388 -2
-4 3 15 103.411 8.36388 1
3 3 14 30.1921 6.38801 -2
3 -3 -15 30.1921 6.38801 1
-3 -3 -14 37.0799 4.52857 -2
-3 3 15 37.0799 4.52857 1
2 3 14 88.2301 8.98958 -2
2 -3 -15 88.2301 8.98958 1
-2 -3 -14 90.6873 5.42594 -2
-2 3 15 90.6873 5.42594 1
1 3 15 114.464 9.47567 -2
1 -3 -15 114.464 9.47567 1
-1 -3 -15 123.565 5.52679 -2
-1 3 15 123.565 5.52679 1
0 3 15 28.6899 5.10148 -2
0 -3 -15 28.6899 5.10148 1
0 -3 -15 26.5066 2.74725 -2
0 3 15 26.5066 2.74725 1
-1 3 15 69.9588 8.36757 -2
-1 -3 -15 69.9588 8.36757 1
1 -3 -15 56.8457 5.33346 -2
1 3 15 56.8457 5.33346 1
-2 3 16 95.9772 9.80915 -2
-2 -3 -15 95.9772 9.80915 1
2 -3 -16 107.98 7.97721 -2
2 3 15 107.98 7.97721 1
-3 3 16 40.4256 6.82981 -2
-3 -3 -15 40.4256 6.82981 1
3 -3 -16 33.6225 4.70008 -2
3 3 15 33.6225 4.70008 1
-2 -4 -14 42.444 9.35248 -2
-2 4 15 42.444 9.35248 1
-1 -4 -15 18.6177 12.8509 -2
-1 4 15 18.6177 12.8509 1
0 4 15 43.8055 17.7716 -2
0 -4 -15 43.8055 17.7716 1
0 -4 -15 43.6199 5.54199 -2
0 4 15 43.6199 5.54199 1
1 -4 -15 50.8031 15.4787 -2
1 4 15 50.8031 15.4787 1
6 0 14 35.774 7.96639 -2
-6 0 16 35.774 7.96639 1
-5 0 16 16.5761 8.33436 1
4 0 15 168.115 8.90292 -2
-4 0 16 168.115 8.90292 1
3 0 15 41.8846 4.76356 -2
-3 0 16 41.8846 4.76356 1
2 0 15 40.6537 6.39043 -2
-2 0 16 40.6537 6.39043 1
1 0 16 199.764 9.3587 -2
-1 0 16 199.764 9.3587 1
0 0 16 136.388 6.15908 -2
0 0 16 136.388 6.15908 1
-1 0 16 136.498 7.28231 -2
1 0 16 136.498 7.28231 1
-2 0 17 200.218 10.5916 -2
2 0 16 200.218 10.5916 1
-3 0 17 99.6045 6.25135 -2
3 0 16 99.6045 6.25135 1
-4 0 17 -1.4209 6.41731 -2
4 0 16 -1.4209 6.41731 1
6 1 14 17.3945 7.30231 -2
6 -1 -16 17.3945 7.30231 1
-6 -1 -14 32.3223 9.45906 -2
-6 1 16 32.3223 9.45906 1
5 -1 -16 103.806 12.5474 1
-5 -1 -14 102.246 15.3673 -2
-5 1 16 102.246 15.3673 1
4 1 15 4.48847 7.22893 -2
4 -1 -16 4.48847 7.22893 1
-4 -1 -15 8.78541 5.65243 -2
-4 1 16 8.78541 5.65243 1
3 1 15 154.317 8.71458 -2
3 -1 -16 154.317 8.71458 1
-3 -1 -15 126.155 5.19897 -2
-3 1 16 126.155 5.19897 1
2 1 15 137.205 8.27505 -2
2 -1 -16 137.205 8.27505 1
-2 -1 -15 151.431 6.26288 -2
-2 1 16 151.431 6.26288 1
1 1 16 53.6534 6.57286 -2
1 -1 -16 53.6534 6.57286 1
-1 -1 -16 53.7746 5.14984 -2
-1 1 16 53.7746 5.14984 1
0 1 16 178.855 6.50139 -2
0 -1 -16 178.855 6.50139 1
0 -1 -16 173.332 5.7637 -2
0 1 16 173.332 5.7637 1
-1 1 16 115.052 7.8551 -2
-1 -1 -16 115.052 7.8551 1
1 -1 -16 123.386 5.81546 -2
1 1 16 123.386 5.81546 1
-2 1 17 22.2431 7.53999 -2
-2 -1 -16 22.2431 7.53999 1
2 -1 -17 11.4423 5.80232 -2
2 1 16 11.4423 5.80232 1
-3 1 17 68.579 6.40163 -2
-3 -1 -16 68.579 6.40163 1
3 -1 -17 65.7502 5.13788 -2
3 1 16 65.7502 5.13788 1
-4 1 17 123.517 10.8886 -2
-4 -1 -16 123.517 10.8886 1
4 -1 -17 101.756 11.945 -2
4 1 16 101.756 11.945 1
5 2 14 29.5314 13.3465 -2
5 -2 -16 29.5314 13.3465 1
-5 -2 -14 54.9501 12.1119 -2
-5 2 16 54.9501 12.1119 1
4 2 15 117.938 7.14501 -2
4 -2 -16 117.938 7.14501 1
-4 -2 -15 110.028 6.86796 -2
-4 2 16 110.028 6.86796 1
3 2 15 34.8232 5.50399 -2
3 -2 -16 34.8232 5.50399 1
-3 -2 -15 25.6675 3.94935 -2
-3 2 16 25.6675 3.94935 1
2 2 15 40.2399 6.86906 -2
2 -2 -16 40.2399 6.86906 1
-2 -2 -15 36.1599 4.96243 -2
-2 2 16 36.1599 4.96243 1
1 2 16 133.835 8.14504 -2
1 -2 -16 133.835 8.14504 1
-1 -2 -16 120.365 5.68653 -2
-1 2 16 120.365 5.68653 1
0 2 16 40.1257 3.90345 -2
0 -2 -16 40.1257 3.90345 1
0 -2 -16 39.78 2.87886 -2
0 2 16 39.78 2.87886 1
-1 2 16 66.0396 7.15986 -2
-1 -2 -16 66.0396 7.15986 1
1 -2 -16 70.5854 5.52532 -2
1 2 16 70.5854 5.52532 1
-2 2 17 118.901 9.33206 -2
-2 -2 -16 118.901 9.33206 1
2 -2 -17 98.1463 7.0721 -2
2 2 16 98.1463 7.0721 1
-3 2 17 73.4462 6.54323 -2
-3 -2 -16 73.4462 6.54323 1
3 -2 -17 83.1217 5.37165 -2
3 2 16 83.1217 5.37165 1
4 -2 -17 7.2509 20.6629 -2
4 2 16 7.2509 20.6629 1
4 -3 -16 13.9822 5.78431 1
-4 3 16 3.681 4.75097 1
3 3 15 34.5166 9.60132 -2
3 -3 -16 34.5166 9.60132 1
-3 -3 -15 35.6728 6.02306 -2
-3 3 16 35.6728 6.02306 1
2 3 15 105.17 11.734 -2
2 -3 -16 105.17 11.734 1
-2 -3 -15 82.8493 6.32186 -2
-2 3 16 82.8493 6.32186 1
1 3 16 35.2426 8.76141 -2
1 -3 -16 35.2426 8.76141 1
-1 -3 -16 31.8451 5.63117 -2
-1 3 16 31.8451 5.63117 1
0 3 16 124.245 7.30551 -2
0 -3 -16 124.245 7.30551 1
0 -3 -16 107.501 4.2812 -2
0 3 16 107.501 4.2812 1
-1 3 16 67.8045 8.97963 -2
-1 -3 -16 67.8045 8.97963 1
1 -3 -16 75.5898 7.38777 -2
1 3 16 75.5898 7.38777 1
-2 -3 -16 5.33059 6.91683 1
2 3 16 7.3176 2.89541 1
-5 0 17 23.367 9.25803 1
4 0 16 7.78829 8.00668 -2
-4 0 17 7.78829 8.00668 1
3 0 16 135.356 7.00649 -2
-3 0 17 135.356 7.00649 1
2 0 16 218.769 10.0132 -2
-2 0 17 218.769 10.0132 1
1 0 17 38.202 9.21127 -2
-1 0 17 38.202 9.21127 1
0 0 17 54.3959 5.15278 -2
0 0 17 54.3959 5.15278 1
-1 0 17 80.4846 8.18373 -2
1 0 17 80.4846 8.18373 1
-2 0 18 35.8712 7.86777 -2
2 0 17 35.8712 7.86777 1
5 1 15 29.4732 15.7191 -2
5 -1 -17 29.4732 15.7191 1
-5 -1 -15 30.8194 15.5867 -2
-5 1 17 30.8194 15.5867 1
4 1 16 146.967 11.5224 -2
4 -1 -17 146.967 11.5224 1
-4 -1 -16 136.907 11.2117 -2
-4 1 17 136.907 11.2117 1
3 1 16 73.7188 8.47511 -2
3 -1 -17 73.7188 8.47511 1
-3 -1 -16 66.724 5.49603 -2
-3 1 17 66.724 5.49603 1
2 1 16 17.6872 10.1777 -2
2 -1 -17 17.6872 10.1777 1
-2 -1 -16 19.1164 5.59978 -2
-2 1 17 19.1164 5.59978 1
1 1 17 140.8 10.609 -2
1 -1 -17 140.8 10.609 1
-1 -1 -17 127.043 7.28368 -2
-1 1 17 127.043 7.28368 1
0 1 17 75.4502 5.30636 -2
0 -1 -17 75.4502 5.30636 1
0 -1 -17 72.9105 4.14308 -2
0 1 17 72.9105 4.14308 1
-1 1 17 75.0277 7.91921 -2
-1 -1 -17 75.0277 7.91921 1
1 -1 -17 70.227 5.78617 -2
1 1 17 70.227 5.78617 1
-2 1 18 107.076 15.8192 -2
-2 -1 -17 107.076 15.8192 1
2 -1 -18 90.3887 11.7454 -2
2 1 17 90.3887 11.7454 1
-3 1 18 50.0004 11.3556 -2
-3 -1 -17 50.0004 11.3556 1
3 -1 -18 63.0363 6.47649 -2
3 1 17 63.0363 6.47649 1
4 2 16 7.11992 18.0137 -2
4 -2 -17 7.11992 18.0137 1
-4 -2 -16 -3.3642 9.25566 -2
-4 2 17 -3.3642 9.25566 1
3 2 16 92.0599 7.71592 -2
3 -2 -17 92.0599 7.71592 1
-3 -2 -16 89.3725 6.13743 -2
-3 2 17 89.3725 6.13743 1
2 2 16 106.156 8.16224 -2
2 -2 -17 106.156 8.16224 1
-2 -2 -16 91.6932 6.46241 -2
-2 2 17 91.6932 6.46241 1
1 2 17 81.7564 8.76539 -2
1 -2 -17 81.7564 8.76539 1
-1 -2 -17 62.2254 6.02902 -2
-1 2 17 62.2254 6.02902 1
0 2 17 42.1854 4.62872 -2
0 -2 -17 42.1854 4.62872 1
0 -2 -17 31.1413 3.02576 -2
0 2 17 31.1413 3.02576 1
-1 2 17 120.363 9.26669 -2
-1 -2 -17 120.363 9.26669 1
1 -2 -17 107.277 7.20988 -2
1 2 17 107.277 7.20988 1
-2 2 18 33.3047 16.0488 -2
-2 -2 -17 33.3047 16.0488 1
2 -2 -18 11.4183 11.6338 -2
2 2 17 11.4183 11.6338 1
1 -3 -17 24.2594 7.86202 1
-1 3 17 37.0407 7.28087 1
3 0 17 17.3658 9.53477 -2
-3 0 18 17.3658 9.53477 1
2 0 17 14.785 10.2538 -2
-2 0 18 14.785 10.2538 1
1 0 18 53.2288 13.8175 -2
-1 0 18 53.2288 13.8175 1
0 0 18 200.467 11.928 -2
0 0 18 200.467 11.928 1
-1 0 18 42.0253 13.7141 -2
1 0 18 42.0253 13.7141 1
4 -1 -18 10.2089 6.68348 1
-4 1 18 3.401 9.44444 1
3 1 17 68.2733 11.9691 -2
3 -1 -18 68.2733 11.9691 1
-3 -1 -17 51.2398 13.2405 -2
-3 1 18 51.2398 13.2405 1
2 1 17 76.3732 15.2693 -2
2 -1 -18 76.3732 15.2693 1
-2 -1 -17 83.4976 15.9015 -2
-2 1 18 83.4976 15.9015 1
1 1 18 54.1039 13.9718 -2
1 -1 -18 54.1039 13.9718 1
-1 -1 -18 56.8043 14.329 -2
-1 1 18 56.8043 14.329 1
0 1 18 13.5584 5.78457 -2
0 -1 -18 13.5584 5.78457 1
0 -1 -18 16.9059 4.33497 -2
0 1 18 16.9059 4.33497 1
-1 1 18 133.923 15.5581 -2
-1 -1 -18 133.923 15.5581 1
1 -1 -18 124.672 9.73053 -2
1 1 18 124.672 9.73053 1
-2 -1 -18 48.1219 9.47735 1
2 1 18 71.4432 8.23076 1
2 2 17 15.3888 10.2606 -2
2 -2 -18 15.3888 10.2606 1
-2 -2 -17 4.53786 18.8168 -2
-2 2 18 4.53786 18.8168 1
1 -2 -18 44.7418 6.35171 1
-1 2 18 30.1238 4.65192 1
0 2 18 83.0576 7.13994 -2
0 -2 -18 83.0576 7.13994 1
0 -2 -18 86.4764 16.9437 -2
0 2 18 86.4764 16.9437 1
